REMARK WARNING: 32 MAX_TORS EXCEEDED!!!
REMARK  86 active torsions:
REMARK  status: ('A' for Active; 'I' for Inactive)
REMARK    1  A    between atoms: CA_128  and  N_127 
REMARK    2  A    between atoms: CA_128  and  CB_131 
REMARK    3  A    between atoms: CA_128  and  C_129 
REMARK       I    between atoms: C_129  and  N_134 
REMARK    4  A    between atoms: CB_131  and  CG2_133 
REMARK    5  A    between atoms: CB_131  and  CG1_132 
REMARK    6  A    between atoms: CA_135  and  N_134 
REMARK    7  A    between atoms: CA_135  and  CB_138 
REMARK    8  A    between atoms: CA_135  and  C_136 
REMARK       I    between atoms: C_136  and  N_142 
REMARK    9  A    between atoms: CB_138  and  CG2_140 
REMARK   10  A    between atoms: CB_138  and  CG1_139 
REMARK   11  A    between atoms: CG1_139  and  CD1_141 
REMARK   12  A    between atoms: CA_143  and  N_142 
REMARK   13  A    between atoms: CA_143  and  CB_146 
REMARK   14  A    between atoms: CA_143  and  C_144 
REMARK       I    between atoms: C_144  and  N_153 
REMARK   15  A    between atoms: CB_146  and  CG_147 
REMARK   16  A    between atoms: CG_147  and  CD_148 
REMARK   17  A    between atoms: CD_148  and  NE_149 
REMARK       I    between atoms: NE_149  and  CZ_150 
REMARK       I    between atoms: CZ_150  and  NH1_151 
REMARK   18  A    between atoms: CA_154  and  N_153 
REMARK   19  A    between atoms: CA_154  and  CB_157 
REMARK   20  A    between atoms: CA_154  and  C_155 
REMARK       I    between atoms: C_155  and  N_161 
REMARK   21  A    between atoms: CB_157  and  CG_158 
REMARK       I    between atoms: CG_158  and  ND2_160 
REMARK   22  A    between atoms: CA_162  and  N_161 
REMARK   23  A    between atoms: CA_162  and  CB_165 
REMARK   24  A    between atoms: CA_162  and  C_163 
REMARK       I    between atoms: C_163  and  N_170 
REMARK   25  A    between atoms: CB_165  and  CG_166 
REMARK   26  A    between atoms: CG_166  and  CD_167 
REMARK   27  A    between atoms: CD_167  and  CE_168 
REMARK   28  A    between atoms: CE_168  and  NZ_169 
REMARK   29  A    between atoms: CA_171  and  N_170 
REMARK   30  A    between atoms: CA_171  and  CB_174 
REMARK   31  A    between atoms: CA_171  and  C_172 
REMARK       I    between atoms: C_172  and  N_178 
REMARK   32  A    between atoms: CB_174  and  CG2_176 
REMARK   33  A    between atoms: CB_174  and  CG1_175 
REMARK   34  A    between atoms: CG1_175  and  CD1_177 
REMARK   35  A    between atoms: CA_179  and  N_178 
REMARK   36  A    between atoms: CA_179  and  CB_182 
REMARK   37  A    between atoms: CA_179  and  C_180 
REMARK       I    between atoms: C_180  and  N_189 
REMARK   38  A    between atoms: CB_182  and  CG_183 
REMARK   39  A    between atoms: CG_183  and  CD_184 
REMARK   40  A    between atoms: CD_184  and  NE_185 
REMARK       I    between atoms: NE_185  and  CZ_186 
REMARK       I    between atoms: CZ_186  and  NH2_188 
REMARK       I    between atoms: CZ_186  and  NH1_187 
REMARK   41  A    between atoms: CA_190  and  N_189 
REMARK   42  A    between atoms: CA_190  and  CB_193 
REMARK   43  A    between atoms: CA_190  and  C_191 
REMARK       I    between atoms: C_191  and  N_194 
REMARK   44  A    between atoms: CA_195  and  N_194 
REMARK   45  A    between atoms: CA_195  and  CB_198 
REMARK   46  A    between atoms: CA_195  and  C_196 
REMARK       I    between atoms: C_196  and  N_202 
REMARK   47  A    between atoms: CB_198  and  CG2_200 
REMARK   48  A    between atoms: CB_198  and  CG1_199 
REMARK   49  A    between atoms: CG1_199  and  CD1_201 
REMARK   50  A    between atoms: CA_203  and  N_202 
REMARK   51  A    between atoms: CA_203  and  C_204 
REMARK       I    between atoms: C_204  and  N_206 
REMARK   52  A    between atoms: CA_207  and  N_206 
REMARK   53  A    between atoms: CA_207  and  CB_210 
REMARK   54  A    between atoms: CA_207  and  C_208 
REMARK       I    between atoms: C_208  and  N_215 
REMARK   55  A    between atoms: CB_210  and  CG_211 
REMARK   56  A    between atoms: CG_211  and  CD_212 
REMARK   57  A    between atoms: CD_212  and  CE_213 
REMARK   58  A    between atoms: CE_213  and  NZ_214 
REMARK   59  A    between atoms: CA_216  and  N_215 
REMARK   60  A    between atoms: CA_216  and  CB_219 
REMARK   61  A    between atoms: CA_216  and  C_217 
REMARK       I    between atoms: C_217  and  N_223 
REMARK   62  A    between atoms: CB_219  and  CG_220 
REMARK   63  A    between atoms: CG_220  and  SD_221 
REMARK   64  A    between atoms: SD_221  and  CE_222 
REMARK   65  A    between atoms: CA_224  and  N_223 
REMARK   66  A    between atoms: CA_224  and  CB_227 
REMARK   67  A    between atoms: CA_224  and  C_225 
REMARK       I    between atoms: C_225  and  N_228 
REMARK   68  A    between atoms: CA_229  and  N_228 
REMARK   69  A    between atoms: CA_229  and  CB_232 
REMARK   70  A    between atoms: CA_229  and  C_230 
REMARK       I    between atoms: C_230  and  N_239 
REMARK   71  A    between atoms: CB_232  and  CG_233 
REMARK   72  A    between atoms: CG_233  and  CD_234 
REMARK   73  A    between atoms: CD_234  and  NE_235 
REMARK       I    between atoms: NE_235  and  CZ_236 
REMARK       I    between atoms: CZ_236  and  NH1_237 
REMARK   74  A    between atoms: CA_240  and  N_239 
REMARK   75  A    between atoms: CA_240  and  CB_243 
REMARK   76  A    between atoms: CA_240  and  C_241 
REMARK       I    between atoms: C_241  and  N_246 
REMARK   77  A    between atoms: CB_243  and  CG2_245 
REMARK   78  A    between atoms: CB_243  and  CG1_244 
REMARK   79  A    between atoms: CA_247  and  N_246 
REMARK   80  A    between atoms: CA_247  and  CB_250 
REMARK   81  A    between atoms: CA_247  and  C_248 
REMARK       I    between atoms: C_248  and  N_257 
REMARK   82  A    between atoms: CB_250  and  CG_251 
REMARK   83  A    between atoms: CA_258  and  N_257 
REMARK   84  A    between atoms: CA_258  and  CB_261 
REMARK   85  A    between atoms: CA_258  and  C_259 
REMARK   86  A    between atoms: CB_261  and  OG_262 
ROOT
ATOM      1  C   ALA L   8      -4.394  -9.675  30.457  0.00  0.00     0.240 C 
ATOM      2  O   ALA L   8      -4.644  -8.414  30.638  0.00  0.00    -0.271 OA
ATOM      3  H84 ILE L   9      -3.990 -11.378  31.321  0.00  0.00     0.163 HD
ATOM      4  N   ILE L   9      -4.214 -10.417  31.481  0.00  0.00    -0.346 N 
ENDROOT
BRANCH   1   5
ATOM      5  CA  ALA L   8      -4.274 -10.282  29.099  0.00  0.00     0.086 C 
ATOM      6  H80 ALA L   8      -4.026  -9.472  28.398  0.00  0.00     0.086 H 
BRANCH   5   7
ATOM      7  N   ALA L   8      -3.146 -11.263  29.059  0.00  0.00    -0.346 N 
ATOM      8  H79 ALA L   8      -3.342 -12.225  28.870  0.00  0.00     0.163 HD
ATOM      9  C   ARG L   7      -1.897 -10.887  29.268  0.00  0.00     0.241 C 
ATOM     10  O   ARG L   7      -1.560  -9.695  29.458  0.00  0.00    -0.271 OA
BRANCH   9  11
ATOM     11  CA  ARG L   7      -0.853 -11.992  29.255  0.00  0.00     0.089 C 
ATOM     12  H67 ARG L   7       0.035 -11.624  29.789  0.00  0.00     0.087 H 
BRANCH  11  13
ATOM     13  N   ARG L   7      -1.351 -13.172  29.983  0.00  0.00    -0.346 N 
ATOM     14  H66 ARG L   7      -1.447 -14.034  29.486  0.00  0.00     0.163 HD
ATOM     15  C   ILE L   6      -1.672 -13.142  31.245  0.00  0.00     0.241 C 
ATOM     16  O   ILE L   6      -1.527 -12.097  31.948  0.00  0.00    -0.271 OA
BRANCH  15  17
ATOM     17  CA  ILE L   6      -2.248 -14.425  31.836  0.00  0.00     0.092 C 
ATOM     18  H56 ILE L   6      -2.795 -14.153  32.751  0.00  0.00     0.088 H 
BRANCH  17  19
ATOM     19  N   ILE L   6      -3.205 -15.023  30.931  0.00  0.00    -0.346 N 
ATOM     20  H55 ILE L   6      -3.011 -15.938  30.576  0.00  0.00     0.163 HD
ATOM     21  C   LYS L   5      -4.307 -14.436  30.551  0.00  0.00     0.241 C 
ATOM     22  O   LYS L   5      -4.599 -13.310  30.979  0.00  0.00    -0.271 OA
BRANCH  21  23
ATOM     23  CA  LYS L   5      -5.198 -15.150  29.556  0.00  0.00     0.089 C 
ATOM     24  H43 LYS L   5      -5.853 -14.395  29.096  0.00  0.00     0.087 H 
BRANCH  23  25
ATOM     25  N   LYS L   5      -4.422 -15.757  28.473  0.00  0.00    -0.346 N 
ATOM     26  H42 LYS L   5      -4.423 -16.754  28.390  0.00  0.00     0.163 HD
ATOM     27  C   ASN L   4      -3.727 -15.063  27.607  0.00  0.00     0.241 C 
ATOM     28  O   ASN L   4      -3.740 -13.813  27.566  0.00  0.00    -0.271 OA
BRANCH  27  29
ATOM     29  CA  ASN L   4      -2.939 -15.909  26.641  0.00  0.00     0.097 C 
ATOM     30  H37 ASN L   4      -2.129 -15.294  26.223  0.00  0.00     0.088 H 
BRANCH  29  31
ATOM     31  N   ASN L   4      -2.329 -17.096  27.326  0.00  0.00    -0.346 N 
ATOM     32  H36 ASN L   4      -2.624 -18.017  27.071  0.00  0.00     0.163 HD
ATOM     33  C   ARG L   3      -1.417 -16.945  28.253  0.00  0.00     0.241 C 
ATOM     34  O   ARG L   3      -1.005 -15.851  28.576  0.00  0.00    -0.271 OA
BRANCH  33  35
ATOM     35  CA  ARG L   3      -0.880 -18.208  28.919  0.00  0.00     0.089 C 
ATOM     36  H24 ARG L   3      -0.624 -17.936  29.954  0.00  0.00     0.087 H 
BRANCH  35  37
ATOM     37  N   ARG L   3      -1.920 -19.214  29.011  0.00  0.00    -0.346 N 
ATOM     38  H23 ARG L   3      -1.840 -20.058  28.480  0.00  0.00     0.163 HD
ATOM     39  C   ILE L   2      -2.972 -19.028  29.789  0.00  0.00     0.241 C 
ATOM     40  O   ILE L   2      -3.179 -17.978  30.416  0.00  0.00    -0.271 OA
BRANCH  39  41
ATOM     41  CA  ILE L   2      -3.947 -20.176  29.878  0.00  0.00     0.092 C 
ATOM     42  H13 ILE L   2      -4.914 -19.782  30.223  0.00  0.00     0.088 H 
BRANCH  41  43
ATOM     43  N   ILE L   2      -4.161 -20.750  28.529  0.00  0.00    -0.346 N 
ATOM     44  H12 ILE L   2      -3.983 -21.723  28.378  0.00  0.00     0.163 HD
ATOM     45  C   VAL L   1      -4.581 -20.007  27.520  0.00  0.00     0.249 C 
ATOM     46  O   VAL L   1      -4.857 -18.815  27.588  0.00  0.00    -0.271 OA
BRANCH  45  47
ATOM     47  CA  VAL L   1      -4.697 -20.776  26.248  0.00  0.00     0.178 C 
ATOM     48  H4  VAL L   1      -4.041 -20.342  25.479  0.00  0.00     0.099 H 
BRANCH  47  49
ATOM     49  N   VAL L   1      -4.255 -22.113  26.556  0.00  0.00    -0.066 N 
ATOM     50  H1  VAL L   1      -4.311 -22.685  25.728  0.00  0.00     0.275 HD
ATOM     51  H2  VAL L   1      -4.843 -22.504  27.275  0.00  0.00     0.275 HD
ATOM     52  H3  VAL L   1      -3.301 -22.085  26.881  0.00  0.00     0.275 HD
ENDBRANCH  47  49
BRANCH  47  53
ATOM     53  CB  VAL L   1      -6.150 -20.713  25.750  0.00  0.00    -0.025 C 
ATOM     54  H5  VAL L   1      -6.307 -19.727  25.288  0.00  0.00     0.042 H 
BRANCH  53  55
ATOM     55  CG2 VAL L   1      -7.147 -20.845  26.911  0.00  0.00    -0.071 C 
ATOM     56  H9  VAL L   1      -6.944 -20.064  27.659  0.00  0.00     0.028 H 
ATOM     57  H10 VAL L   1      -7.039 -21.836  27.376  0.00  0.00     0.028 H 
ATOM     58  H11 VAL L   1      -8.172 -20.729  26.529  0.00  0.00     0.028 H 
ENDBRANCH  53  55
BRANCH  53  59
ATOM     59  CG1 VAL L   1      -6.385 -21.776  24.676  0.00  0.00    -0.071 C 
ATOM     60  H6  VAL L   1      -7.427 -21.721  24.328  0.00  0.00     0.028 H 
ATOM     61  H7  VAL L   1      -6.191 -22.773  25.098  0.00  0.00     0.028 H 
ATOM     62  H8  VAL L   1      -5.706 -21.598  23.829  0.00  0.00     0.028 H 
ENDBRANCH  53  59
ENDBRANCH  47  53
ENDBRANCH  45  47
ENDBRANCH  41  43
BRANCH  41  63
ATOM     63  CB  ILE L   2      -3.460 -21.182  30.933  0.00  0.00    -0.030 C 
ATOM     64  H14 ILE L   2      -4.148 -22.040  30.926  0.00  0.00     0.043 H 
BRANCH  63  65
ATOM     65  CG2 ILE L   2      -2.070 -21.718  30.607  0.00  0.00    -0.071 C 
ATOM     66  H17 ILE L   2      -2.078 -22.171  29.605  0.00  0.00     0.028 H 
ATOM     67  H18 ILE L   2      -1.786 -22.477  31.351  0.00  0.00     0.028 H 
ATOM     68  H19 ILE L   2      -1.344 -20.892  30.630  0.00  0.00     0.028 H 
ENDBRANCH  63  65
BRANCH  63  69
ATOM     69  CG1 ILE L   2      -3.542 -20.531  32.315  0.00  0.00    -0.063 C 
ATOM     70  H15 ILE L   2      -2.917 -19.626  32.318  0.00  0.00     0.033 H 
ATOM     71  H16 ILE L   2      -3.162 -21.241  33.064  0.00  0.00     0.033 H 
BRANCH  69  72
ATOM     72  CD1 ILE L   2      -4.974 -20.141  32.688  0.00  0.00    -0.076 C 
ATOM     73  H20 ILE L   2      -4.980 -19.679  33.686  0.00  0.00     0.027 H 
ATOM     74  H21 ILE L   2      -5.609 -21.040  32.696  0.00  0.00     0.027 H 
ATOM     75  H22 ILE L   2      -5.363 -19.424  31.950  0.00  0.00     0.027 H 
ENDBRANCH  69  72
ENDBRANCH  63  69
ENDBRANCH  41  63
ENDBRANCH  39  41
ENDBRANCH  35  37
BRANCH  35  76
ATOM     76  CB  ARG L   3       0.371 -18.670  28.305  0.00  0.00    -0.036 C 
ATOM     77  H25 ARG L   3       1.043 -17.816  28.135  0.00  0.00     0.036 H 
ATOM     78  H26 ARG L   3       0.157 -19.165  27.346  0.00  0.00     0.036 H 
BRANCH  76  79
ATOM     79  CG  ARG L   3       1.027 -19.666  29.272  0.00  0.00    -0.048 C 
ATOM     80  H27 ARG L   3       0.514 -20.636  29.203  0.00  0.00     0.035 H 
ATOM     81  H28 ARG L   3       0.951 -19.283  30.300  0.00  0.00     0.035 H 
BRANCH  79  82
ATOM     82  CD  ARG L   3       2.430 -19.833  28.919  0.00  0.00     0.009 C 
ATOM     83  H29 ARG L   3       2.942 -20.398  29.712  0.00  0.00     0.064 H 
ATOM     84  H30 ARG L   3       2.900 -18.844  28.811  0.00  0.00     0.064 H 
BRANCH  82  85
ATOM     85  NE  ARG L   3       2.537 -20.555  27.669  0.00  0.00    -0.227 N 
ATOM     86  H31 ARG L   3       1.668 -20.905  27.241  0.00  0.00     0.177 HD
ATOM     87  CZ  ARG L   3       3.675 -20.795  27.040  0.00  0.00     0.665 C 
ATOM     88  NH2 ARG L   3       4.828 -20.363  27.546  0.00  0.00    -0.235 N 
ATOM     89  NH1 ARG L   3       3.656 -21.472  25.897  0.00  0.00    -0.235 N 
ATOM     90  H34 ARG L   3       4.837 -19.839  28.433  0.00  0.00     0.174 HD
ATOM     91  H35 ARG L   3       5.711 -20.553  27.051  0.00  0.00     0.174 HD
ATOM     92  H32 ARG L   3       4.536 -21.665  25.398  0.00  0.00     0.174 HD
ATOM     93  H33 ARG L   3       2.761 -21.804  25.510  0.00  0.00     0.174 HD
ENDBRANCH  82  85
ENDBRANCH  79  82
ENDBRANCH  76  79
ENDBRANCH  35  76
ENDBRANCH  33  35
ENDBRANCH  29  31
BRANCH  29  94
ATOM     94  CB  ASN L   4      -3.845 -16.381  25.490  0.00  0.00     0.036 C 
ATOM     95  H38 ASN L   4      -4.520 -15.557  25.215  0.00  0.00     0.051 H 
ATOM     96  H39 ASN L   4      -4.438 -17.239  25.840  0.00  0.00     0.051 H 
BRANCH  94  97
ATOM     97  CG  ASN L   4      -3.064 -16.803  24.252  0.00  0.00     0.217 C 
ATOM     98  ND2 ASN L   4      -3.712 -17.531  23.356  0.00  0.00    -0.370 N 
ATOM     99  H40 ASN L   4      -3.245 -17.834  22.525  0.00  0.00     0.159 HD
ATOM    100  H41 ASN L   4      -4.669 -17.778  23.510  0.00  0.00     0.159 HD
ATOM    101  OD1 ASN L   4      -1.893 -16.475  24.108  0.00  0.00    -0.274 OA
ENDBRANCH  94  97
ENDBRANCH  29  94
ENDBRANCH  27  29
ENDBRANCH  23  25
BRANCH  23 102
ATOM    102  CB  LYS L   5      -6.079 -16.125  30.269  0.00  0.00    -0.038 C 
ATOM    103  H44 LYS L   5      -5.438 -16.830  30.819  0.00  0.00     0.036 H 
ATOM    104  H45 LYS L   5      -6.666 -16.673  29.517  0.00  0.00     0.036 H 
BRANCH 102 105
ATOM    105  CG  LYS L   5      -7.017 -15.508  31.227  0.00  0.00    -0.061 C 
ATOM    106  H46 LYS L   5      -7.198 -14.464  30.930  0.00  0.00     0.033 H 
ATOM    107  H47 LYS L   5      -6.570 -15.531  32.232  0.00  0.00     0.033 H 
BRANCH 105 108
ATOM    108  CD  LYS L   5      -8.342 -16.251  31.258  0.00  0.00    -0.043 C 
ATOM    109  H48 LYS L   5      -8.145 -17.331  31.324  0.00  0.00     0.035 H 
ATOM    110  H49 LYS L   5      -8.895 -16.035  30.332  0.00  0.00     0.035 H 
BRANCH 108 111
ATOM    111  CE  LYS L   5      -9.195 -15.827  32.457  0.00  0.00     0.080 C 
ATOM    112  H50 LYS L   5      -9.189 -14.729  32.513  0.00  0.00     0.075 H 
ATOM    113  H51 LYS L   5      -8.740 -16.243  33.368  0.00  0.00     0.075 H 
BRANCH 111 114
ATOM    114  NZ  LYS L   5     -10.607 -16.282  32.392  0.00  0.00    -0.079 N 
ATOM    115  H52 LYS L   5     -11.100 -15.965  33.212  0.00  0.00     0.274 HD
ATOM    116  H53 LYS L   5     -10.634 -17.289  32.352  0.00  0.00     0.274 HD
ATOM    117  H54 LYS L   5     -11.045 -15.901  31.568  0.00  0.00     0.274 HD
ENDBRANCH 111 114
ENDBRANCH 108 111
ENDBRANCH 105 108
ENDBRANCH 102 105
ENDBRANCH  23 102
ENDBRANCH  21  23
ENDBRANCH  17  19
BRANCH  17 118
ATOM    118  CB  ILE L   6      -1.122 -15.386  32.251  0.00  0.00    -0.030 C 
ATOM    119  H57 ILE L   6      -0.671 -15.828  31.350  0.00  0.00     0.043 H 
BRANCH 118 120
ATOM    120  CG2 ILE L   6      -0.042 -14.711  33.063  0.00  0.00    -0.071 C 
ATOM    121  H60 ILE L   6       0.430 -13.921  32.461  0.00  0.00     0.028 H 
ATOM    122  H61 ILE L   6       0.716 -15.453  33.353  0.00  0.00     0.028 H 
ATOM    123  H62 ILE L   6      -0.486 -14.267  33.967  0.00  0.00     0.028 H 
ENDBRANCH 118 120
BRANCH 118 124
ATOM    124  CG1 ILE L   6      -1.758 -16.476  33.112  0.00  0.00    -0.063 C 
ATOM    125  H58 ILE L   6      -2.573 -16.942  32.539  0.00  0.00     0.033 H 
ATOM    126  H59 ILE L   6      -2.168 -16.009  34.019  0.00  0.00     0.033 H 
BRANCH 124 127
ATOM    127  CD1 ILE L   6      -0.771 -17.572  33.533  0.00  0.00    -0.076 C 
ATOM    128  H63 ILE L   6      -1.294 -18.320  34.147  0.00  0.00     0.027 H 
ATOM    129  H64 ILE L   6       0.047 -17.125  34.117  0.00  0.00     0.027 H 
ATOM    130  H65 ILE L   6      -0.358 -18.058  32.637  0.00  0.00     0.027 H 
ENDBRANCH 124 127
ENDBRANCH 118 124
ENDBRANCH  17 118
ENDBRANCH  15  17
ENDBRANCH  11  13
BRANCH  11 131
ATOM    131  CB  ARG L   7      -0.426 -12.315  27.832  0.00  0.00    -0.036 C 
ATOM    132  H68 ARG L   7      -0.314 -11.372  27.276  0.00  0.00     0.036 H 
ATOM    133  H69 ARG L   7      -1.209 -12.928  27.361  0.00  0.00     0.036 H 
BRANCH 131 134
ATOM    134  CG  ARG L   7       0.903 -13.083  27.767  0.00  0.00    -0.048 C 
ATOM    135  H70 ARG L   7       0.690 -14.146  27.950  0.00  0.00     0.035 H 
ATOM    136  H71 ARG L   7       1.557 -12.698  28.563  0.00  0.00     0.035 H 
BRANCH 134 137
ATOM    137  CD  ARG L   7       1.659 -12.975  26.442  0.00  0.00     0.009 C 
ATOM    138  H72 ARG L   7       1.883 -11.918  26.237  0.00  0.00     0.064 H 
ATOM    139  H73 ARG L   7       1.034 -13.381  25.633  0.00  0.00     0.064 H 
BRANCH 137 140
ATOM    140  NE  ARG L   7       2.912 -13.731  26.512  0.00  0.00    -0.227 N 
ATOM    141  H74 ARG L   7       2.880 -14.731  26.266  0.00  0.00     0.177 HD
ATOM    142  CZ  ARG L   7       4.088 -13.222  26.870  0.00  0.00     0.665 C 
ATOM    143  NH2 ARG L   7       4.206 -11.932  27.194  0.00  0.00    -0.235 N 
ATOM    144  NH1 ARG L   7       5.146 -14.001  26.904  0.00  0.00    -0.235 N 
ATOM    145  H77 ARG L   7       3.380 -11.317  27.169  0.00  0.00     0.174 HD
ATOM    146  H78 ARG L   7       5.123 -11.552  27.469  0.00  0.00     0.174 HD
ATOM    147  H75 ARG L   7       6.061 -13.616  27.180  0.00  0.00     0.174 HD
ATOM    148  H76 ARG L   7       5.061 -14.997  26.655  0.00  0.00     0.174 HD
ENDBRANCH 137 140
ENDBRANCH 134 137
ENDBRANCH 131 134
ENDBRANCH  11 131
ENDBRANCH   9  11
ENDBRANCH   5   7
BRANCH   5 149
ATOM    149  CB  ALA L   8      -5.607 -10.893  28.626  0.00  0.00    -0.049 C 
ATOM    150  H81 ALA L   8      -6.398 -10.130  28.676  0.00  0.00     0.030 H 
ATOM    151  H82 ALA L   8      -5.873 -11.740  29.275  0.00  0.00     0.030 H 
ATOM    152  H83 ALA L   8      -5.502 -11.245  27.589  0.00  0.00     0.030 H 
ENDBRANCH   5 149
ENDBRANCH   1   5
BRANCH   4 153
ATOM    153  CA  ILE L   9      -4.309  -9.978  32.837  0.00  0.00     0.092 C 
ATOM    154  H85 ILE L   9      -5.298  -9.525  32.999  0.00  0.00     0.088 H 
BRANCH 153 155
ATOM    155  CB  ILE L   9      -4.138 -11.209  33.856  0.00  0.00    -0.030 C 
ATOM    156  H86 ILE L   9      -3.318 -11.849  33.498  0.00  0.00     0.043 H 
BRANCH 155 157
ATOM    157  CG2 ILE L   9      -3.755 -10.712  35.232  0.00  0.00    -0.071 C 
ATOM    158  H89 ILE L   9      -2.824 -10.130  35.166  0.00  0.00     0.028 H 
ATOM    159  H90 ILE L   9      -3.603 -11.570  35.903  0.00  0.00     0.028 H 
ATOM    160  H91 ILE L   9      -4.559 -10.074  35.628  0.00  0.00     0.028 H 
ENDBRANCH 155 157
BRANCH 155 161
ATOM    161  CG1 ILE L   9      -5.414 -12.029  33.828  0.00  0.00    -0.063 C 
ATOM    162  H87 ILE L   9      -5.703 -12.180  32.777  0.00  0.00     0.033 H 
ATOM    163  H88 ILE L   9      -6.200 -11.460  34.347  0.00  0.00     0.033 H 
BRANCH 161 164
ATOM    164  CD1 ILE L   9      -5.298 -13.417  34.501  0.00  0.00    -0.076 C 
ATOM    165  H92 ILE L   9      -6.264 -13.939  34.434  0.00  0.00     0.027 H 
ATOM    166  H93 ILE L   9      -5.022 -13.290  35.558  0.00  0.00     0.027 H 
ATOM    167  H94 ILE L   9      -4.525 -14.009  33.989  0.00  0.00     0.027 H 
ENDBRANCH 161 164
ENDBRANCH 155 161
ENDBRANCH 153 155
BRANCH 153 168
ATOM    168  C   ILE L   9      -3.243  -8.931  33.069  0.00  0.00     0.241 C 
ATOM    169  O   ILE L   9      -3.487  -7.854  33.673  0.00  0.00    -0.271 OA
ATOM    170  N   GLY L  10      -2.046  -9.224  32.622  0.00  0.00    -0.351 N 
ATOM    171  H95 GLY L  10      -1.910 -10.102  32.162  0.00  0.00     0.163 HD
BRANCH 170 172
ATOM    172  CA  GLY L  10      -0.905  -8.330  32.764  0.00  0.00     0.069 C 
ATOM    173  H96 GLY L  10      -0.009  -8.821  32.356  0.00  0.00     0.078 H 
ATOM    174  H97 GLY L  10      -0.749  -8.111  33.831  0.00  0.00     0.078 H 
BRANCH 172 175
ATOM    175  C   GLY L  10      -1.143  -7.014  32.011  0.00  0.00     0.236 C 
ATOM    176  O   GLY L  10      -0.790  -5.957  32.532  0.00  0.00    -0.272 OA
ATOM    177  N   LYS L  11      -1.687  -7.138  30.850  0.00  0.00    -0.346 N 
ATOM    178  H98 LYS L  11      -1.908  -8.052  30.509  0.00  0.00     0.163 HD
BRANCH 177 179
ATOM    179  CA  LYS L  11      -1.999  -5.929  29.990  0.00  0.00     0.089 C 
ATOM    180  H99 LYS L  11      -1.077  -5.352  29.824  0.00  0.00     0.087 H 
BRANCH 179 181
ATOM    181  CB  LYS L  11      -2.550  -6.366  28.675  0.00  0.00    -0.038 C 
ATOM    182 0H10 LYS L  11      -2.952  -5.483  28.157  0.00  0.00     0.036 H 
ATOM    183 1H10 LYS L  11      -3.363  -7.083  28.861  0.00  0.00     0.036 H 
BRANCH 181 184
ATOM    184  CG  LYS L  11      -1.567  -7.001  27.806  0.00  0.00    -0.061 C 
ATOM    185 2H10 LYS L  11      -1.143  -7.879  28.315  0.00  0.00     0.033 H 
ATOM    186 3H10 LYS L  11      -0.764  -6.285  27.579  0.00  0.00     0.033 H 
BRANCH 184 187
ATOM    187  CD  LYS L  11      -2.232  -7.441  26.511  0.00  0.00    -0.043 C 
ATOM    188 4H10 LYS L  11      -2.385  -6.562  25.867  0.00  0.00     0.035 H 
ATOM    189 5H10 LYS L  11      -3.204  -7.900  26.742  0.00  0.00     0.035 H 
BRANCH 187 190
ATOM    190  CE  LYS L  11      -1.386  -8.427  25.796  0.00  0.00     0.080 C 
ATOM    191 6H10 LYS L  11      -2.031  -9.142  25.265  0.00  0.00     0.075 H 
ATOM    192 7H10 LYS L  11      -0.762  -8.967  26.524  0.00  0.00     0.075 H 
BRANCH 190 193
ATOM    193  NZ  LYS L  11      -0.513  -7.736  24.820  0.00  0.00    -0.079 N 
ATOM    194 8H10 LYS L  11       0.057  -8.415  24.340  0.00  0.00     0.274 HD
ATOM    195 9H10 LYS L  11       0.081  -7.081  25.305  0.00  0.00     0.274 HD
ATOM    196 0H11 LYS L  11      -1.082  -7.242  24.151  0.00  0.00     0.274 HD
ENDBRANCH 190 193
ENDBRANCH 187 190
ENDBRANCH 184 187
ENDBRANCH 181 184
ENDBRANCH 179 181
BRANCH 179 197
ATOM    197  C   LYS L  11      -3.004  -5.071  30.697  0.00  0.00     0.241 C 
ATOM    198  O   LYS L  11      -2.850  -3.813  30.765  0.00  0.00    -0.271 OA
ATOM    199  N   MET L  12      -4.022  -5.662  31.231  0.00  0.00    -0.346 N 
ATOM    200 1H11 MET L  12      -4.084  -6.658  31.172  0.00  0.00     0.163 HD
BRANCH 199 201
ATOM    201  CA  MET L  12      -5.095  -4.925  31.923  0.00  0.00     0.090 C 
ATOM    202 2H11 MET L  12      -5.415  -4.111  31.256  0.00  0.00     0.087 H 
BRANCH 201 203
ATOM    203  CB  MET L  12      -6.330  -5.776  32.229  0.00  0.00    -0.030 C 
ATOM    204 3H11 MET L  12      -7.024  -5.172  32.831  0.00  0.00     0.037 H 
ATOM    205 4H11 MET L  12      -6.009  -6.654  32.809  0.00  0.00     0.037 H 
BRANCH 203 206
ATOM    206  CG  MET L  12      -7.061  -6.259  31.013  0.00  0.00    -0.021 C 
ATOM    207 5H11 MET L  12      -7.945  -6.823  31.345  0.00  0.00     0.049 H 
ATOM    208 6H11 MET L  12      -6.391  -6.926  30.451  0.00  0.00     0.049 H 
BRANCH 206 209
ATOM    209  SD  MET L  12      -7.613  -4.945  29.902  0.00  0.00    -0.173 SA
BRANCH 209 210
ATOM    210  CE  MET L  12      -6.386  -4.838  28.645  0.00  0.00    -0.035 C 
ATOM    211 7H11 MET L  12      -6.662  -4.050  27.929  0.00  0.00     0.041 H 
ATOM    212 8H11 MET L  12      -6.314  -5.802  28.120  0.00  0.00     0.041 H 
ATOM    213 9H11 MET L  12      -5.415  -4.595  29.101  0.00  0.00     0.041 H 
ENDBRANCH 209 210
ENDBRANCH 206 209
ENDBRANCH 203 206
ENDBRANCH 201 203
BRANCH 201 214
ATOM    214  C   MET L  12      -4.574  -4.312  33.185  0.00  0.00     0.241 C 
ATOM    215  O   MET L  12      -4.961  -3.177  33.590  0.00  0.00    -0.271 OA
ATOM    216  N   ALA L  13      -3.688  -5.007  33.888  0.00  0.00    -0.346 N 
ATOM    217 0H12 ALA L  13      -3.403  -5.908  33.562  0.00  0.00     0.163 HD
BRANCH 216 218
ATOM    218  CA  ALA L  13      -3.129  -4.489  35.111  0.00  0.00     0.086 C 
ATOM    219 1H12 ALA L  13      -3.967  -4.269  35.789  0.00  0.00     0.086 H 
BRANCH 218 220
ATOM    220  CB  ALA L  13      -2.199  -5.499  35.848  0.00  0.00    -0.049 C 
ATOM    221 2H12 ALA L  13      -1.811  -5.037  36.768  0.00  0.00     0.030 H 
ATOM    222 3H12 ALA L  13      -1.359  -5.770  35.192  0.00  0.00     0.030 H 
ATOM    223 4H12 ALA L  13      -2.770  -6.403  36.105  0.00  0.00     0.030 H 
ENDBRANCH 218 220
BRANCH 218 224
ATOM    224  C   ALA L  13      -2.396  -3.159  34.815  0.00  0.00     0.240 C 
ATOM    225  O   ALA L  13      -2.444  -2.206  35.567  0.00  0.00    -0.271 OA
ATOM    226  N   ARG L  14      -1.723  -3.156  33.689  0.00  0.00    -0.346 N 
ATOM    227 5H12 ARG L  14      -1.782  -3.953  33.088  0.00  0.00     0.163 HD
BRANCH 226 228
ATOM    228  CA  ARG L  14      -0.888  -2.023  33.283  0.00  0.00     0.089 C 
ATOM    229 6H12 ARG L  14      -0.218  -1.781  34.121  0.00  0.00     0.087 H 
BRANCH 228 230
ATOM    230  CB  ARG L  14      -0.003  -2.334  32.063  0.00  0.00    -0.036 C 
ATOM    231 7H12 ARG L  14      -0.651  -2.631  31.226  0.00  0.00     0.036 H 
ATOM    232 8H12 ARG L  14       0.669  -3.166  32.320  0.00  0.00     0.036 H 
BRANCH 230 233
ATOM    233  CG  ARG L  14       0.842  -1.144  31.625  0.00  0.00    -0.048 C 
ATOM    234 9H12 ARG L  14       1.500  -0.848  32.456  0.00  0.00     0.035 H 
ATOM    235 0H13 ARG L  14       0.175  -0.307  31.369  0.00  0.00     0.035 H 
BRANCH 233 236
ATOM    236  CD  ARG L  14       1.693  -1.479  30.421  0.00  0.00     0.009 C 
ATOM    237 1H13 ARG L  14       1.221  -2.291  29.849  0.00  0.00     0.064 H 
ATOM    238 2H13 ARG L  14       2.693  -1.797  30.752  0.00  0.00     0.064 H 
BRANCH 236 239
ATOM    239  NE  ARG L  14       1.809  -0.295  29.583  0.00  0.00    -0.227 N 
ATOM    240  CZ  ARG L  14       2.555   0.762  29.887  0.00  0.00     0.665 C 
ATOM    241  NH2 ARG L  14       3.267   0.793  31.009  0.00  0.00    -0.235 N 
ATOM    242  NH1 ARG L  14       2.589   1.789  29.060  0.00  0.00    -0.235 N 
ATOM    243 6H13 ARG L  14       3.243  -0.007  31.657  0.00  0.00     0.174 HD
ATOM    244 7H13 ARG L  14       3.843   1.617  31.231  0.00  0.00     0.174 HD
ATOM    245 4H13 ARG L  14       3.164   2.613  29.286  0.00  0.00     0.174 HD
ATOM    246 5H13 ARG L  14       2.041   1.767  28.188  0.00  0.00     0.174 HD
ATOM    247 3H13 ARG L  14       1.280  -0.275  28.699  0.00  0.00     0.177 HD
ENDBRANCH 236 239
ENDBRANCH 233 236
ENDBRANCH 230 233
ENDBRANCH 228 230
BRANCH 228 248
ATOM    248  C   ARG L  14      -1.788  -0.810  33.026  0.00  0.00     0.241 C 
ATOM    249  O   ARG L  14      -1.507   0.285  33.477  0.00  0.00    -0.271 OA
ATOM    250  N   VAL L  15      -2.879  -1.029  32.318  0.00  0.00    -0.346 N 
ATOM    251 8H13 VAL L  15      -3.139  -1.968  32.093  0.00  0.00     0.163 HD
BRANCH 250 252
ATOM    252  CA  VAL L  15      -3.720   0.087  31.853  0.00  0.00     0.092 C 
ATOM    253 9H13 VAL L  15      -3.035   0.939  31.729  0.00  0.00     0.088 H 
BRANCH 252 254
ATOM    254  CB  VAL L  15      -4.289  -0.167  30.522  0.00  0.00    -0.033 C 
ATOM    255 0H14 VAL L  15      -4.761   0.773  30.201  0.00  0.00     0.042 H 
BRANCH 254 256
ATOM    256  CG2 VAL L  15      -5.310  -1.116  30.570  0.00  0.00    -0.071 C 
ATOM    257 4H14 VAL L  15      -6.044  -0.826  31.336  0.00  0.00     0.028 H 
ATOM    258 5H14 VAL L  15      -4.885  -2.099  30.822  0.00  0.00     0.028 H 
ATOM    259 6H14 VAL L  15      -5.806  -1.171  29.590  0.00  0.00     0.028 H 
ENDBRANCH 254 256
BRANCH 254 260
ATOM    260  CG1 VAL L  15      -3.221  -0.469  29.497  0.00  0.00    -0.071 C 
ATOM    261 1H14 VAL L  15      -3.692  -0.652  28.520  0.00  0.00     0.028 H 
ATOM    262 2H14 VAL L  15      -2.659  -1.363  29.806  0.00  0.00     0.028 H 
ATOM    263 3H14 VAL L  15      -2.535   0.387  29.419  0.00  0.00     0.028 H 
ENDBRANCH 254 260
ENDBRANCH 252 254
BRANCH 252 264
ATOM    264  C   VAL L  15      -4.744   0.543  32.844  0.00  0.00     0.241 C 
ATOM    265  O   VAL L  15      -5.180   1.732  32.808  0.00  0.00    -0.271 OA
ATOM    266  N   PHE L  16      -5.143  -0.327  33.746  0.00  0.00    -0.346 N 
ATOM    267 7H14 PHE L  16      -4.858  -1.282  33.668  0.00  0.00     0.163 HD
BRANCH 266 268
ATOM    268  CA  PHE L  16      -6.018   0.091  34.890  0.00  0.00     0.093 C 
ATOM    269 8H14 PHE L  16      -6.571   0.971  34.530  0.00  0.00     0.088 H 
BRANCH 268 270
ATOM    270  CB  PHE L  16      -7.026  -0.947  35.307  0.00  0.00    -0.014 C 
ATOM    271 9H14 PHE L  16      -7.374  -0.709  36.323  0.00  0.00     0.043 H 
ATOM    272 0H15 PHE L  16      -6.535  -1.931  35.308  0.00  0.00     0.043 H 
BRANCH 270 273
ATOM    273  CG  PHE L  16      -8.173  -1.006  34.430  0.00  0.00    -0.056 A 
ATOM    274  CD1 PHE L  16      -9.255  -0.136  34.578  0.00  0.00    -0.077 A 
ATOM    275  CE1 PHE L  16     -10.329  -0.208  33.729  0.00  0.00    -0.082 A 
ATOM    276 1H15 PHE L  16      -9.246   0.603  35.371  0.00  0.00     0.084 H 
ATOM    277  CZ  PHE L  16     -10.319  -1.131  32.711  0.00  0.00    -0.083 A 
ATOM    278 3H15 PHE L  16     -11.176   0.456  33.859  0.00  0.00     0.083 H 
ATOM    279  CE2 PHE L  16      -9.210  -1.975  32.590  0.00  0.00    -0.082 A 
ATOM    280 5H15 PHE L  16     -11.150  -1.203  32.019  0.00  0.00     0.083 H 
ATOM    281  CD2 PHE L  16      -8.184  -1.894  33.421  0.00  0.00    -0.077 A 
ATOM    282 4H15 PHE L  16      -9.191  -2.713  31.796  0.00  0.00     0.083 H 
ATOM    283 2H15 PHE L  16      -7.336  -2.556  33.286  0.00  0.00     0.084 H 
ENDBRANCH 270 273
ENDBRANCH 268 270
BRANCH 268 284
ATOM    284  C   PHE L  16      -5.334   0.486  36.155  0.00  0.00     0.241 C 
ATOM    285  O   PHE L  16      -5.828   1.319  36.912  0.00  0.00    -0.271 OA
ATOM    286  N   SER L  17      -4.200  -0.098  36.400  0.00  0.00    -0.343 N 
ATOM    287 6H15 SER L  17      -3.779  -0.683  35.707  0.00  0.00     0.163 HD
BRANCH 286 288
ATOM    288  CA  SER L  17      -3.537   0.101  37.694  0.00  0.00     0.116 C 
ATOM    289 7H15 SER L  17      -4.019   0.959  38.186  0.00  0.00     0.093 H 
BRANCH 288 290
ATOM    290  CB  SER L  17      -3.757  -1.135  38.575  0.00  0.00     0.045 C 
ATOM    291 8H15 SER L  17      -4.837  -1.286  38.723  0.00  0.00     0.077 H 
ATOM    292 9H15 SER L  17      -3.272  -0.975  39.550  0.00  0.00     0.077 H 
BRANCH 290 293
ATOM    293  OG  SER L  17      -3.206  -2.287  37.966  0.00  0.00    -0.398 OA
ATOM    294 0H16 SER L  17      -3.352  -3.041  38.525  0.00  0.00     0.209 HD
ENDBRANCH 290 293
ENDBRANCH 288 290
BRANCH 288 295
ATOM    295  C   SER L  17      -2.051   0.431  37.563  0.00  0.00     0.198 C 
ATOM    296  O   SER L  17      -1.556   0.664  36.461  0.00  0.00    -0.646 OA
ATOM    297  OXT SER L  17      -1.293   0.485  38.542  0.00  0.00    -0.646 OA
ENDBRANCH 288 295
ENDBRANCH 286 288
ENDBRANCH 268 284
ENDBRANCH 266 268
ENDBRANCH 252 264
ENDBRANCH 250 252
ENDBRANCH 228 248
ENDBRANCH 226 228
ENDBRANCH 218 224
ENDBRANCH 216 218
ENDBRANCH 201 214
ENDBRANCH 199 201
ENDBRANCH 179 197
ENDBRANCH 177 179
ENDBRANCH 172 175
ENDBRANCH 170 172
ENDBRANCH 153 168
ENDBRANCH   4 153
TORSDOF 86
