REMARK  29 active torsions:
REMARK  status: ('A' for Active; 'I' for Inactive)
REMARK    1  A    between atoms: C_2  and  CA1_3 
REMARK       I    between atoms: C_2  and  N_13 
REMARK    2  A    between atoms: C1_8  and  CA_9 
REMARK    3  A    between atoms: CA_9  and  N_10 
REMARK    4  A    between atoms: CA_9  and  CB_11 
REMARK    5  A    between atoms: CB_11  and  OG_12 
REMARK    6  A    between atoms: N_13  and  CA_14 
REMARK    7  A    between atoms: CA_14  and  CB_15 
REMARK    8  A    between atoms: CA_14  and  C_22 
REMARK    9  A    between atoms: CB_15  and  CG_16 
REMARK   10  A    between atoms: CG_16  and  CD_17 
REMARK   11  A    between atoms: CD_17  and  NE_18 
REMARK       I    between atoms: NE_18  and  CZ_20 
REMARK       I    between atoms: C_22  and  N_24 
REMARK   12  A    between atoms: N_24  and  CA_25 
REMARK   13  A    between atoms: CA_25  and  C_26 
REMARK   14  A    between atoms: CA_25  and  CB_28 
REMARK       I    between atoms: C_26  and  N_33 
REMARK   15  A    between atoms: CB_28  and  CG_29 
REMARK   16  A    between atoms: CG_29  and  CD_30 
REMARK       I    between atoms: CD_30  and  NE2_32 
REMARK   17  A    between atoms: N_33  and  CA_34 
REMARK   18  A    between atoms: CA_34  and  C_35 
REMARK   19  A    between atoms: CA_34  and  CB_37 
REMARK       I    between atoms: C_35  and  N_42 
REMARK   20  A    between atoms: CB_37  and  CG_38 
REMARK   21  A    between atoms: CG_38  and  CD_39 
REMARK       I    between atoms: CD_39  and  NE2_41 
REMARK   22  A    between atoms: N_42  and  CA_43 
REMARK   23  A    between atoms: CA_43  and  CB_44 
REMARK   24  A    between atoms: CA_43  and  C_51 
REMARK   25  A    between atoms: CB_44  and  CG_45 
REMARK   26  A    between atoms: CG_45  and  CD_46 
REMARK   27  A    between atoms: CD_46  and  NE_47 
REMARK       I    between atoms: NE_47  and  CZ_49 
REMARK       I    between atoms: C_51  and  N_53 
REMARK   28  A    between atoms: N_53  and  CA_54 
REMARK   29  A    between atoms: CA_54  and  C_55 
ROOT
ATOM      1  CA  NON d   1     -65.284 -45.446  20.699  0.00  0.00     0.090 C 
ATOM      2  H24 NON d   1     -66.165 -45.835  20.168  0.00  0.00     0.087 H 
ENDROOT
BRANCH   1   3
ATOM      3  N   NON d   1     -64.687 -44.426  19.773  0.00  0.00    -0.346 N 
ATOM      4  C   NON d   1     -65.479 -43.690  18.974  0.00  0.00     0.241 C 
ATOM      5  O   NON d   1     -66.686 -43.907  18.919  0.00  0.00    -0.271 OA
ATOM      6  H23 NON d   1     -63.696 -44.294  19.750  0.00  0.00     0.163 HD
BRANCH   4   7
ATOM      7  CA  NON d   1     -64.898 -42.576  18.088  0.00  0.00     0.089 C 
ATOM      8  H15 NON d   1     -64.289 -43.094  17.332  0.00  0.00     0.087 H 
BRANCH   7   9
ATOM      9  N   NON d   1     -66.000 -41.821  17.326  0.00  0.00    -0.346 N 
ATOM     10  C   NON d   1     -66.745 -40.816  17.684  0.00  0.00     0.241 C 
ATOM     11  O   NON d   1     -66.901 -41.099  18.876  0.00  0.00    -0.271 OA
ATOM     12  H14 NON d   1     -66.173 -42.159  16.401  0.00  0.00     0.163 HD
BRANCH  10  13
ATOM     13  CA1 NON d   1     -66.941 -39.290  17.375  0.00  0.00     0.089 C 
ATOM     14  CB1 NON d   1     -66.056 -38.300  18.133  0.00  0.00    -0.021 C 
ATOM     15  CG  NON d   1     -66.428 -36.886  17.689  0.00  0.00     0.019 C 
ATOM     16  H2  NON d   1     -64.998 -38.496  17.904  0.00  0.00     0.039 H 
ATOM     17  H3  NON d   1     -66.222 -38.406  19.215  0.00  0.00     0.039 H 
ATOM     18  NE  NON d   1     -67.828 -36.767  18.086  0.00  0.00    -0.275 NA
ATOM     19  H4  NON d   1     -66.316 -36.772  16.601  0.00  0.00     0.067 H 
ATOM     20  H5  NON d   1     -65.808 -36.136  18.202  0.00  0.00     0.067 H 
ATOM     21  C1  NON d   1     -68.681 -37.706  18.055  0.00  0.00     0.128 C 
ATOM     22  N1  NON d   1     -68.338 -38.819  17.370  0.00  0.00    -0.363 N 
ATOM     23  H6  NON d   1     -69.054 -39.339  16.843  0.00  0.00     0.161 HD
ATOM     24  H1  NON d   1     -66.614 -39.200  16.329  0.00  0.00     0.087 H 
BRANCH  21  25
ATOM     25  CA  NON d   1     -70.057 -37.631  18.744  0.00  0.00     0.175 C 
ATOM     26  H7  NON d   1     -70.782 -37.819  17.939  0.00  0.00     0.099 H 
BRANCH  25  27
ATOM     27  N   NON d   1     -70.575 -36.452  19.498  0.00  0.00    -0.066 N 
ATOM     28  H8  NON d   1     -71.497 -36.657  19.850  0.00  0.00     0.275 HD
ATOM     29  H9  NON d   1     -70.620 -35.654  18.884  0.00  0.00     0.275 HD
ATOM     30  H10 NON d   1     -69.959 -36.249  20.269  0.00  0.00     0.275 HD
ENDBRANCH  25  27
BRANCH  25  31
ATOM     31  CB  NON d   1     -70.162 -38.742  19.787  0.00  0.00     0.050 C 
ATOM     32  H11 NON d   1     -69.963 -38.344  20.793  0.00  0.00     0.077 H 
ATOM     33  H12 NON d   1     -69.448 -39.548  19.563  0.00  0.00     0.077 H 
BRANCH  31  34
ATOM     34  OG  NON d   1     -71.525 -39.233  19.696  0.00  0.00    -0.398 OA
ATOM     35  H13 NON d   1     -71.651 -39.932  20.327  0.00  0.00     0.209 HD
ENDBRANCH  31  34
ENDBRANCH  25  31
ENDBRANCH  21  25
ENDBRANCH  10  13
ENDBRANCH   7   9
BRANCH   7  36
ATOM     36  CB  NON d   1     -63.952 -41.575  18.768  0.00  0.00    -0.036 C 
ATOM     37  H16 NON d   1     -63.084 -42.118  19.171  0.00  0.00     0.036 H 
ATOM     38  H17 NON d   1     -64.487 -41.078  19.590  0.00  0.00     0.036 H 
BRANCH  36  39
ATOM     39  CG  NON d   1     -63.462 -40.515  17.778  0.00  0.00    -0.045 C 
ATOM     40  H18 NON d   1     -64.203 -39.703  17.760  0.00  0.00     0.035 H 
ATOM     41  H19 NON d   1     -63.406 -40.983  16.784  0.00  0.00     0.035 H 
BRANCH  39  42
ATOM     42  CD  NON d   1     -62.098 -39.897  18.082  0.00  0.00     0.026 C 
ATOM     43  H20 NON d   1     -61.678 -39.480  17.155  0.00  0.00     0.068 H 
ATOM     44  H21 NON d   1     -61.428 -40.679  18.468  0.00  0.00     0.068 H 
BRANCH  42  45
ATOM     45  NE  NON d   1     -62.211 -38.822  19.085  0.00  0.00    -0.200 N 
ATOM     46  OZ  NON d   1     -63.203 -38.104  19.170  0.00  0.00    -0.084 OA
ATOM     47  CZ  NON d   1     -61.246 -38.635  19.884  0.00  0.00     0.195 C 
ATOM     48  OH  NON d   1     -61.278 -37.767  20.747  0.00  0.00    -0.281 OA
ATOM     49  H22 NON d   1     -60.362 -39.265  19.801  0.00  0.00     0.183 H 
ENDBRANCH  42  45
ENDBRANCH  39  42
ENDBRANCH  36  39
ENDBRANCH   7  36
ENDBRANCH   4   7
ENDBRANCH   1   3
BRANCH   1  50
ATOM     50  C   NON d   1     -65.798 -44.906  22.038  0.00  0.00     0.241 C 
ATOM     51  O   NON d   1     -65.792 -45.617  23.060  0.00  0.00    -0.271 OA
ATOM     52  N   NON d   1     -66.196 -43.635  22.031  0.00  0.00    -0.346 N 
ATOM     53  H31 NON d   1     -65.924 -43.048  21.269  0.00  0.00     0.163 HD
BRANCH  52  54
ATOM     54  CA  NON d   1     -67.017 -43.069  23.099  0.00  0.00     0.090 C 
ATOM     55  H32 NON d   1     -67.837 -43.782  23.267  0.00  0.00     0.087 H 
BRANCH  54  56
ATOM     56  C   NON d   1     -66.294 -42.943  24.459  0.00  0.00     0.241 C 
ATOM     57  O   NON d   1     -66.953 -42.831  25.504  0.00  0.00    -0.271 OA
ATOM     58  N   NON d   1     -64.952 -42.995  24.432  0.00  0.00    -0.346 N 
ATOM     59  H39 NON d   1     -64.509 -43.224  23.565  0.00  0.00     0.163 HD
BRANCH  58  60
ATOM     60  CA  NON d   1     -64.080 -42.732  25.615  0.00  0.00     0.089 C 
ATOM     61  H40 NON d   1     -63.098 -43.155  25.356  0.00  0.00     0.087 H 
BRANCH  60  62
ATOM     62  CB  NON d   1     -63.852 -41.215  25.809  0.00  0.00    -0.036 C 
ATOM     63  H41 NON d   1     -62.854 -41.075  26.251  0.00  0.00     0.036 H 
ATOM     64  H42 NON d   1     -64.617 -40.842  26.506  0.00  0.00     0.036 H 
BRANCH  62  65
ATOM     65  CG  NON d   1     -63.926 -40.378  24.535  0.00  0.00    -0.045 C 
ATOM     66  H43 NON d   1     -64.876 -39.823  24.506  0.00  0.00     0.035 H 
ATOM     67  H44 NON d   1     -63.857 -41.032  23.653  0.00  0.00     0.035 H 
BRANCH  65  68
ATOM     68  CD  NON d   1     -62.761 -39.406  24.549  0.00  0.00     0.026 C 
ATOM     69  H45 NON d   1     -61.818 -39.959  24.430  0.00  0.00     0.068 H 
ATOM     70  H46 NON d   1     -62.748 -38.860  25.504  0.00  0.00     0.068 H 
BRANCH  68  71
ATOM     71  NE  NON d   1     -62.915 -38.460  23.447  0.00  0.00    -0.200 N 
ATOM     72  OZ  NON d   1     -63.328 -38.878  22.392  0.00  0.00    -0.084 OA
ATOM     73  CZ  NON d   1     -62.606 -37.237  23.617  0.00  0.00     0.195 C 
ATOM     74  OH  NON d   1     -62.694 -36.378  22.761  0.00  0.00    -0.281 OA
ATOM     75  H47 NON d   1     -62.237 -36.939  24.597  0.00  0.00     0.183 H 
ENDBRANCH  68  71
ENDBRANCH  65  68
ENDBRANCH  62  65
ENDBRANCH  60  62
BRANCH  60  76
ATOM     76  C   NON d   1     -64.492 -43.442  26.903  0.00  0.00     0.240 C 
ATOM     77  O   NON d   1     -64.907 -42.801  27.872  0.00  0.00    -0.271 OA
ATOM     78  N   NON d   1     -64.356 -44.775  26.903  0.00  0.00    -0.349 N 
ATOM     79  H48 NON d   1     -63.950 -45.202  26.095  0.00  0.00     0.163 HD
BRANCH  78  80
ATOM     80  CA  NON d   1     -64.765 -45.654  28.013  0.00  0.00     0.075 C 
ATOM     81  H49 NON d   1     -65.475 -45.116  28.659  0.00  0.00     0.080 H 
ATOM     82  H50 NON d   1     -63.877 -45.935  28.599  0.00  0.00     0.080 H 
BRANCH  80  83
ATOM     83  C   NON d   1     -65.431 -46.914  27.476  0.00  0.00     0.191 C 
ATOM     84  O   NON d   1     -66.577 -46.892  27.013  0.00  0.00    -0.647 OA
ATOM     85  OXT NON d   1     -64.844 -47.996  27.472  0.00  0.00    -0.647 OA
ENDBRANCH  80  83
ENDBRANCH  78  80
ENDBRANCH  60  76
ENDBRANCH  58  60
ENDBRANCH  54  56
BRANCH  54  86
ATOM     86  CB  NON d   1     -67.676 -41.752  22.617  0.00  0.00    -0.030 C 
ATOM     87  H33 NON d   1     -66.894 -40.986  22.508  0.00  0.00     0.037 H 
ATOM     88  H34 NON d   1     -68.406 -41.426  23.372  0.00  0.00     0.037 H 
BRANCH  86  89
ATOM     89  CG  NON d   1     -68.415 -41.917  21.241  0.00  0.00     0.011 C 
ATOM     90  H35 NON d   1     -68.205 -42.926  20.858  0.00  0.00     0.047 H 
ATOM     91  H36 NON d   1     -68.012 -41.169  20.543  0.00  0.00     0.047 H 
BRANCH  89  92
ATOM     92  CD  NON d   1     -69.932 -41.738  21.309  0.00  0.00     0.215 C 
ATOM     93  OE1 NON d   1     -70.407 -40.666  21.650  0.00  0.00    -0.274 OA
ATOM     94  NE2 NON d   1     -70.686 -42.784  20.975  0.00  0.00    -0.370 N 
ATOM     95  H37 NON d   1     -71.683 -42.712  21.005  0.00  0.00     0.159 HD
ATOM     96  H38 NON d   1     -70.255 -43.642  20.694  0.00  0.00     0.159 HD
ENDBRANCH  89  92
ENDBRANCH  86  89
ENDBRANCH  54  86
ENDBRANCH  52  54
ENDBRANCH   1  50
BRANCH   1  97
ATOM     97  CB  NON d   1     -64.376 -46.650  20.972  0.00  0.00    -0.030 C 
ATOM     98  H25 NON d   1     -63.378 -46.445  20.557  0.00  0.00     0.037 H 
ATOM     99  H26 NON d   1     -64.802 -47.537  20.481  0.00  0.00     0.037 H 
BRANCH  97 100
ATOM    100  CG  NON d   1     -64.242 -46.931  22.481  0.00  0.00     0.011 C 
ATOM    101  H27 NON d   1     -64.926 -46.254  23.013  0.00  0.00     0.047 H 
ATOM    102  H28 NON d   1     -63.205 -46.711  22.776  0.00  0.00     0.047 H 
BRANCH 100 103
ATOM    103  CD  NON d   1     -64.561 -48.360  22.917  0.00  0.00     0.215 C 
ATOM    104  OE1 NON d   1     -63.761 -49.286  22.727  0.00  0.00    -0.274 OA
ATOM    105  NE2 NON d   1     -65.710 -48.530  23.563  0.00  0.00    -0.370 N 
ATOM    106  H29 NON d   1     -65.978 -49.441  23.875  0.00  0.00     0.159 HD
ATOM    107  H30 NON d   1     -66.307 -47.746  23.737  0.00  0.00     0.159 HD
ENDBRANCH 100 103
ENDBRANCH  97 100
ENDBRANCH   1  97
TORSDOF 29
