REMARK WARNING: 32 MAX_TORS EXCEEDED!!!
REMARK  36 active torsions:
REMARK  status: ('A' for Active; 'I' for Inactive)
REMARK    1  A    between atoms: N_1  and  CA_2 
REMARK    2  A    between atoms: CA_2  and  C_3 
REMARK    3  A    between atoms: CA_2  and  CB_5 
REMARK       I    between atoms: C_3  and  N_7 
REMARK    4  A    between atoms: CB_5  and  OG_6 
REMARK    5  A    between atoms: N_7  and  CA_8 
REMARK    6  A    between atoms: CA_8  and  C_9 
REMARK    7  A    between atoms: CA_8  and  CB_11 
REMARK       I    between atoms: C_9  and  N_16 
REMARK    8  A    between atoms: CB_11  and  CG_12 
REMARK    9  A    between atoms: CG_12  and  CD_13 
REMARK   10  A    between atoms: CD_13  and  CE_14 
REMARK   11  A    between atoms: CE_14  and  NZ_15 
REMARK   12  A    between atoms: N_16  and  CA_17 
REMARK   13  A    between atoms: CA_17  and  C_18 
REMARK       I    between atoms: C_18  and  N_20 
REMARK   14  A    between atoms: N_20  and  CA_21 
REMARK   15  A    between atoms: CA_21  and  CB_22 
REMARK   16  A    between atoms: CA_21  and  C_29 
REMARK   17  A    between atoms: CB_22  and  CG_23 
REMARK   18  A    between atoms: CG_23  and  CD_24 
REMARK   19  A    between atoms: CD_24  and  NE_25 
REMARK       I    between atoms: NE_25  and  CZ_27 
REMARK       I    between atoms: C_29  and  N_31 
REMARK   20  A    between atoms: N_31  and  CA_32 
REMARK   21  A    between atoms: CA_32  and  C_33 
REMARK   22  A    between atoms: CA_32  and  CB_35 
REMARK       I    between atoms: C_33  and  N_37 
REMARK   23  A    between atoms: CB_35  and  OG_36 
REMARK   24  A    between atoms: N_37  and  CA_38 
REMARK   25  A    between atoms: CA_38  and  C_39 
REMARK   26  A    between atoms: CA_38  and  CB_41 
REMARK       I    between atoms: C_39  and  N_43 
REMARK   27  A    between atoms: CB_41  and  OG_42 
REMARK   28  A    between atoms: N_43  and  CA_44 
REMARK   29  A    between atoms: CA_44  and  C_45 
REMARK       I    between atoms: C_45  and  N_47 
REMARK   30  A    between atoms: N_47  and  CA_48 
REMARK   31  A    between atoms: CA_57  and  CB_58 
REMARK   32  A    between atoms: CB_58  and  CG_59 
REMARK   33  A    between atoms: CG_59  and  CD_60 
REMARK   34  A    between atoms: CD_60  and  NE_61 
REMARK       I    between atoms: NE_61  and  CZ_63 
REMARK   35  A    between atoms: CA_68  and  CB_71 
REMARK   36  A    between atoms: CB_71  and  OG_72 
ROOT
ATOM      1  CA  NON d   1     -65.296 -44.959  19.647  0.00  0.00     0.109 C 
ATOM      2  H34 NON d   1     -65.181 -45.930  19.143  0.00  0.00     0.090 H 
ENDROOT
BRANCH   1   3
ATOM      3  N   NON d   1     -65.552 -43.951  18.584  0.00  0.00    -0.344 N 
ATOM      4  C   NON d   1     -65.430 -42.635  18.784  0.00  0.00     0.241 C 
ATOM      5  O   NON d   1     -65.086 -42.149  19.870  0.00  0.00    -0.271 OA
ATOM      6  H33 NON d   1     -65.828 -44.272  17.678  0.00  0.00     0.163 HD
BRANCH   4   7
ATOM      7  CA  NON d   1     -65.690 -41.740  17.614  0.00  0.00     0.089 C 
ATOM      8  H25 NON d   1     -65.312 -42.226  16.703  0.00  0.00     0.087 H 
BRANCH   7   9
ATOM      9  N   NON d   1     -67.084 -41.331  17.398  0.00  0.00    -0.346 N 
ATOM     10  C   NON d   1     -67.838 -41.765  16.378  0.00  0.00     0.236 C 
ATOM     11  O   NON d   1     -67.670 -42.849  15.830  0.00  0.00    -0.272 OA
ATOM     12  H24 NON d   1     -67.494 -40.692  18.049  0.00  0.00     0.163 HD
BRANCH  10  13
ATOM     13  CA  NON d   1     -69.011 -40.890  15.957  0.00  0.00     0.069 C 
ATOM     14  H22 NON d   1     -69.039 -40.886  14.857  0.00  0.00     0.078 H 
ATOM     15  H23 NON d   1     -69.927 -41.360  16.345  0.00  0.00     0.078 H 
BRANCH  13  16
ATOM     16  N   NON d   1     -69.017 -39.486  16.401  0.00  0.00    -0.351 N 
ATOM     17  C   NON d   1     -68.271 -38.522  15.852  0.00  0.00     0.240 C 
ATOM     18  O   NON d   1     -67.481 -38.718  14.920  0.00  0.00    -0.271 OA
ATOM     19  H21 NON d   1     -69.617 -39.238  17.161  0.00  0.00     0.163 HD
BRANCH  17  20
ATOM     20  CA  NON d   1     -68.472 -37.119  16.443  0.00  0.00     0.089 C 
ATOM     21  H9  NON d   1     -68.885 -36.492  15.639  0.00  0.00     0.087 H 
BRANCH  20  22
ATOM     22  N   NON d   1     -69.453 -37.130  17.535  0.00  0.00    -0.346 N 
ATOM     23  C   NON d   1     -70.619 -36.477  17.445  0.00  0.00     0.251 C 
ATOM     24  O   NON d   1     -70.953 -35.763  16.462  0.00  0.00    -0.271 OA
ATOM     25  H8  NON d   1     -69.245 -37.639  18.370  0.00  0.00     0.163 HD
BRANCH  23  26
ATOM     26  CA  NON d   1     -71.550 -36.598  18.654  0.00  0.00     0.195 C 
ATOM     27  H4  NON d   1     -72.372 -35.886  18.488  0.00  0.00     0.102 H 
BRANCH  26  28
ATOM     28  N   NON d   1     -70.887 -36.184  19.940  0.00  0.00    -0.064 N 
ATOM     29  H1  NON d   1     -71.540 -36.282  20.701  0.00  0.00     0.275 HD
ATOM     30  H2  NON d   1     -70.593 -35.222  19.872  0.00  0.00     0.275 HD
ATOM     31  H3  NON d   1     -70.084 -36.770  20.108  0.00  0.00     0.275 HD
ENDBRANCH  26  28
BRANCH  26  32
ATOM     32  CB  NON d   1     -72.193 -37.999  18.735  0.00  0.00     0.051 C 
ATOM     33  H5  NON d   1     -72.705 -38.209  17.784  0.00  0.00     0.077 H 
ATOM     34  H6  NON d   1     -72.926 -38.005  19.555  0.00  0.00     0.077 H 
BRANCH  32  35
ATOM     35  OG  NON d   1     -71.240 -39.013  18.971  0.00  0.00    -0.398 OA
ATOM     36  H7  NON d   1     -71.679 -39.855  19.013  0.00  0.00     0.209 HD
ENDBRANCH  32  35
ENDBRANCH  26  32
ENDBRANCH  23  26
ENDBRANCH  20  22
BRANCH  20  37
ATOM     37  CB  NON d   1     -67.153 -36.457  16.897  0.00  0.00    -0.038 C 
ATOM     38  H10 NON d   1     -66.422 -36.559  16.081  0.00  0.00     0.036 H 
ATOM     39  H11 NON d   1     -66.790 -36.996  17.785  0.00  0.00     0.036 H 
BRANCH  37  40
ATOM     40  CG  NON d   1     -67.262 -34.937  17.263  0.00  0.00    -0.061 C 
ATOM     41  H12 NON d   1     -66.380 -34.665  17.861  0.00  0.00     0.033 H 
ATOM     42  H13 NON d   1     -68.171 -34.795  17.865  0.00  0.00     0.033 H 
BRANCH  40  43
ATOM     43  CD  NON d   1     -67.334 -33.982  16.052  0.00  0.00    -0.043 C 
ATOM     44  H14 NON d   1     -67.235 -34.581  15.135  0.00  0.00     0.035 H 
ATOM     45  H15 NON d   1     -66.494 -33.275  16.121  0.00  0.00     0.035 H 
BRANCH  43  46
ATOM     46  CE  NON d   1     -68.639 -33.170  15.957  0.00  0.00     0.080 C 
ATOM     47  H16 NON d   1     -69.415 -33.674  16.552  0.00  0.00     0.075 H 
ATOM     48  H17 NON d   1     -68.954 -33.126  14.904  0.00  0.00     0.075 H 
BRANCH  46  49
ATOM     49  NZ  NON d   1     -68.468 -31.783  16.466  0.00  0.00    -0.079 N 
ATOM     50  H18 NON d   1     -69.341 -31.286  16.387  0.00  0.00     0.274 HD
ATOM     51  H19 NON d   1     -67.762 -31.311  15.923  0.00  0.00     0.274 HD
ATOM     52  H20 NON d   1     -68.184 -31.812  17.433  0.00  0.00     0.274 HD
ENDBRANCH  46  49
ENDBRANCH  43  46
ENDBRANCH  40  43
ENDBRANCH  37  40
ENDBRANCH  20  37
ENDBRANCH  17  20
ENDBRANCH  13  16
ENDBRANCH  10  13
ENDBRANCH   7   9
BRANCH   7  53
ATOM     53  CB  NON d   1     -64.940 -40.442  17.903  0.00  0.00    -0.036 C 
ATOM     54  H26 NON d   1     -64.960 -40.270  18.989  0.00  0.00     0.036 H 
ATOM     55  H27 NON d   1     -65.467 -39.622  17.393  0.00  0.00     0.036 H 
BRANCH  53  56
ATOM     56  CG  NON d   1     -63.477 -40.426  17.445  0.00  0.00    -0.045 C 
ATOM     57  H28 NON d   1     -63.362 -39.594  16.734  0.00  0.00     0.035 H 
ATOM     58  H29 NON d   1     -63.282 -41.378  16.930  0.00  0.00     0.035 H 
BRANCH  56  59
ATOM     59  CD  NON d   1     -62.400 -40.258  18.529  0.00  0.00     0.026 C 
ATOM     60  H30 NON d   1     -61.418 -40.231  18.033  0.00  0.00     0.068 H 
ATOM     61  H31 NON d   1     -62.450 -41.130  19.197  0.00  0.00     0.068 H 
BRANCH  59  62
ATOM     62  NE  NON d   1     -62.529 -39.041  19.355  0.00  0.00    -0.200 N 
ATOM     63  OZ  NON d   1     -63.586 -38.449  19.520  0.00  0.00    -0.084 OA
ATOM     64  CZ  NON d   1     -61.504 -38.606  19.961  0.00  0.00     0.195 C 
ATOM     65  OH  NON d   1     -61.578 -37.618  20.681  0.00  0.00    -0.281 OA
ATOM     66  H32 NON d   1     -60.549 -39.115  19.840  0.00  0.00     0.183 H 
ENDBRANCH  59  62
ENDBRANCH  56  59
ENDBRANCH  53  56
ENDBRANCH   7  53
ENDBRANCH   4   7
ENDBRANCH   1   3
BRANCH   1  67
ATOM     67  C   NON d   1     -66.459 -45.095  20.621  0.00  0.00     0.243 C 
ATOM     68  O   NON d   1     -67.576 -45.325  20.172  0.00  0.00    -0.271 OA
ATOM     69  N   NON d   1     -66.198 -44.960  21.931  0.00  0.00    -0.344 N 
ATOM     70  H38 NON d   1     -65.247 -44.845  22.219  0.00  0.00     0.163 HD
BRANCH  69  71
ATOM     71  CA  NON d   1     -67.256 -44.974  22.970  0.00  0.00     0.109 C 
ATOM     72  H39 NON d   1     -66.807 -44.517  23.864  0.00  0.00     0.090 H 
BRANCH  71  73
ATOM     73  C   NON d   1     -68.528 -44.125  22.647  0.00  0.00     0.242 C 
ATOM     74  O   NON d   1     -69.634 -44.668  22.476  0.00  0.00    -0.271 OA
ATOM     75  N   NON d   1     -68.336 -42.804  22.523  0.00  0.00    -0.350 N 
ATOM     76  H43 NON d   1     -67.427 -42.472  22.271  0.00  0.00     0.163 HD
BRANCH  75  77
ATOM     77  CA  NON d   1     -69.407 -41.827  22.742  0.00  0.00     0.069 C 
ATOM     78  H44 NON d   1     -70.384 -42.273  22.506  0.00  0.00     0.078 H 
ATOM     79  H45 NON d   1     -69.248 -40.939  22.113  0.00  0.00     0.078 H 
BRANCH  77  80
ATOM     80  C   NON d   1     -69.342 -41.446  24.224  0.00  0.00     0.236 C 
ATOM     81  O   NON d   1     -69.546 -40.300  24.587  0.00  0.00    -0.272 OA
ATOM     82  N   NON d   1     -69.005 -42.406  25.075  0.00  0.00    -0.346 N 
ATOM     83  H46 NON d   1     -68.727 -43.298  24.719  0.00  0.00     0.163 HD
BRANCH  82  84
ATOM     84  CA  NON d   1     -69.030 -42.194  26.510  0.00  0.00     0.089 C 
ATOM     85  C   NON d   1     -67.683 -41.894  27.211  0.00  0.00     0.241 C 
ATOM     86  O   NON d   1     -67.694 -41.515  28.384  0.00  0.00    -0.271 OA
ATOM     87  N   NON d   1     -66.540 -42.066  26.558  0.00  0.00    -0.346 N 
ATOM     88  CA  NON d   1     -65.229 -41.787  27.183  0.00  0.00     0.089 C 
ATOM     89  H57 NON d   1     -66.566 -42.395  25.614  0.00  0.00     0.163 HD
ATOM     90  C   NON d   1     -64.879 -42.995  28.004  0.00  0.00     0.241 C 
ATOM     91  H58 NON d   1     -65.335 -40.926  27.859  0.00  0.00     0.087 H 
ATOM     92  O   NON d   1     -64.381 -43.960  27.475  0.00  0.00    -0.271 OA
ATOM     93  N   NON d   1     -65.173 -42.980  29.302  0.00  0.00    -0.344 N 
ATOM     94  CA  NON d   1     -65.150 -44.234  30.098  0.00  0.00     0.109 C 
ATOM     95  H66 NON d   1     -65.412 -42.116  29.746  0.00  0.00     0.163 HD
ATOM     96  C   NON d   1     -66.520 -44.566  30.658  0.00  0.00     0.242 C 
ATOM     97  H67 NON d   1     -64.823 -45.054  29.441  0.00  0.00     0.090 H 
ATOM     98  NZ  NON d   1     -67.237 -45.295  29.966  0.00  0.00    -0.359 N 
ATOM     99  O   NON d   1     -67.043 -43.863  31.523  0.00  0.00    -0.271 OA
ATOM    100  CE  NON d   1     -68.660 -45.286  30.311  0.00  0.00    -0.005 C 
ATOM    101  H56 NON d   1     -66.871 -45.853  29.221  0.00  0.00     0.162 HD
ATOM    102  CD  NON d   1     -69.539 -44.866  29.135  0.00  0.00    -0.050 C 
ATOM    103  H54 NON d   1     -68.953 -46.297  30.628  0.00  0.00     0.064 H 
ATOM    104  H55 NON d   1     -68.818 -44.581  31.140  0.00  0.00     0.064 H 
ATOM    105  CG  NON d   1     -68.796 -44.106  28.119  0.00  0.00    -0.061 C 
ATOM    106  H52 NON d   1     -69.955 -45.770  28.665  0.00  0.00     0.035 H 
ATOM    107  H53 NON d   1     -70.359 -44.239  29.514  0.00  0.00     0.035 H 
ATOM    108  CB  NON d   1     -69.716 -43.385  27.180  0.00  0.00    -0.038 C 
ATOM    109  H50 NON d   1     -68.154 -43.369  28.624  0.00  0.00     0.033 H 
ATOM    110  H51 NON d   1     -68.171 -44.802  27.541  0.00  0.00     0.033 H 
ATOM    111  H48 NON d   1     -70.050 -44.087  26.402  0.00  0.00     0.036 H 
ATOM    112  H49 NON d   1     -70.587 -43.022  27.745  0.00  0.00     0.036 H 
ATOM    113  H47 NON d   1     -69.662 -41.309  26.677  0.00  0.00     0.087 H 
BRANCH  88 114
ATOM    114  CB  NON d   1     -64.157 -41.423  26.136  0.00  0.00    -0.036 C 
ATOM    115  H59 NON d   1     -64.030 -42.294  25.476  0.00  0.00     0.036 H 
ATOM    116  H60 NON d   1     -63.218 -41.232  26.676  0.00  0.00     0.036 H 
BRANCH 114 117
ATOM    117  CG  NON d   1     -64.436 -40.196  25.239  0.00  0.00    -0.045 C 
ATOM    118  H61 NON d   1     -64.862 -39.382  25.844  0.00  0.00     0.035 H 
ATOM    119  H62 NON d   1     -65.144 -40.470  24.443  0.00  0.00     0.035 H 
BRANCH 117 120
ATOM    120  CD  NON d   1     -63.111 -39.742  24.619  0.00  0.00     0.026 C 
ATOM    121  H63 NON d   1     -62.607 -40.631  24.212  0.00  0.00     0.068 H 
ATOM    122  H64 NON d   1     -62.496 -39.306  25.420  0.00  0.00     0.068 H 
BRANCH 120 123
ATOM    123  NE  NON d   1     -63.212 -38.758  23.549  0.00  0.00    -0.200 N 
ATOM    124  OZ  NON d   1     -63.653 -39.057  22.454  0.00  0.00    -0.084 OA
ATOM    125  CZ  NON d   1     -62.767 -37.596  23.770  0.00  0.00     0.195 C 
ATOM    126  OH  NON d   1     -62.755 -36.656  22.978  0.00  0.00    -0.281 OA
ATOM    127  H65 NON d   1     -62.353 -37.409  24.760  0.00  0.00     0.183 H 
ENDBRANCH 120 123
ENDBRANCH 117 120
ENDBRANCH 114 117
ENDBRANCH  88 114
BRANCH  94 128
ATOM    128  CB  NON d   1     -64.200 -44.126  31.258  0.00  0.00     0.044 C 
ATOM    129  H68 NON d   1     -63.176 -43.960  30.892  0.00  0.00     0.077 H 
ATOM    130  H69 NON d   1     -64.231 -45.048  31.857  0.00  0.00     0.077 H 
BRANCH 128 131
ATOM    131  OG  NON d   1     -64.614 -43.034  32.037  0.00  0.00    -0.398 OA
ATOM    132  H70 NON d   1     -65.500 -43.184  32.344  0.00  0.00     0.209 HD
ENDBRANCH 128 131
ENDBRANCH  94 128
ENDBRANCH  82  84
ENDBRANCH  77  80
ENDBRANCH  75  77
ENDBRANCH  71  73
BRANCH  71 133
ATOM    133  CB  NON d   1     -67.634 -46.415  23.349  0.00  0.00     0.044 C 
ATOM    134  H40 NON d   1     -67.588 -47.048  22.450  0.00  0.00     0.077 H 
ATOM    135  H41 NON d   1     -68.657 -46.425  23.753  0.00  0.00     0.077 H 
BRANCH 133 136
ATOM    136  OG  NON d   1     -66.747 -46.928  24.322  0.00  0.00    -0.398 OA
ATOM    137  H42 NON d   1     -66.999 -47.818  24.541  0.00  0.00     0.209 HD
ENDBRANCH 133 136
ENDBRANCH  71 133
ENDBRANCH  69  71
ENDBRANCH   1  67
BRANCH   1 138
ATOM    138  CB  NON d   1     -63.997 -44.686  20.401  0.00  0.00     0.044 C 
ATOM    139  H35 NON d   1     -64.022 -45.209  21.368  0.00  0.00     0.077 H 
ATOM    140  H36 NON d   1     -63.898 -43.604  20.572  0.00  0.00     0.077 H 
BRANCH 138 141
ATOM    141  OG  NON d   1     -62.887 -45.144  19.652  0.00  0.00    -0.398 OA
ATOM    142  H37 NON d   1     -62.087 -44.968  20.133  0.00  0.00     0.209 HD
ENDBRANCH 138 141
ENDBRANCH   1 138
TORSDOF 36
