REMARK  20 active torsions:
REMARK  status: ('A' for Active; 'I' for Inactive)
REMARK    1  A    between atoms: N_1  and  CA_2 
REMARK    2  A    between atoms: CA_2  and  C_3 
REMARK    3  A    between atoms: CA_2  and  CB_5 
REMARK       I    between atoms: C_3  and  N_7 
REMARK    4  A    between atoms: CB_5  and  OG_6 
REMARK    5  A    between atoms: N_7  and  CA_8 
REMARK    6  A    between atoms: CA_8  and  C_9 
REMARK    7  A    between atoms: CA_8  and  CB_11 
REMARK       I    between atoms: C_9  and  N_16 
REMARK    8  A    between atoms: CB_11  and  CG_12 
REMARK    9  A    between atoms: CG_12  and  CD_13 
REMARK   10  A    between atoms: CD_13  and  CE_14 
REMARK   11  A    between atoms: CE_14  and  NZ_15 
REMARK   12  A    between atoms: N_16  and  CA_17 
REMARK   13  A    between atoms: CA_17  and  C_18 
REMARK   14  A    between atoms: N_20  and  CA_21 
REMARK   15  A    between atoms: CA_30  and  CB_31 
REMARK   16  A    between atoms: CB_31  and  CG_32 
REMARK   17  A    between atoms: CG_32  and  CD_33 
REMARK   18  A    between atoms: CD_33  and  NE_34 
REMARK       I    between atoms: NE_34  and  CZ_36 
REMARK   19  A    between atoms: CA_41  and  CB_44 
REMARK   20  A    between atoms: CB_44  and  OG_45 
ROOT
ATOM      1  CA  NON d   1     -67.636 -37.285  16.794  0.00  0.00     0.089 C 
ATOM      2  H9  NON d   1     -68.024 -36.626  16.003  0.00  0.00     0.087 H 
ENDROOT
BRANCH   1   3
ATOM      3  N   NON d   1     -68.642 -37.313  17.875  0.00  0.00    -0.346 N 
ATOM      4  C   NON d   1     -69.786 -36.598  17.844  0.00  0.00     0.251 C 
ATOM      5  O   NON d   1     -70.175 -35.921  16.856  0.00  0.00    -0.271 OA
ATOM      6  H8  NON d   1     -68.466 -37.892  18.671  0.00  0.00     0.163 HD
BRANCH   4   7
ATOM      7  CA  NON d   1     -70.631 -36.594  19.137  0.00  0.00     0.195 C 
ATOM      8  H4  NON d   1     -71.548 -36.025  18.923  0.00  0.00     0.102 H 
BRANCH   7   9
ATOM      9  N   NON d   1     -69.901 -35.882  20.242  0.00  0.00    -0.064 N 
ATOM     10  H1  NON d   1     -70.466 -35.889  21.077  0.00  0.00     0.275 HD
ATOM     11  H2  NON d   1     -69.721 -34.929  19.966  0.00  0.00     0.275 HD
ATOM     12  H3  NON d   1     -69.027 -36.350  20.424  0.00  0.00     0.275 HD
ENDBRANCH   7   9
BRANCH   7  13
ATOM     13  CB  NON d   1     -71.067 -38.001  19.582  0.00  0.00     0.051 C 
ATOM     14  H5  NON d   1     -72.129 -37.972  19.866  0.00  0.00     0.077 H 
ATOM     15  H6  NON d   1     -70.464 -38.304  20.451  0.00  0.00     0.077 H 
BRANCH  13  16
ATOM     16  OG  NON d   1     -70.893 -38.952  18.548  0.00  0.00    -0.398 OA
ATOM     17  H7  NON d   1     -71.171 -39.807  18.855  0.00  0.00     0.209 HD
ENDBRANCH  13  16
ENDBRANCH   7  13
ENDBRANCH   4   7
ENDBRANCH   1   3
BRANCH   1  18
ATOM     18  C   NON d   1     -67.387 -38.642  16.180  0.00  0.00     0.240 C 
ATOM     19  O   NON d   1     -66.575 -38.795  15.242  0.00  0.00    -0.271 OA
ATOM     20  N   NON d   1     -68.077 -39.631  16.735  0.00  0.00    -0.353 N 
ATOM     21  H21 NON d   1     -68.638 -39.431  17.538  0.00  0.00     0.162 HD
BRANCH  20  22
ATOM     22  CA  NON d   1     -68.051 -40.995  16.223  0.00  0.00     0.043 C 
ATOM     23  H22 NON d   1     -67.946 -40.945  15.129  0.00  0.00     0.074 H 
ATOM     24  H23 NON d   1     -69.009 -41.471  16.478  0.00  0.00     0.074 H 
BRANCH  22  25
ATOM     25  C   NON d   1     -66.941 -41.867  16.757  0.00  0.00     0.105 C 
ATOM     26  O   NON d   1     -66.652 -42.912  16.169  0.00  0.00    -0.305 OA
ATOM     27  H24 NON d   1     -66.399 -41.575  17.655  0.00  0.00     0.145 H 
ENDBRANCH  22  25
ENDBRANCH  20  22
ENDBRANCH   1  18
BRANCH   1  28
ATOM     28  CB  NON d   1     -66.308 -36.705  17.285  0.00  0.00    -0.038 C 
ATOM     29  H10 NON d   1     -65.585 -36.751  16.457  0.00  0.00     0.036 H 
ATOM     30  H11 NON d   1     -65.949 -37.325  18.120  0.00  0.00     0.036 H 
BRANCH  28  31
ATOM     31  CG  NON d   1     -66.394 -35.244  17.770  0.00  0.00    -0.061 C 
ATOM     32  H12 NON d   1     -65.451 -34.995  18.278  0.00  0.00     0.033 H 
ATOM     33  H13 NON d   1     -67.227 -35.168  18.485  0.00  0.00     0.033 H 
BRANCH  31  34
ATOM     34  CD  NON d   1     -66.623 -34.218  16.661  0.00  0.00    -0.043 C 
ATOM     35  H14 NON d   1     -66.809 -34.741  15.711  0.00  0.00     0.035 H 
ATOM     36  H15 NON d   1     -65.731 -33.581  16.561  0.00  0.00     0.035 H 
BRANCH  34  37
ATOM     37  CE  NON d   1     -67.815 -33.362  17.004  0.00  0.00     0.080 C 
ATOM     38  H16 NON d   1     -67.851 -33.230  18.096  0.00  0.00     0.075 H 
ATOM     39  H17 NON d   1     -68.727 -33.877  16.667  0.00  0.00     0.075 H 
BRANCH  37  40
ATOM     40  NZ  NON d   1     -67.763 -32.030  16.369  0.00  0.00    -0.079 N 
ATOM     41  H18 NON d   1     -68.580 -31.501  16.630  0.00  0.00     0.274 HD
ATOM     42  H19 NON d   1     -67.738 -32.136  15.367  0.00  0.00     0.274 HD
ATOM     43  H20 NON d   1     -66.935 -31.543  16.676  0.00  0.00     0.274 HD
ENDBRANCH  37  40
ENDBRANCH  34  37
ENDBRANCH  31  34
ENDBRANCH  28  31
ENDBRANCH   1  28
TORSDOF 20
