REMARK  7 active torsions:
REMARK  status: ('A' for Active; 'I' for Inactive)
REMARK    1  A    between atoms: N7_2  and  C3_4 
REMARK    2  A    between atoms: C8_8  and  C9_13 
REMARK       I    between atoms: C9_13  and  N2_15 
REMARK    3  A    between atoms: N2_15  and  C10_16 
REMARK    4  A    between atoms: C13_19  and  C16_22 
REMARK    5  A    between atoms: C16_22  and  C17_23 
REMARK    6  A    between atoms: C16_22  and  N3_24 
REMARK    7  A    between atoms: N3_24  and  N4_25 
REMARK       I    between atoms: N4_25  and  C18_26 
REMARK       I    between atoms: C18_26  and  N6_27 
ROOT
ATOM      1  C10 D1A d   1      47.101 -13.992 -10.653  0.00  0.00     0.035 A 
ATOM      2  C15 D1A d   1      46.273 -14.218 -11.752  0.00  0.00    -0.056 A 
ATOM      3  C14 D1A d   1      46.385 -13.485 -12.901  0.00  0.00    -0.069 A 
ATOM      4  C13 D1A d   1      47.339 -12.489 -12.994  0.00  0.00    -0.010 A 
ATOM      5  C12 D1A d   1      48.194 -12.273 -11.911  0.00  0.00    -0.069 A 
ATOM      6  C11 D1A d   1      48.076 -13.018 -10.738  0.00  0.00    -0.056 A 
ATOM      7  H   D1A d   1      45.516 -15.000 -11.694  0.00  0.00     0.086 H 
ATOM      8  H   D1A d   1      45.722 -13.686 -13.743  0.00  0.00     0.085 H 
ATOM      9  H   D1A d   1      48.967 -11.508 -11.984  0.00  0.00     0.085 H 
ATOM     10  H   D1A d   1      48.746 -12.834  -9.898  0.00  0.00     0.086 H 
ENDROOT
BRANCH   1  11
ATOM     11  N2  D1A d   1      46.924 -14.825  -9.542  0.00  0.00    -0.322 N 
ATOM     12  C9  D1A d   1      47.656 -14.812  -8.429  0.00  0.00     0.272 C 
ATOM     13  O1  D1A d   1      48.566 -14.018  -8.203  0.00  0.00    -0.266 OA
ATOM     14  H   D1A d   1      46.165 -15.505  -9.589  0.00  0.00     0.169 HD
BRANCH  12  15
ATOM     15  C8  D1A d   1      47.364 -15.838  -7.415  0.00  0.00     0.102 A 
ATOM     16  N1  D1A d   1      48.000 -15.946  -6.209  0.00  0.00    -0.349 N 
ATOM     17  C4  D1A d   1      47.550 -17.017  -5.523  0.00  0.00     0.076 A 
ATOM     18  H   D1A d   1      48.718 -15.303  -5.873  0.00  0.00     0.166 HD
ATOM     19  C3  D1A d   1      47.857 -17.519  -4.270  0.00  0.00     0.130 A 
ATOM     20  C5  D1A d   1      46.618 -17.627  -6.319  0.00  0.00    -0.005 A 
ATOM     21  C2  D1A d   1      47.199 -18.665  -3.824  0.00  0.00    -0.049 A 
ATOM     22  C1  D1A d   1      46.248 -19.292  -4.633  0.00  0.00    -0.080 A 
ATOM     23  H   D1A d   1      47.428 -19.073  -2.840  0.00  0.00     0.087 H 
ATOM     24  C6  D1A d   1      45.955 -18.778  -5.899  0.00  0.00    -0.071 A 
ATOM     25  H   D1A d   1      45.733 -20.184  -4.276  0.00  0.00     0.083 H 
ATOM     26  H   D1A d   1      45.224 -19.267  -6.543  0.00  0.00     0.084 H 
ATOM     27  C7  D1A d   1      46.491 -16.904  -7.537  0.00  0.00    -0.040 A 
ATOM     28  H   D1A d   1      45.846 -17.139  -8.383  0.00  0.00     0.088 H 
BRANCH  19  29
ATOM     29  N7  D1A d   1      48.834 -16.867  -3.509  0.00  0.00    -0.113 N 
ATOM     30  O3  D1A d   1      49.465 -15.911  -3.970  0.00  0.00    -0.532 OA
ATOM     31  O2  D1A d   1      49.103 -17.262  -2.375  0.00  0.00    -0.532 OA
ENDBRANCH  19  29
ENDBRANCH  12  15
ENDBRANCH   1  11
BRANCH   4  32
ATOM     32  C16 D1A d   1      47.459 -11.704 -14.260  0.00  0.00     0.061 C 
BRANCH  32  33
ATOM     33  C17 D1A d   1      48.096 -10.346 -14.278  0.00  0.00    -0.033 C 
ATOM     34  H   D1A d   1      48.988 -10.373 -14.904  0.00  0.00     0.035 H 
ATOM     35  H   D1A d   1      47.389  -9.620 -14.680  0.00  0.00     0.035 H 
ATOM     36  H   D1A d   1      48.372 -10.062 -13.262  0.00  0.00     0.035 H 
ENDBRANCH  32  33
BRANCH  32  37
ATOM     37  N3  D1A d   1      47.060 -12.228 -15.347  0.00  0.00    -0.164 NA
BRANCH  37  38
ATOM     38  N4  D1A d   1      47.124 -11.616 -16.453  0.00  0.00    -0.110 N 
ATOM     39  C18 D1A d   1      46.699 -12.299 -17.513  0.00  0.00     0.685 C 
ATOM     40  N6  D1A d   1      46.711 -11.797 -18.725  0.00  0.00    -0.234 N 
ATOM     41  N5  D1A d   1      46.348 -13.496 -17.367  0.00  0.00    -0.234 N 
ATOM     42  H   D1A d   1      47.055 -10.850 -18.881  0.00  0.00     0.174 HD
ATOM     43  H   D1A d   1      46.376 -12.354 -19.511  0.00  0.00     0.174 HD
ATOM     44  H   D1A d   1      46.391 -13.931 -16.446  0.00  0.00     0.174 HD
ATOM     45  H   D1A d   1      46.020 -14.033 -18.170  0.00  0.00     0.174 HD
ATOM     46  H   D1A d   1      47.478 -10.662 -16.527  0.00  0.00     0.208 HD
ENDBRANCH  37  38
ENDBRANCH  32  37
ENDBRANCH   4  32
TORSDOF 7
