REMARK  18 active torsions:
REMARK  status: ('A' for Active; 'I' for Inactive)
REMARK    1  A    between atoms: O3_23  and  C1_1 
REMARK    2  A    between atoms: C2_2  and  N2_14 
REMARK    3  A    between atoms: C3_3  and  O3_10 
REMARK    4  A    between atoms: C4_4  and  O4_11 
REMARK    5  A    between atoms: C5_5  and  C6_6 
REMARK    6  A    between atoms: C6_6  and  O6_12 
REMARK    7  A    between atoms: C7_7  and  C8_8 
REMARK       I    between atoms: N2_14  and  C7_7 
REMARK    8  A    between atoms: C1_15  and  O1_21 
REMARK    9  A    between atoms: C2_16  and  O2_22 
REMARK   10  A    between atoms: C3_17  and  O3_23 
REMARK   11  A    between atoms: C4_18  and  O4_24 
REMARK   12  A    between atoms: C5_19  and  C6_20 
REMARK   13  A    between atoms: C6_20  and  O6_26 
REMARK   14  A    between atoms: O2_22  and  C1_27 
REMARK   15  A    between atoms: C2_28  and  O2_33 
REMARK   16  A    between atoms: C3_29  and  O3_34 
REMARK   17  A    between atoms: C4_30  and  O4_35 
REMARK   18  A    between atoms: C5_31  and  C6_32 
ROOT
ATOM      1  H15 A2G d   1      16.070   6.411  50.776  0.00  0.00     0.133 H 
ATOM      2  H16 A2G d   1      17.336   3.770  51.661  0.00  0.00     0.095 H 
ATOM      3  H17 A2G d   1      15.749   4.297  49.115  0.00  0.00     0.091 H 
ATOM      4  H18 A2G d   1      13.927   2.974  49.995  0.00  0.00     0.091 H 
ATOM      5  H19 A2G d   1      13.938   5.386  50.438  0.00  0.00     0.090 H 
ATOM      6  C1  GAL d   1      16.264   5.641  51.537  0.00  0.00     0.156 C 
ATOM      7  C2  GAL d   1      16.955   4.445  50.880  0.00  0.00     0.116 C 
ATOM      8  C3  GAL d   1      15.975   3.673  49.992  0.00  0.00     0.098 C 
ATOM      9  C4  GAL d   1      14.653   3.385  50.713  0.00  0.00     0.090 C 
ATOM     10  C5  GAL d   1      14.099   4.699  51.282  0.00  0.00     0.089 C 
ATOM     11  O5  GAL d   1      15.051   5.272  52.158  0.00  0.00    -0.349 OA
ENDROOT
BRANCH   8  12
ATOM     12  O3  GAL d   1      16.575   2.481  49.539  0.00  0.00    -0.348 OA
BRANCH  12  13
ATOM     13  C1  A2G d   1      16.309   1.907  48.366  0.00  0.00     0.154 C 
ATOM     14  C2  A2G d   1      17.107   0.671  47.983  0.00  0.00     0.087 C 
ATOM     15  C3  A2G d   1      18.507   1.090  47.514  0.00  0.00     0.086 C 
ATOM     16  H2  A2G d   1      16.585   0.143  47.172  0.00  0.00     0.084 H 
ATOM     17  C4  A2G d   1      18.411   2.010  46.296  0.00  0.00     0.089 C 
ATOM     18  H3  A2G d   1      18.989   1.652  48.327  0.00  0.00     0.090 H 
ATOM     19  C5  A2G d   1      17.527   3.211  46.656  0.00  0.00     0.089 C 
ATOM     20  H4  A2G d   1      19.417   2.363  46.025  0.00  0.00     0.091 H 
ATOM     21  O   A2G d   1      16.227   2.763  47.195  0.00  0.00    -0.349 OA
ATOM     22  H5  A2G d   1      18.043   3.784  47.440  0.00  0.00     0.090 H 
ATOM     23  H1  A2G d   1      15.283   1.538  48.508  0.00  0.00     0.132 H 
BRANCH  14  24
ATOM     24  N2  A2G d   1      17.271  -0.230  49.124  0.00  0.00    -0.349 N 
ATOM     25  C7  A2G d   1      16.937  -1.514  49.061  0.00  0.00     0.214 C 
ATOM     26  O7  A2G d   1      16.440  -2.062  48.077  0.00  0.00    -0.274 OA
ATOM     27  H14 A2G d   1      17.646   0.132  49.977  0.00  0.00     0.163 HD
BRANCH  25  28
ATOM     28  C8  A2G d   1      17.207  -2.293  50.345  0.00  0.00    -0.003 C 
ATOM     29  H8  A2G d   1      17.650  -1.621  51.095  0.00  0.00     0.040 H 
ATOM     30  H9  A2G d   1      17.904  -3.118  50.134  0.00  0.00     0.040 H 
ATOM     31  H10 A2G d   1      16.262  -2.702  50.732  0.00  0.00     0.040 H 
ENDBRANCH  25  28
ENDBRANCH  14  24
BRANCH  15  32
ATOM     32  O3  A2G d   1      19.303  -0.065  47.241  0.00  0.00    -0.391 OA
ATOM     33  H11 A2G d   1      18.914  -0.554  46.525  0.00  0.00     0.210 HD
ENDBRANCH  15  32
BRANCH  17  34
ATOM     34  O4  A2G d   1      17.845   1.303  45.185  0.00  0.00    -0.390 OA
ATOM     35  H12 A2G d   1      18.398   0.561  44.968  0.00  0.00     0.210 HD
ENDBRANCH  17  34
BRANCH  19  36
ATOM     36  C6  A2G d   1      17.311   4.138  45.462  0.00  0.00     0.043 C 
ATOM     37  H6  A2G d   1      16.905   3.565  44.616  0.00  0.00     0.078 H 
ATOM     38  H7  A2G d   1      18.268   4.596  45.169  0.00  0.00     0.078 H 
BRANCH  36  39
ATOM     39  O6  A2G d   1      16.385   5.158  45.842  0.00  0.00    -0.398 OA
ATOM     40  H13 A2G d   1      16.739   5.649  46.574  0.00  0.00     0.209 HD
ENDBRANCH  36  39
ENDBRANCH  19  36
ENDBRANCH  12  13
ENDBRANCH   8  12
BRANCH   7  41
ATOM     41  O2  GAL d   1      18.036   4.932  50.112  0.00  0.00    -0.346 OA
BRANCH  41  42
ATOM     42  C1  FUC d   1      19.304   4.286  50.395  0.00  0.00     0.159 C 
ATOM     43  C2  FUC d   1      20.389   4.854  49.477  0.00  0.00     0.110 C 
ATOM     44  C3  FUC d   1      20.752   6.271  49.926  0.00  0.00     0.092 C 
ATOM     45  H26 A2G d   1      21.284   4.216  49.534  0.00  0.00     0.094 H 
ATOM     46  C4  FUC d   1      21.218   6.252  51.382  0.00  0.00     0.087 C 
ATOM     47  H27 A2G d   1      19.846   6.892  49.865  0.00  0.00     0.091 H 
ATOM     48  C5  FUC d   1      20.137   5.601  52.252  0.00  0.00     0.065 C 
ATOM     49  H28 A2G d   1      21.377   7.286  51.721  0.00  0.00     0.091 H 
ATOM     50  O5  FUC d   1      19.738   4.334  51.748  0.00  0.00    -0.351 OA
ATOM     51  H29 A2G d   1      19.261   6.266  52.236  0.00  0.00     0.086 H 
ATOM     52  H25 A2G d   1      19.177   3.222  50.145  0.00  0.00     0.133 H 
BRANCH  43  53
ATOM     53  O2  FUC d   1      19.920   4.875  48.152  0.00  0.00    -0.388 OA
ATOM     54  H33 A2G d   1      19.149   5.428  48.099  0.00  0.00     0.210 HD
ENDBRANCH  43  53
BRANCH  44  55
ATOM     55  O3  FUC d   1      21.726   6.845  49.081  0.00  0.00    -0.390 OA
ATOM     56  H34 A2G d   1      21.408   6.843  48.186  0.00  0.00     0.210 HD
ENDBRANCH  44  55
BRANCH  46  57
ATOM     57  O4  FUC d   1      22.436   5.541  51.499  0.00  0.00    -0.390 OA
ATOM     58  H35 A2G d   1      22.720   5.549  52.406  0.00  0.00     0.210 HD
ENDBRANCH  46  57
BRANCH  48  59
ATOM     59  C6  FUC d   1      20.572   5.432  53.704  0.00  0.00    -0.050 C 
ATOM     60  H30 A2G d   1      19.760   4.962  54.278  0.00  0.00     0.031 H 
ATOM     61  H31 A2G d   1      20.802   6.418  54.135  0.00  0.00     0.031 H 
ATOM     62  H32 A2G d   1      21.468   4.795  53.747  0.00  0.00     0.031 H 
ENDBRANCH  48  59
ENDBRANCH  41  42
ENDBRANCH   7  41
BRANCH   9  63
ATOM     63  O4  GAL d   1      14.880   2.433  51.726  0.00  0.00    -0.390 OA
ATOM     64  H23 A2G d   1      15.221   1.635  51.339  0.00  0.00     0.210 HD
ENDBRANCH   9  63
BRANCH   6  65
ATOM     65  O1  GAL d   1      17.104   6.154  52.546  0.00  0.00    -0.369 OA
ATOM     66  H22 A2G d   1      16.689   6.908  52.949  0.00  0.00     0.212 HD
ENDBRANCH   6  65
BRANCH  10  67
ATOM     67  C6  GAL d   1      12.768   4.550  52.023  0.00  0.00     0.043 C 
ATOM     68  H20 A2G d   1      12.955   4.213  53.053  0.00  0.00     0.078 H 
ATOM     69  H21 A2G d   1      12.138   3.812  51.505  0.00  0.00     0.078 H 
BRANCH  67  70
ATOM     70  O6  GAL d   1      12.111   5.804  52.045  0.00  0.00    -0.398 OA
ATOM     71  H24 A2G d   1      11.284   5.719  52.504  0.00  0.00     0.209 HD
ENDBRANCH  67  70
ENDBRANCH  10  67
TORSDOF 18
