REMARK WARNING: 32 MAX_TORS EXCEEDED!!!
REMARK  57 active torsions:
REMARK  status: ('A' for Active; 'I' for Inactive)
REMARK    1  A    between atoms: N_1  and  CA_2 
REMARK    2  A    between atoms: CA_2  and  C_3 
REMARK    3  A    between atoms: CA_2  and  CB_5 
REMARK       I    between atoms: C_3  and  N_7 
REMARK    4  A    between atoms: CB_5  and  OG_6 
REMARK    5  A    between atoms: N_7  and  CA_8 
REMARK    6  A    between atoms: CA_8  and  C_9 
REMARK    7  A    between atoms: CA_8  and  CB_11 
REMARK       I    between atoms: C_9  and  N_16 
REMARK    8  A    between atoms: CB_11  and  CG_12 
REMARK    9  A    between atoms: CG_12  and  CD_13 
REMARK       I    between atoms: CD_13  and  NE2_15 
REMARK   10  A    between atoms: N_16  and  CA_17 
REMARK   11  A    between atoms: CA_17  and  C_18 
REMARK   12  A    between atoms: CA_17  and  CB_20 
REMARK       I    between atoms: C_18  and  N_25 
REMARK   13  A    between atoms: CB_20  and  CG_21 
REMARK   14  A    between atoms: CG_21  and  CD_22 
REMARK   15  A    between atoms: N_25  and  CA_26 
REMARK   16  A    between atoms: CA_26  and  C_27 
REMARK   17  A    between atoms: CA_26  and  CB_29 
REMARK       I    between atoms: C_27  and  N_34 
REMARK   18  A    between atoms: CB_29  and  CG_30 
REMARK   19  A    between atoms: CG_30  and  CD_31 
REMARK   20  A    between atoms: CD_31  and  CE_32 
REMARK   21  A    between atoms: CE_32  and  NZ_33 
REMARK   22  A    between atoms: N_34  and  CA_35 
REMARK   23  A    between atoms: CA_35  and  C_36 
REMARK   24  A    between atoms: CA_35  and  CB_38 
REMARK       I    between atoms: C_36  and  N_45 
REMARK   25  A    between atoms: CB_38  and  CG_39 
REMARK   26  A    between atoms: N_45  and  CA_46 
REMARK   27  A    between atoms: CA_46  and  C_47 
REMARK   28  A    between atoms: CA_46  and  CB_49 
REMARK       I    between atoms: C_47  and  N_56 
REMARK   29  A    between atoms: CB_49  and  CG_50 
REMARK   30  A    between atoms: N_56  and  CA_57 
REMARK   31  A    between atoms: CA_57  and  C_58 
REMARK   32  A    between atoms: CA_57  and  CB_60 
REMARK       I    between atoms: C_58  and  N_65 
REMARK   33  A    between atoms: CB_60  and  CG_61 
REMARK   34  A    between atoms: CG_61  and  CD_62 
REMARK       I    between atoms: CD_62  and  NE2_64 
REMARK   35  A    between atoms: N_65  and  CA_66 
REMARK   36  A    between atoms: CA_66  and  C_67 
REMARK   37  A    between atoms: CA_66  and  CB_69 
REMARK       I    between atoms: C_67  and  N_74 
REMARK   38  A    between atoms: CB_69  and  CG_70 
REMARK   39  A    between atoms: CG_70  and  CD_71 
REMARK   40  A    between atoms: N_74  and  CA_75 
REMARK   41  A    between atoms: CA_75  and  C_76 
REMARK   42  A    between atoms: CA_75  and  CB_78 
REMARK       I    between atoms: C_76  and  N_82 
REMARK   43  A    between atoms: CB_78  and  CG_79 
REMARK   44  A    between atoms: CG_79  and  CD1_80 
REMARK   45  A    between atoms: CG_79  and  CD2_81 
REMARK   46  A    between atoms: N_82  and  CA_83 
REMARK   47  A    between atoms: CA_83  and  C_84 
REMARK   48  A    between atoms: CA_83  and  CB_86 
REMARK       I    between atoms: C_84  and  N_93 
REMARK   49  A    between atoms: CB_86  and  CG_87 
REMARK   50  A    between atoms: N_93  and  CA_94 
REMARK   51  A    between atoms: CA_94  and  C_95 
REMARK   52  A    between atoms: CA_94  and  CB_97 
REMARK       I    between atoms: C_95  and  N_101 
REMARK   53  A    between atoms: CB_97  and  CG_98 
REMARK   54  A    between atoms: N_101  and  CA_102 
REMARK   55  A    between atoms: CA_102  and  C_103 
REMARK   56  A    between atoms: CA_102  and  CB_105 
REMARK   57  A    between atoms: CB_105  and  OG_106 
ROOT
ATOM      1  CA  PHE d   1      -0.433   9.663   1.471  0.00  0.00     0.093 C 
ATOM      2  H45 PHE d   1       0.257   9.019   0.906  0.00  0.00     0.088 H 
ENDROOT
BRANCH   1   3
ATOM      3  N   PHE d   1       0.133  11.006   1.538  0.00  0.00    -0.346 N 
ATOM      4  C   PHE d   1       0.707  11.570   0.477  0.00  0.00     0.241 C 
ATOM      5  O   PHE d   1       0.798  11.004  -0.609  0.00  0.00    -0.271 OA
ATOM      6  H44 PHE d   1       0.089  11.514   2.398  0.00  0.00     0.163 HD
BRANCH   4   7
ATOM      7  CA  PHE d   1       1.222  12.996   0.654  0.00  0.00     0.093 C 
ATOM      8  H36 PHE d   1       1.182  13.503  -0.321  0.00  0.00     0.088 H 
BRANCH   7   9
ATOM      9  N   PHE d   1       0.381  13.731   1.595  0.00  0.00    -0.346 N 
ATOM     10  C   LYS d   1      -0.905  13.968   1.354  0.00  0.00     0.241 C 
ATOM     11  O   LYS d   1      -1.473  13.605   0.326  0.00  0.00    -0.271 OA
ATOM     12  H35 PHE d   1       0.784  14.066   2.446  0.00  0.00     0.163 HD
BRANCH  10  13
ATOM     13  CA  LYS d   1      -1.665  14.719   2.443  0.00  0.00     0.089 C 
ATOM     14  H23 LYS d   1      -2.703  14.355   2.465  0.00  0.00     0.087 H 
BRANCH  13  15
ATOM     15  N   LYS d   1      -1.059  14.476   3.745  0.00  0.00    -0.346 N 
ATOM     16  C   GLU d   1      -1.096  13.280   4.321  0.00  0.00     0.241 C 
ATOM     17  O   GLU d   1      -1.635  12.302   3.803  0.00  0.00    -0.271 OA
ATOM     18  H22 LYS d   1      -0.603  15.230   4.218  0.00  0.00     0.163 HD
BRANCH  16  19
ATOM     19  CA  GLU d   1      -0.397  13.166   5.673  0.00  0.00     0.090 C 
ATOM     20  H17 GLU d   1      -0.260  12.101   5.910  0.00  0.00     0.087 H 
BRANCH  19  21
ATOM     21  N   GLU d   1       0.915  13.798   5.622  0.00  0.00    -0.346 N 
ATOM     22  C   GLN d   1       1.855  13.387   4.780  0.00  0.00     0.241 C 
ATOM     23  O   GLN d   1       1.708  12.429   4.029  0.00  0.00    -0.271 OA
ATOM     24  H16 GLU d   1       1.112  14.561   6.237  0.00  0.00     0.163 HD
BRANCH  22  25
ATOM     25  CA  GLN d   1       3.151  14.189   4.772  0.00  0.00     0.090 C 
ATOM     26  H9  GLN d   1       3.585  14.131   3.763  0.00  0.00     0.087 H 
BRANCH  25  27
ATOM     27  N   GLN d   1       2.888  15.586   5.079  0.00  0.00    -0.346 N 
ATOM     28  C   SER d   1       2.303  16.392   4.201  0.00  0.00     0.251 C 
ATOM     29  O   SER d   1       1.922  16.008   3.095  0.00  0.00    -0.271 OA
ATOM     30  H8  GLN d   1       3.154  15.948   5.972  0.00  0.00     0.163 HD
BRANCH  28  31
ATOM     31  CA  SER d   1       2.128  17.843   4.636  0.00  0.00     0.195 C 
ATOM     32  H4  SER d   1       2.576  17.967   5.633  0.00  0.00     0.102 H 
BRANCH  31  33
ATOM     33  N   SER d   1       2.807  18.749   3.693  0.00  0.00    -0.064 N 
ATOM     34  H1  SER d   1       2.682  19.703   3.994  0.00  0.00     0.275 HD
ATOM     35  H2  SER d   1       2.413  18.633   2.773  0.00  0.00     0.275 HD
ATOM     36  H3  SER d   1       3.791  18.531   3.667  0.00  0.00     0.275 HD
ENDBRANCH  31  33
BRANCH  31  37
ATOM     37  CB  SER d   1       0.646  18.209   4.712  0.00  0.00     0.051 C 
ATOM     38  H5  SER d   1       0.531  19.118   5.320  0.00  0.00     0.077 H 
ATOM     39  H6  SER d   1       0.095  17.381   5.182  0.00  0.00     0.077 H 
BRANCH  37  40
ATOM     40  OG  SER d   1       0.115  18.445   3.420  0.00  0.00    -0.398 OA
ATOM     41  H7  SER d   1       0.209  17.661   2.892  0.00  0.00     0.209 HD
ENDBRANCH  37  40
ENDBRANCH  31  37
ENDBRANCH  28  31
ENDBRANCH  25  27
BRANCH  25  42
ATOM     42  CB  GLN d   1       4.164  13.612   5.765  0.00  0.00    -0.030 C 
ATOM     43  H10 GLN d   1       3.747  13.706   6.779  0.00  0.00     0.037 H 
ATOM     44  H11 GLN d   1       5.092  14.199   5.694  0.00  0.00     0.037 H 
BRANCH  42  45
ATOM     45  CG  GLN d   1       4.503  12.149   5.520  0.00  0.00     0.011 C 
ATOM     46  H12 GLN d   1       4.728  12.014   4.452  0.00  0.00     0.047 H 
ATOM     47  H13 GLN d   1       3.632  11.535   5.792  0.00  0.00     0.047 H 
BRANCH  45  48
ATOM     48  CD  GLN d   1       5.696  11.684   6.329  0.00  0.00     0.215 C 
ATOM     49  OE1 GLN d   1       6.614  12.455   6.601  0.00  0.00    -0.274 OA
ATOM     50  NE2 GLN d   1       5.688  10.424   6.722  0.00  0.00    -0.370 N 
ATOM     51  H14 GLN d   1       6.450  10.063   7.259  0.00  0.00     0.159 HD
ATOM     52  H15 GLN d   1       4.920   9.831   6.483  0.00  0.00     0.159 HD
ENDBRANCH  45  48
ENDBRANCH  42  45
ENDBRANCH  25  42
ENDBRANCH  22  25
ENDBRANCH  19  21
BRANCH  19  53
ATOM     53  CB  GLU d   1      -1.272  13.798   6.761  0.00  0.00    -0.029 C 
ATOM     54  H18 GLU d   1      -2.225  13.250   6.800  0.00  0.00     0.037 H 
ATOM     55  H19 GLU d   1      -1.463  14.846   6.485  0.00  0.00     0.037 H 
BRANCH  53  56
ATOM     56  CG  GLU d   1      -0.652  13.775   8.149  0.00  0.00     0.018 C 
ATOM     57  H20 GLU d   1      -0.089  12.838   8.266  0.00  0.00     0.049 H 
ATOM     58  H21 GLU d   1      -1.460  13.813   8.895  0.00  0.00     0.049 H 
BRANCH  56  59
ATOM     59  CD  GLU d   1       0.289  14.939   8.394  0.00  0.00     0.172 C 
ATOM     60  OE1 GLU d   1       1.485  14.829   8.053  0.00  0.00    -0.648 OA
ATOM     61  OE2 GLU d   1      -0.164  15.971   8.922  0.00  0.00    -0.648 OA
ENDBRANCH  56  59
ENDBRANCH  53  56
ENDBRANCH  19  53
ENDBRANCH  16  19
ENDBRANCH  13  15
BRANCH  13  62
ATOM     62  CB  LYS d   1      -1.677  16.216   2.129  0.00  0.00    -0.038 C 
ATOM     63  H24 LYS d   1      -0.636  16.563   2.056  0.00  0.00     0.036 H 
ATOM     64  H25 LYS d   1      -2.181  16.739   2.955  0.00  0.00     0.036 H 
BRANCH  62  65
ATOM     65  CG  LYS d   1      -2.391  16.566   0.833  0.00  0.00    -0.061 C 
ATOM     66  H26 LYS d   1      -3.474  16.429   0.972  0.00  0.00     0.033 H 
ATOM     67  H27 LYS d   1      -2.036  15.896   0.036  0.00  0.00     0.033 H 
BRANCH  65  68
ATOM     68  CD  LYS d   1      -2.124  18.003   0.425  0.00  0.00    -0.043 C 
ATOM     69  H28 LYS d   1      -1.043  18.136   0.271  0.00  0.00     0.035 H 
ATOM     70  H29 LYS d   1      -2.464  18.672   1.229  0.00  0.00     0.035 H 
BRANCH  68  71
ATOM     71  CE  LYS d   1      -2.854  18.363  -0.859  0.00  0.00     0.080 C 
ATOM     72  H30 LYS d   1      -3.934  18.400  -0.656  0.00  0.00     0.075 H 
ATOM     73  H31 LYS d   1      -2.649  17.590  -1.614  0.00  0.00     0.075 H 
BRANCH  71  74
ATOM     74  NZ  LYS d   1      -2.419  19.681  -1.389  0.00  0.00    -0.079 N 
ATOM     75  H32 LYS d   1      -2.923  19.885  -2.238  0.00  0.00     0.274 HD
ATOM     76  H33 LYS d   1      -1.430  19.655  -1.583  0.00  0.00     0.274 HD
ATOM     77  H34 LYS d   1      -2.609  20.397  -0.706  0.00  0.00     0.274 HD
ENDBRANCH  71  74
ENDBRANCH  68  71
ENDBRANCH  65  68
ENDBRANCH  62  65
ENDBRANCH  13  62
ENDBRANCH  10  13
ENDBRANCH   7   9
BRANCH   7  78
ATOM     78  CB  PHE d   1       2.677  12.995   1.142  0.00  0.00    -0.014 C 
ATOM     79  H37 PHE d   1       2.733  12.388   2.058  0.00  0.00     0.043 H 
ATOM     80  H38 PHE d   1       2.964  14.032   1.371  0.00  0.00     0.043 H 
BRANCH  78  81
ATOM     81  CG  PHE d   1       3.661  12.442   0.151  0.00  0.00    -0.056 A 
ATOM     82  CD1 PHE d   1       4.074  13.204  -0.930  0.00  0.00    -0.077 A 
ATOM     83  CE1 PHE d   1       4.986  12.705  -1.839  0.00  0.00    -0.082 A 
ATOM     84  H39 PHE d   1       3.677  14.204  -1.064  0.00  0.00     0.084 H 
ATOM     85  CZ  PHE d   1       5.498  11.433  -1.673  0.00  0.00    -0.083 A 
ATOM     86  H41 PHE d   1       5.300  13.311  -2.682  0.00  0.00     0.083 H 
ATOM     87  CE2 PHE d   1       5.095  10.665  -0.598  0.00  0.00    -0.082 A 
ATOM     88  H43 PHE d   1       6.214  11.038  -2.385  0.00  0.00     0.083 H 
ATOM     89  CD2 PHE d   1       4.185  11.169   0.308  0.00  0.00    -0.077 A 
ATOM     90  H42 PHE d   1       5.494   9.666  -0.466  0.00  0.00     0.083 H 
ATOM     91  H40 PHE d   1       3.877  10.563   1.152  0.00  0.00     0.084 H 
ENDBRANCH  78  81
ENDBRANCH   7  78
ENDBRANCH   4   7
ENDBRANCH   1   3
BRANCH   1  92
ATOM     92  C   PHE d   1      -1.781   9.696   0.757  0.00  0.00     0.241 C 
ATOM     93  O   PHE d   1      -2.207   8.718   0.146  0.00  0.00    -0.271 OA
ATOM     94  N   GLN d   1      -2.438  10.843   0.827  0.00  0.00    -0.346 N 
ATOM     95  H53 GLN d   1      -1.983  11.638   1.228  0.00  0.00     0.163 HD
BRANCH  94  96
ATOM     96  CA  GLN d   1      -3.799  10.983   0.339  0.00  0.00     0.090 C 
ATOM     97  H54 GLN d   1      -4.294  10.003   0.406  0.00  0.00     0.087 H 
BRANCH  96  98
ATOM     98  C   GLN d   1      -3.836  11.436  -1.118  0.00  0.00     0.241 C 
ATOM     99  O   GLN d   1      -4.327  10.719  -1.987  0.00  0.00    -0.271 OA
ATOM    100  N   GLU d   1      -3.289  12.618  -1.376  0.00  0.00    -0.346 N 
ATOM    101  H61 GLU d   1      -2.832  13.108  -0.634  0.00  0.00     0.163 HD
BRANCH 100 102
ATOM    102  CA  GLU d   1      -3.329  13.230  -2.703  0.00  0.00     0.090 C 
ATOM    103  H62 GLU d   1      -4.381  13.359  -2.997  0.00  0.00     0.087 H 
BRANCH 102 104
ATOM    104  C   GLU d   1      -2.639  12.356  -3.746  0.00  0.00     0.241 C 
ATOM    105  O   GLU d   1      -3.168  12.132  -4.837  0.00  0.00    -0.271 OA
ATOM    106  N   LEU d   1      -1.464  11.856  -3.399  0.00  0.00    -0.346 N 
ATOM    107  H67 LEU d   1      -1.131  11.992  -2.466  0.00  0.00     0.163 HD
BRANCH 106 108
ATOM    108  CA  LEU d   1      -0.647  11.113  -4.345  0.00  0.00     0.089 C 
ATOM    109  H68 LEU d   1      -0.556  11.711  -5.264  0.00  0.00     0.087 H 
BRANCH 108 110
ATOM    110  C   LEU d   1      -1.287   9.774  -4.708  0.00  0.00     0.241 C 
ATOM    111  O   LEU d   1      -1.126   9.289  -5.826  0.00  0.00    -0.271 OA
ATOM    112  N   PHE d   1      -2.027   9.187  -3.775  0.00  0.00    -0.346 N 
ATOM    113  H78 PHE d   1      -2.173   9.646  -2.898  0.00  0.00     0.163 HD
BRANCH 112 114
ATOM    114  CA  PHE d   1      -2.629   7.882  -4.014  0.00  0.00     0.093 C 
ATOM    115  H79 PHE d   1      -2.016   7.353  -4.759  0.00  0.00     0.088 H 
BRANCH 114 116
ATOM    116  C   PHE d   1      -4.044   8.031  -4.573  0.00  0.00     0.241 C 
ATOM    117  O   PHE d   1      -4.610   7.082  -5.116  0.00  0.00    -0.271 OA
ATOM    118  N   ASP d   1      -4.612   9.225  -4.431  0.00  0.00    -0.345 N 
ATOM    119  H87 ASP d   1      -4.124   9.942  -3.933  0.00  0.00     0.163 HD
BRANCH 118 120
ATOM    120  CA  ASP d   1      -5.933   9.515  -4.986  0.00  0.00     0.098 C 
ATOM    121  H88 ASP d   1      -6.663   8.823  -4.541  0.00  0.00     0.088 H 
BRANCH 120 122
ATOM    122  C   ASP d   1      -5.921   9.313  -6.496  0.00  0.00     0.241 C 
ATOM    123  O   ASP d   1      -6.837   8.717  -7.069  0.00  0.00    -0.271 OA
ATOM    124  N   SER d   1      -4.866   9.809  -7.123  0.00  0.00    -0.343 N 
ATOM    125  H91 SER d   1      -4.178  10.303  -6.592  0.00  0.00     0.163 HD
BRANCH 124 126
ATOM    126  CA  SER d   1      -4.673   9.661  -8.555  0.00  0.00     0.116 C 
ATOM    127  H92 SER d   1      -5.217   8.768  -8.896  0.00  0.00     0.093 H 
BRANCH 126 128
ATOM    128  C   SER d   1      -3.191   9.480  -8.853  0.00  0.00     0.198 C 
ATOM    129  O   SER d   1      -2.440  10.477  -8.769  0.00  0.00    -0.646 OA
ATOM    130  OXT SER d   1      -2.778   8.339  -9.149  0.00  0.00    -0.646 OA
ENDBRANCH 126 128
BRANCH 126 131
ATOM    131  CB  SER d   1      -5.218  10.884  -9.301  0.00  0.00     0.045 C 
ATOM    132  H93 SER d   1      -5.110  10.721 -10.383  0.00  0.00     0.077 H 
ATOM    133  H94 SER d   1      -4.640  11.771  -9.004  0.00  0.00     0.077 H 
BRANCH 131 134
ATOM    134  OG  SER d   1      -6.591  11.104  -9.001  0.00  0.00    -0.398 OA
ATOM    135  H95 SER d   1      -6.691  11.250  -8.068  0.00  0.00     0.209 HD
ENDBRANCH 131 134
ENDBRANCH 126 131
ENDBRANCH 124 126
ENDBRANCH 120 122
BRANCH 120 136
ATOM    136  CB  ASP d   1      -6.352  10.952  -4.656  0.00  0.00     0.043 C 
ATOM    137  H89 ASP d   1      -5.558  11.636  -4.989  0.00  0.00     0.052 H 
ATOM    138  H90 ASP d   1      -6.479  11.041  -3.567  0.00  0.00     0.052 H 
BRANCH 136 139
ATOM    139  CG  ASP d   1      -7.650  11.349  -5.331  0.00  0.00     0.175 C 
ATOM    140  OD1 ASP d   1      -7.600  11.862  -6.472  0.00  0.00    -0.648 OA
ATOM    141  OD2 ASP d   1      -8.724  11.153  -4.726  0.00  0.00    -0.648 OA
ENDBRANCH 136 139
ENDBRANCH 120 136
ENDBRANCH 118 120
ENDBRANCH 114 116
BRANCH 114 142
ATOM    142  CB  PHE d   1      -2.655   7.046  -2.732  0.00  0.00    -0.014 C 
ATOM    143  H80 PHE d   1      -3.560   7.304  -2.162  0.00  0.00     0.043 H 
ATOM    144  H81 PHE d   1      -1.764   7.289  -2.135  0.00  0.00     0.043 H 
BRANCH 142 145
ATOM    145  CG  PHE d   1      -2.663   5.573  -3.002  0.00  0.00    -0.056 A 
ATOM    146  CD1 PHE d   1      -3.852   4.876  -3.145  0.00  0.00    -0.077 A 
ATOM    147  CE1 PHE d   1      -3.847   3.521  -3.413  0.00  0.00    -0.082 A 
ATOM    148  H82 PHE d   1      -4.796   5.400  -3.046  0.00  0.00     0.084 H 
ATOM    149  CZ  PHE d   1      -2.647   2.850  -3.532  0.00  0.00    -0.083 A 
ATOM    150  H84 PHE d   1      -4.783   2.986  -3.530  0.00  0.00     0.083 H 
ATOM    151  CE2 PHE d   1      -1.460   3.535  -3.389  0.00  0.00    -0.082 A 
ATOM    152  H86 PHE d   1      -2.638   1.786  -3.738  0.00  0.00     0.083 H 
ATOM    153  CD2 PHE d   1      -1.471   4.886  -3.126  0.00  0.00    -0.077 A 
ATOM    154  H85 PHE d   1      -0.517   3.009  -3.484  0.00  0.00     0.083 H 
ATOM    155  H83 PHE d   1      -0.533   5.417  -3.015  0.00  0.00     0.084 H 
ENDBRANCH 142 145
ENDBRANCH 114 142
ENDBRANCH 112 114
ENDBRANCH 108 110
BRANCH 108 156
ATOM    156  CB  LEU d   1       0.754  10.890  -3.771  0.00  0.00    -0.035 C 
ATOM    157  H69 LEU d   1       0.665  10.206  -2.914  0.00  0.00     0.037 H 
ATOM    158  H70 LEU d   1       1.138  11.861  -3.426  0.00  0.00     0.037 H 
BRANCH 156 159
ATOM    159  CG  LEU d   1       1.775  10.297  -4.745  0.00  0.00    -0.059 C 
ATOM    160  H71 LEU d   1       1.374   9.350  -5.135  0.00  0.00     0.038 H 
BRANCH 159 161
ATOM    161  CD1 LEU d   1       2.009  11.237  -5.916  0.00  0.00    -0.073 C 
ATOM    162  H72 LEU d   1       2.745  10.792  -6.602  0.00  0.00     0.028 H 
ATOM    163  H73 LEU d   1       2.390  12.199  -5.543  0.00  0.00     0.028 H 
ATOM    164  H74 LEU d   1       1.061  11.400  -6.450  0.00  0.00     0.028 H 
ENDBRANCH 159 161
BRANCH 159 165
ATOM    165  CD2 LEU d   1       3.083  10.007  -4.030  0.00  0.00    -0.073 C 
ATOM    166  H75 LEU d   1       2.897   9.326  -3.186  0.00  0.00     0.028 H 
ATOM    167  H76 LEU d   1       3.512  10.948  -3.654  0.00  0.00     0.028 H 
ATOM    168  H77 LEU d   1       3.788   9.537  -4.731  0.00  0.00     0.028 H 
ENDBRANCH 159 165
ENDBRANCH 156 159
ENDBRANCH 108 156
ENDBRANCH 106 108
ENDBRANCH 102 104
BRANCH 102 169
ATOM    169  CB  GLU d   1      -2.655  14.604  -2.656  0.00  0.00    -0.029 C 
ATOM    170  H63 GLU d   1      -1.627  14.472  -2.287  0.00  0.00     0.037 H 
ATOM    171  H64 GLU d   1      -3.217  15.241  -1.957  0.00  0.00     0.037 H 
BRANCH 169 172
ATOM    172  CG  GLU d   1      -2.592  15.312  -4.001  0.00  0.00     0.018 C 
ATOM    173  H65 GLU d   1      -2.182  14.614  -4.746  0.00  0.00     0.049 H 
ATOM    174  H66 GLU d   1      -1.926  16.183  -3.909  0.00  0.00     0.049 H 
BRANCH 172 175
ATOM    175  CD  GLU d   1      -3.946  15.788  -4.479  0.00  0.00     0.172 C 
ATOM    176  OE1 GLU d   1      -4.202  17.008  -4.404  0.00  0.00    -0.648 OA
ATOM    177  OE2 GLU d   1      -4.753  14.951  -4.934  0.00  0.00    -0.648 OA
ENDBRANCH 172 175
ENDBRANCH 169 172
ENDBRANCH 102 169
ENDBRANCH 100 102
ENDBRANCH  96  98
BRANCH  96 178
ATOM    178  CB  GLN d   1      -4.553  11.972   1.225  0.00  0.00    -0.030 C 
ATOM    179  H55 GLN d   1      -5.566  12.104   0.818  0.00  0.00     0.037 H 
ATOM    180  H56 GLN d   1      -4.021  12.935   1.206  0.00  0.00     0.037 H 
BRANCH 178 181
ATOM    181  CG  GLN d   1      -4.669  11.513   2.670  0.00  0.00     0.011 C 
ATOM    182  H57 GLN d   1      -3.668  11.239   3.033  0.00  0.00     0.047 H 
ATOM    183  H58 GLN d   1      -5.327  10.632   2.707  0.00  0.00     0.047 H 
BRANCH 181 184
ATOM    184  CD  GLN d   1      -5.239  12.582   3.581  0.00  0.00     0.215 C 
ATOM    185  OE1 GLN d   1      -5.052  13.775   3.345  0.00  0.00    -0.274 OA
ATOM    186  NE2 GLN d   1      -5.936  12.160   4.626  0.00  0.00    -0.370 N 
ATOM    187  H59 GLN d   1      -6.335  12.822   5.261  0.00  0.00     0.159 HD
ATOM    188  H60 GLN d   1      -6.063  11.180   4.780  0.00  0.00     0.159 HD
ENDBRANCH 181 184
ENDBRANCH 178 181
ENDBRANCH  96 178
ENDBRANCH  94  96
ENDBRANCH   1  92
BRANCH   1 189
ATOM    189  CB  PHE d   1      -0.625   9.073   2.874  0.00  0.00    -0.014 C 
ATOM    190  H46 PHE d   1      -1.104   8.088   2.767  0.00  0.00     0.043 H 
ATOM    191  H47 PHE d   1      -1.289   9.744   3.438  0.00  0.00     0.043 H 
BRANCH 189 192
ATOM    192  CG  PHE d   1       0.640   8.893   3.668  0.00  0.00    -0.056 A 
ATOM    193  CD1 PHE d   1       0.836   9.603   4.840  0.00  0.00    -0.077 A 
ATOM    194  CE1 PHE d   1       1.988   9.435   5.585  0.00  0.00    -0.082 A 
ATOM    195  H48 PHE d   1       0.077  10.299   5.178  0.00  0.00     0.084 H 
ATOM    196  CZ  PHE d   1       2.961   8.553   5.160  0.00  0.00    -0.083 A 
ATOM    197  H50 PHE d   1       2.127   9.995   6.502  0.00  0.00     0.083 H 
ATOM    198  CE2 PHE d   1       2.778   7.840   3.991  0.00  0.00    -0.082 A 
ATOM    199  H52 PHE d   1       3.866   8.420   5.742  0.00  0.00     0.083 H 
ATOM    200  CD2 PHE d   1       1.623   8.011   3.253  0.00  0.00    -0.077 A 
ATOM    201  H51 PHE d   1       3.540   7.147   3.653  0.00  0.00     0.083 H 
ATOM    202  H49 PHE d   1       1.485   7.447   2.337  0.00  0.00     0.084 H 
ENDBRANCH 189 192
ENDBRANCH   1 189
TORSDOF 57
