REMARK  5 active torsions:
REMARK  status: ('A' for Active; 'I' for Inactive)
REMARK    1  A    between atoms: C1_1  and  O1_7 
REMARK    2  A    between atoms: C2_2  and  O2_8 
REMARK    3  A    between atoms: C3_3  and  O3_9 
REMARK    4  A    between atoms: C4_4  and  O4_10 
REMARK    5  A    between atoms: C5_5  and  C6_6 
ROOT
ATOM      1  C1  GCU d   1     -14.554  -4.766  23.479  0.00  0.00     0.156 C 
ATOM      2  C2  GCU d   1     -15.361  -3.654  22.809  0.00  0.00     0.110 C 
ATOM      3  C3  GCU d   1     -14.404  -2.694  22.109  0.00  0.00     0.092 C 
ATOM      4  C4  GCU d   1     -13.494  -2.088  23.158  0.00  0.00     0.097 C 
ATOM      5  C5  GCU d   1     -12.762  -3.230  23.880  0.00  0.00     0.152 C 
ATOM      6  O5  GCU d   1     -13.707  -4.121  24.471  0.00  0.00    -0.340 OA
ATOM      7  H1  GCU d   1     -15.216  -5.492  23.974  0.00  0.00     0.133 H 
ATOM      8  H2  GCU d   1     -15.944  -3.111  23.567  0.00  0.00     0.094 H 
ATOM      9  H3  GCU d   1     -13.800  -3.253  21.379  0.00  0.00     0.091 H 
ATOM     10  H4  GCU d   1     -14.101  -1.519  23.878  0.00  0.00     0.091 H 
ATOM     11  H5  GCU d   1     -12.152  -3.775  23.144  0.00  0.00     0.104 H 
ENDROOT
BRANCH   5  12
ATOM     12  C6  GCU d   1     -11.861  -2.726  24.999  0.00  0.00     0.206 C 
ATOM     13  O6A GCU d   1     -11.097  -1.794  24.708  0.00  0.00    -0.646 OA
ATOM     14  O6B GCU d   1     -11.920  -3.266  26.130  0.00  0.00    -0.646 OA
ENDBRANCH   5  12
BRANCH   4  15
ATOM     15  O4  GCU d   1     -12.503  -1.207  22.570  0.00  0.00    -0.390 OA
ATOM     16  H9  GCU d   1     -11.947  -0.855  23.256  0.00  0.00     0.210 HD
ENDBRANCH   4  15
BRANCH   3  17
ATOM     17  O3  GCU d   1     -15.116  -1.661  21.425  0.00  0.00    -0.390 OA
ATOM     18  H8  GCU d   1     -15.684  -2.050  20.770  0.00  0.00     0.210 HD
ENDBRANCH   3  17
BRANCH   1  19
ATOM     19  O1  GCU d   1     -13.820  -5.416  22.442  0.00  0.00    -0.368 OA
ATOM     20  H6  GCU d   1     -13.283  -4.777  21.987  0.00  0.00     0.212 HD
ENDBRANCH   1  19
BRANCH   2  21
ATOM     21  O2  GCU d   1     -16.236  -4.219  21.847  0.00  0.00    -0.388 OA
ATOM     22  H7  GCU d   1     -15.728  -4.690  21.197  0.00  0.00     0.210 HD
ENDBRANCH   2  21
TORSDOF 5
