REMARK  4 active torsions:
REMARK  status: ('A' for Active; 'I' for Inactive)
REMARK    1  A    between atoms: C17_1  and  N1_2 
REMARK    2  A    between atoms: N1_2  and  C16_3 
REMARK    3  A    between atoms: C6_9  and  O1_11 
REMARK    4  A    between atoms: O1_11  and  C1_12 
ROOT
ATOM      1  C1  BS1 d   1      44.120  33.728  58.150  0.00  0.00     0.090 C 
ATOM      2  C5  BS1 d   1      42.912  33.101  57.517  0.00  0.00    -0.019 A 
ATOM      3  C19 BS1 d   1      41.758  33.901  57.494  0.00  0.00    -0.073 A 
ATOM      4  C23 BS1 d   1      40.559  33.456  56.928  0.00  0.00    -0.082 A 
ATOM      5  C26 BS1 d   1      40.494  32.180  56.370  0.00  0.00    -0.082 A 
ATOM      6  C21 BS1 d   1      41.634  31.374  56.381  0.00  0.00    -0.076 A 
ATOM      7  C9  BS1 d   1      42.846  31.810  56.938  0.00  0.00    -0.049 A 
ATOM      8  C15 BS1 d   1      43.968  30.783  56.865  0.00  0.00    -0.037 C 
ATOM      9  C14 BS1 d   1      45.372  31.303  57.163  0.00  0.00    -0.037 C 
ATOM     10  C10 BS1 d   1      45.456  31.636  58.627  0.00  0.00    -0.049 A 
ATOM     11  C22 BS1 d   1      46.134  30.766  59.496  0.00  0.00    -0.076 A 
ATOM     12  C25 BS1 d   1      46.207  31.074  60.855  0.00  0.00    -0.082 A 
ATOM     13  C24 BS1 d   1      45.598  32.248  61.318  0.00  0.00    -0.082 A 
ATOM     14  C18 BS1 d   1      44.918  33.112  60.448  0.00  0.00    -0.073 A 
ATOM     15  C4  BS1 d   1      44.844  32.807  59.085  0.00  0.00    -0.019 A 
ATOM     16  H18 BS1 d   1      43.765  34.573  58.758  0.00  0.00     0.098 H 
ATOM     17  H19 BS1 d   1      41.798  34.894  57.928  0.00  0.00     0.084 H 
ATOM     18  H20 BS1 d   1      39.686  34.099  56.923  0.00  0.00     0.083 H 
ATOM     19  H21 BS1 d   1      39.570  31.818  55.933  0.00  0.00     0.083 H 
ATOM     20  H22 BS1 d   1      41.581  30.382  55.947  0.00  0.00     0.084 H 
ATOM     21  H23 BS1 d   1      43.974  30.363  55.849  0.00  0.00     0.040 H 
ATOM     22  H24 BS1 d   1      43.743  29.987  57.590  0.00  0.00     0.040 H 
ATOM     23  H25 BS1 d   1      45.568  32.205  56.565  0.00  0.00     0.040 H 
ATOM     24  H26 BS1 d   1      46.114  30.530  56.915  0.00  0.00     0.040 H 
ATOM     25  H27 BS1 d   1      46.597  29.863  59.114  0.00  0.00     0.084 H 
ATOM     26  H28 BS1 d   1      46.727  30.416  61.542  0.00  0.00     0.083 H 
ATOM     27  H29 BS1 d   1      45.654  32.494  62.372  0.00  0.00     0.083 H 
ATOM     28  H30 BS1 d   1      44.452  34.013  60.830  0.00  0.00     0.084 H 
ENDROOT
BRANCH   1  29
ATOM     29  O1  BS1 d   1      44.978  34.270  57.125  0.00  0.00    -0.371 OA
BRANCH  29  30
ATOM     30  C6  BS1 d   1      44.763  35.678  56.951  0.00  0.00     0.043 C 
ATOM     31  C8  BS1 d   1      46.091  36.471  57.034  0.00  0.00    -0.014 C 
ATOM     32  C3  BS1 d   1      46.307  37.501  55.920  0.00  0.00     0.108 C 
ATOM     33  H13 BS1 d   1      46.110  37.002  57.997  0.00  0.00     0.039 H 
ATOM     34  H14 BS1 d   1      46.921  35.750  56.996  0.00  0.00     0.039 H 
ATOM     35  N1  BS1 d   1      45.801  37.018  54.621  0.00  0.00    -0.066 N 
ATOM     36  C12 BS1 d   1      45.437  38.726  56.201  0.00  0.00    -0.036 C 
ATOM     37  H7  BS1 d   1      47.373  37.766  55.855  0.00  0.00     0.085 H 
ATOM     38  C2  BS1 d   1      44.349  37.104  54.761  0.00  0.00     0.108 C 
ATOM     39  C13 BS1 d   1      44.145  38.486  55.399  0.00  0.00    -0.036 C 
ATOM     40  C7  BS1 d   1      43.863  35.974  55.689  0.00  0.00    -0.014 C 
ATOM     41  H12 BS1 d   1      43.841  37.036  53.788  0.00  0.00     0.085 H 
ATOM     42  H10 BS1 d   1      44.017  39.258  54.626  0.00  0.00     0.036 H 
ATOM     43  H11 BS1 d   1      43.268  38.483  56.063  0.00  0.00     0.036 H 
ATOM     44  H16 BS1 d   1      43.805  35.051  55.093  0.00  0.00     0.039 H 
ATOM     45  H17 BS1 d   1      42.858  36.242  56.048  0.00  0.00     0.039 H 
ATOM     46  H8  BS1 d   1      45.939  39.644  55.861  0.00  0.00     0.036 H 
ATOM     47  H9  BS1 d   1      45.216  38.806  57.276  0.00  0.00     0.036 H 
ATOM     48  H15 BS1 d   1      44.170  36.008  57.817  0.00  0.00     0.083 H 
BRANCH  35  49
ATOM     49  C17 BS1 d   1      46.204  35.647  54.239  0.00  0.00     0.069 C 
ATOM     50  H1  BS1 d   1      47.298  35.601  54.138  0.00  0.00     0.068 H 
ATOM     51  H2  BS1 d   1      45.736  35.381  53.280  0.00  0.00     0.068 H 
ATOM     52  H3  BS1 d   1      45.877  34.939  55.015  0.00  0.00     0.068 H 
ENDBRANCH  35  49
BRANCH  35  53
ATOM     53  C16 BS1 d   1      46.231  37.979  53.600  0.00  0.00     0.069 C 
ATOM     54  H4  BS1 d   1      45.924  38.992  53.898  0.00  0.00     0.068 H 
ATOM     55  H5  BS1 d   1      45.765  37.724  52.637  0.00  0.00     0.068 H 
ATOM     56  H6  BS1 d   1      47.326  37.942  53.499  0.00  0.00     0.068 H 
ENDBRANCH  35  53
ENDBRANCH  29  30
ENDBRANCH   1  29
TORSDOF 4
