REMARK  4 active torsions:
REMARK  status: ('A' for Active; 'I' for Inactive)
REMARK    1  A    between atoms: CBD_15  and  OAU_16 
REMARK    2  A    between atoms: OAU_16  and  CBA_17 
REMARK    3  A    between atoms: NBE_24  and  CAR_25 
REMARK    4  A    between atoms: CAR_25  and  CAV_26 
ROOT
ATOM      1  CBA BS2 d   1      52.382 -28.509   6.433  0.00  0.00     0.043 C 
ATOM      2  CAT BS2 d   1      52.514 -28.147   7.922  0.00  0.00    -0.014 C 
ATOM      3  CAS BS2 d   1      51.375 -29.657   6.332  0.00  0.00    -0.014 C 
ATOM      4  CBB BS2 d   1      51.836 -30.816   7.238  0.00  0.00     0.107 C 
ATOM      5  CAP BS2 d   1      53.347 -31.072   7.014  0.00  0.00    -0.036 C 
ATOM      6  CAQ BS2 d   1      54.024 -30.107   8.029  0.00  0.00    -0.036 C 
ATOM      7  CBC BS2 d   1      52.870 -29.397   8.733  0.00  0.00     0.107 C 
ATOM      8  NBE BS2 d   1      51.792 -30.410   8.662  0.00  0.00    -0.059 N 
ATOM      9  H14 BS2 d   1      51.992 -27.635   5.891  0.00  0.00     0.083 H 
ATOM     10  H15 BS2 d   1      51.559 -27.737   8.284  0.00  0.00     0.039 H 
ATOM     11  H16 BS2 d   1      53.306 -27.394   8.046  0.00  0.00     0.039 H 
ATOM     12  H17 BS2 d   1      51.317 -30.005   5.290  0.00  0.00     0.039 H 
ATOM     13  H18 BS2 d   1      50.384 -29.307   6.657  0.00  0.00     0.039 H 
ATOM     14  H19 BS2 d   1      51.231 -31.715   7.050  0.00  0.00     0.084 H 
ATOM     15  H20 BS2 d   1      53.640 -30.828   5.982  0.00  0.00     0.036 H 
ATOM     16  H21 BS2 d   1      53.606 -32.119   7.231  0.00  0.00     0.036 H 
ATOM     17  H22 BS2 d   1      54.662 -29.380   7.505  0.00  0.00     0.036 H 
ATOM     18  H23 BS2 d   1      54.630 -30.671   8.753  0.00  0.00     0.036 H 
ATOM     19  H24 BS2 d   1      53.112 -29.129   9.772  0.00  0.00     0.084 H 
ATOM     20  H25 BS2 d   1      50.887 -30.051   8.922  0.00  0.00     0.281 HD
ENDROOT
BRANCH   1  21
ATOM     21  OAU BS2 d   1      53.662 -28.896   5.817  0.00  0.00    -0.371 OA
BRANCH  21  22
ATOM     22  CBD BS2 d   1      54.485 -27.820   5.211  0.00  0.00     0.090 C 
ATOM     23  CAY BS2 d   1      53.564 -26.900   4.375  0.00  0.00    -0.019 A 
ATOM     24  CAL BS2 d   1      53.062 -25.828   5.080  0.00  0.00    -0.073 A 
ATOM     25  CAW BS2 d   1      53.227 -27.071   3.059  0.00  0.00    -0.049 A 
ATOM     26  CAF BS2 d   1      52.232 -24.929   4.445  0.00  0.00    -0.082 A 
ATOM     27  H1  BS2 d   1      53.317 -25.693   6.125  0.00  0.00     0.084 H 
ATOM     28  CAD BS2 d   1      51.910 -25.092   3.110  0.00  0.00    -0.082 A 
ATOM     29  H2  BS2 d   1      51.828 -24.087   4.997  0.00  0.00     0.083 H 
ATOM     30  CAJ BS2 d   1      52.426 -26.155   2.393  0.00  0.00    -0.076 A 
ATOM     31  H3  BS2 d   1      51.250 -24.383   2.624  0.00  0.00     0.083 H 
ATOM     32  H4  BS2 d   1      52.210 -26.270   1.337  0.00  0.00     0.084 H 
ATOM     33  CAN BS2 d   1      53.764 -28.200   2.193  0.00  0.00    -0.037 C 
ATOM     34  CAO BS2 d   1      55.207 -27.771   1.866  0.00  0.00    -0.037 C 
ATOM     35  H5  BS2 d   1      53.170 -28.303   1.273  0.00  0.00     0.040 H 
ATOM     36  H6  BS2 d   1      53.755 -29.152   2.744  0.00  0.00     0.040 H 
ATOM     37  CAX BS2 d   1      56.132 -28.132   3.045  0.00  0.00    -0.049 A 
ATOM     38  H7  BS2 d   1      55.237 -26.685   1.696  0.00  0.00     0.040 H 
ATOM     39  H8  BS2 d   1      55.548 -28.293   0.960  0.00  0.00     0.040 H 
ATOM     40  CAK BS2 d   1      57.396 -28.480   2.538  0.00  0.00    -0.076 A 
ATOM     41  CAZ BS2 d   1      55.826 -28.175   4.424  0.00  0.00    -0.019 A 
ATOM     42  CAE BS2 d   1      58.405 -28.868   3.415  0.00  0.00    -0.082 A 
ATOM     43  H9  BS2 d   1      57.584 -28.446   1.471  0.00  0.00     0.084 H 
ATOM     44  CAG BS2 d   1      58.128 -28.891   4.785  0.00  0.00    -0.082 A 
ATOM     45  H10 BS2 d   1      59.385 -29.146   3.043  0.00  0.00     0.083 H 
ATOM     46  CAM BS2 d   1      56.856 -28.554   5.285  0.00  0.00    -0.073 A 
ATOM     47  H11 BS2 d   1      58.911 -29.175   5.479  0.00  0.00     0.083 H 
ATOM     48  H12 BS2 d   1      56.675 -28.590   6.353  0.00  0.00     0.084 H 
ATOM     49  H13 BS2 d   1      54.828 -27.220   6.066  0.00  0.00     0.098 H 
ENDBRANCH  21  22
ENDBRANCH   1  21
BRANCH   8  50
ATOM     50  CAR BS2 d   1      52.222 -31.495   9.572  0.00  0.00     0.108 C 
ATOM     51  H26 BS2 d   1      51.861 -31.242  10.580  0.00  0.00     0.083 H 
ATOM     52  H27 BS2 d   1      53.322 -31.511   9.570  0.00  0.00     0.083 H 
BRANCH  50  53
ATOM     53  CAV BS2 d   1      51.741 -32.918   9.254  0.00  0.00    -0.033 A 
ATOM     54  CAH BS2 d   1      50.480 -33.168   8.729  0.00  0.00    -0.075 A 
ATOM     55  CAB BS2 d   1      50.057 -34.469   8.478  0.00  0.00    -0.082 A 
ATOM     56  H28 BS2 d   1      49.817 -32.339   8.512  0.00  0.00     0.084 H 
ATOM     57  CAA BS2 d   1      50.897 -35.520   8.774  0.00  0.00    -0.083 A 
ATOM     58  H29 BS2 d   1      49.077 -34.654   8.054  0.00  0.00     0.083 H 
ATOM     59  CAC BS2 d   1      52.143 -35.286   9.318  0.00  0.00    -0.082 A 
ATOM     60  H30 BS2 d   1      50.577 -36.537   8.578  0.00  0.00     0.083 H 
ATOM     61  CAI BS2 d   1      52.575 -33.991   9.558  0.00  0.00    -0.075 A 
ATOM     62  H31 BS2 d   1      52.790 -36.122   9.560  0.00  0.00     0.083 H 
ATOM     63  H32 BS2 d   1      53.558 -33.814   9.980  0.00  0.00     0.084 H 
ENDBRANCH  50  53
ENDBRANCH   8  50
TORSDOF 4
