REMARK  5 active torsions:
REMARK  status: ('A' for Active; 'I' for Inactive)
REMARK    1  A    between atoms: C3_3  and  O3_11 
REMARK    2  A    between atoms: C4_4  and  O4_12 
REMARK    3  A    between atoms: C5_5  and  C6_6 
REMARK    4  A    between atoms: C6_6  and  O6_14 
REMARK    5  A    between atoms: C7_7  and  C8_8 
ROOT
ATOM      1  C1  NGT d   1      -3.593  -5.130 -24.905  0.00  0.00     0.112 C 
ATOM      2  C2  NGT d   1      -3.553  -3.585 -25.009  0.00  0.00     0.094 C 
ATOM      3  C3  NGT d   1      -4.131  -3.088 -26.350  0.00  0.00     0.087 C 
ATOM      4  C4  NGT d   1      -3.589  -3.900 -27.524  0.00  0.00     0.089 C 
ATOM      5  C5  NGT d   1      -3.928  -5.366 -27.301  0.00  0.00     0.087 C 
ATOM      6  C7  NGT d   1      -5.402  -3.951 -23.528  0.00  0.00     0.064 C 
ATOM      7  N2  NGT d   1      -4.434  -3.112 -23.924  0.00  0.00    -0.276 NA
ATOM      8  S1  NGT d   1      -5.309  -5.440 -24.397  0.00  0.00    -0.081 SA
ATOM      9  O5  NGT d   1      -3.347  -5.851 -26.087  0.00  0.00    -0.363 OA
ATOM     10  H   NGT d   1      -2.800  -5.465 -24.236  0.00  0.00     0.104 H 
ATOM     11  H   NGT d   1      -2.528  -3.221 -24.940  0.00  0.00     0.085 H 
ATOM     12  H   NGT d   1      -5.211  -3.220 -26.282  0.00  0.00     0.090 H 
ATOM     13  H   NGT d   1      -2.509  -3.772 -27.598  0.00  0.00     0.091 H 
ATOM     14  H   NGT d   1      -5.012  -5.464 -27.236  0.00  0.00     0.090 H 
ENDROOT
BRANCH   5  15
ATOM     15  C6  NGT d   1      -3.360  -6.195 -28.482  0.00  0.00     0.043 C 
ATOM     16  H   NGT d   1      -2.271  -6.207 -28.427  0.00  0.00     0.078 H 
ATOM     17  H   NGT d   1      -3.671  -5.745 -29.425  0.00  0.00     0.078 H 
BRANCH  15  18
ATOM     18  O6  NGT d   1      -3.854  -7.529 -28.406  0.00  0.00    -0.398 OA
ATOM     19  H   NGT d   1      -4.813  -7.517 -28.454  0.00  0.00     0.209 HD
ENDBRANCH  15  18
ENDBRANCH   5  15
BRANCH   4  20
ATOM     20  O4  NGT d   1      -4.201  -3.455 -28.729  0.00  0.00    -0.390 OA
ATOM     21  H   NGT d   1      -3.988  -2.530 -28.872  0.00  0.00     0.210 HD
ENDBRANCH   4  20
BRANCH   3  22
ATOM     22  O3  NGT d   1      -3.848  -1.707 -26.577  0.00  0.00    -0.391 OA
ATOM     23  H   NGT d   1      -2.899  -1.584 -26.648  0.00  0.00     0.210 HD
ENDBRANCH   3  22
BRANCH   6  24
ATOM     24  C8  NGT d   1      -6.431  -3.644 -22.435  0.00  0.00    -0.030 C 
ATOM     25  H   NGT d   1      -5.914  -3.452 -21.495  0.00  0.00     0.036 H 
ATOM     26  H   NGT d   1      -7.010  -2.765 -22.719  0.00  0.00     0.036 H 
ATOM     27  H   NGT d   1      -7.098  -4.497 -22.316  0.00  0.00     0.036 H 
ENDBRANCH   6  24
TORSDOF 5
