REMARK  5 active torsions:
REMARK  status: ('A' for Active; 'I' for Inactive)
REMARK    1  A    between atoms: C1_1  and  O1_2 
REMARK    2  A    between atoms: C1_1  and  C2_3 
REMARK    3  A    between atoms: C2_3  and  O2_4 
REMARK    4  A    between atoms: C2_3  and  C3_5 
REMARK    5  A    between atoms: C3_5  and  O3_6 
ROOT
ATOM      1  C2  NON d   1      34.127  -8.653  17.460  0.00  0.00     0.076 C 
ATOM      2  H4  NON d   1      33.660  -7.667  17.598  0.00  0.00     0.089 H 
ENDROOT
BRANCH   1   3
ATOM      3  C1  NON d   1      33.676  -9.603  18.561  0.00  0.00     0.042 C 
ATOM      4  H1  NON d   1      34.032 -10.620  18.340  0.00  0.00     0.078 H 
ATOM      5  H2  NON d   1      34.088  -9.272  19.526  0.00  0.00     0.078 H 
BRANCH   3   6
ATOM      6  O1  NON d   1      32.250  -9.597  18.621  0.00  0.00    -0.398 OA
ATOM      7  H3  NON d   1      31.960 -10.188  19.306  0.00  0.00     0.209 HD
ENDBRANCH   3   6
ENDBRANCH   1   3
BRANCH   1   8
ATOM      8  O2  NON d   1      35.540  -8.533  17.500  0.00  0.00    -0.391 OA
ATOM      9  H5  NON d   1      35.826  -7.941  16.814  0.00  0.00     0.210 HD
ENDBRANCH   1   8
BRANCH   1  10
ATOM     10  C3  NON d   1      33.728  -9.238  16.112  0.00  0.00     0.042 C 
ATOM     11  H6  NON d   1      32.634  -9.344  16.072  0.00  0.00     0.078 H 
ATOM     12  H7  NON d   1      34.197 -10.226  15.992  0.00  0.00     0.078 H 
BRANCH  10  13
ATOM     13  O3  NON d   1      34.157  -8.381  15.052  0.00  0.00    -0.398 OA
ATOM     14  H8  NON d   1      35.102  -8.289  15.083  0.00  0.00     0.209 HD
ENDBRANCH  10  13
ENDBRANCH   1  10
TORSDOF 5
