REMARK WARNING: 32 MAX_TORS EXCEEDED!!!
REMARK  58 active torsions:
REMARK  status: ('A' for Active; 'I' for Inactive)
REMARK    1  A    between atoms: N_1  and  CA_2 
REMARK    2  A    between atoms: CA_2  and  C_3 
REMARK    3  A    between atoms: CA_2  and  CB_5 
REMARK       I    between atoms: C_3  and  N_9 
REMARK    4  A    between atoms: CB_5  and  CG_6 
REMARK    5  A    between atoms: CG_6  and  CD1_7 
REMARK    6  A    between atoms: CG_6  and  CD2_8 
REMARK    7  A    between atoms: N_9  and  CA_10 
REMARK    8  A    between atoms: CA_10  and  C_11 
REMARK    9  A    between atoms: CA_10  and  CB_13 
REMARK       I    between atoms: C_11  and  N_16 
REMARK   10  A    between atoms: CB_13  and  CG1_14 
REMARK   11  A    between atoms: CB_13  and  CG2_15 
REMARK   12  A    between atoms: N_16  and  CA_17 
REMARK   13  A    between atoms: CA_17  and  C_18 
REMARK   14  A    between atoms: CA_17  and  CB_20 
REMARK       I    between atoms: C_18  and  N_25 
REMARK   15  A    between atoms: CB_20  and  CG_21 
REMARK   16  A    between atoms: CG_21  and  CD_22 
REMARK   17  A    between atoms: CD_22  and  CE_23 
REMARK   18  A    between atoms: CE_23  and  NZ_24 
REMARK   19  A    between atoms: N_25  and  CA_26 
REMARK   20  A    between atoms: CA_26  and  C_27 
REMARK   21  A    between atoms: CA_26  and  CB_29 
REMARK       I    between atoms: C_27  and  N_31 
REMARK   22  A    between atoms: CB_29  and  OG_30 
REMARK   23  A    between atoms: N_31  and  CA_32 
REMARK   24  A    between atoms: CA_32  and  C_33 
REMARK   25  A    between atoms: CA_32  and  CB_35 
REMARK       I    between atoms: C_33  and  N_40 
REMARK   26  A    between atoms: CB_35  and  CG_36 
REMARK   27  A    between atoms: CG_36  and  CD_37 
REMARK   28  A    between atoms: CD_37  and  CE_38 
REMARK   29  A    between atoms: CE_38  and  NZ_39 
REMARK   30  A    between atoms: N_40  and  CA_41 
REMARK   31  A    between atoms: CA_41  and  C_42 
REMARK   32  A    between atoms: CA_41  and  CB_44 
REMARK       I    between atoms: C_42  and  N_45 
REMARK   33  A    between atoms: N_45  and  CA_46 
REMARK   34  A    between atoms: CA_46  and  C_47 
REMARK   35  A    between atoms: CA_46  and  CB_49 
REMARK       I    between atoms: C_47  and  N_52 
REMARK   36  A    between atoms: CB_49  and  OG1_50 
REMARK   37  A    between atoms: CB_49  and  CG2_51 
REMARK   38  A    between atoms: N_52  and  CA_53 
REMARK   39  A    between atoms: CA_53  and  C_54 
REMARK   40  A    between atoms: CA_53  and  CB_56 
REMARK       I    between atoms: C_54  and  N_60 
REMARK   41  A    between atoms: CB_56  and  CG_57 
REMARK       I    between atoms: CG_57  and  ND2_59 
REMARK   42  A    between atoms: N_60  and  CA_61 
REMARK   43  A    between atoms: CA_61  and  C_62 
REMARK   44  A    between atoms: CA_61  and  CB_64 
REMARK       I    between atoms: C_62  and  N_68 
REMARK   45  A    between atoms: CB_64  and  CG_65 
REMARK   46  A    between atoms: CG_65  and  CD1_66 
REMARK   47  A    between atoms: CG_65  and  CD2_67 
REMARK   48  A    between atoms: N_68  and  CA_69 
REMARK   49  A    between atoms: CA_69  and  C_70 
REMARK   50  A    between atoms: CA_69  and  CB_72 
REMARK       I    between atoms: C_70  and  N_76 
REMARK   51  A    between atoms: CB_72  and  CG_73 
REMARK   52  A    between atoms: CG_73  and  CD1_74 
REMARK   53  A    between atoms: CG_73  and  CD2_75 
REMARK   54  A    between atoms: N_76  and  CA_77 
REMARK   55  A    between atoms: CA_77  and  C_78 
REMARK   56  A    between atoms: CA_77  and  CB_80 
REMARK   57  A    between atoms: CB_80  and  CG_81 
REMARK   58  A    between atoms: CZ_86  and  OH_87 
ROOT
ATOM      1  CA  ALA d   1      13.966  11.395  16.546  0.00  0.00     0.086 C 
ATOM      2  H55 ALA d   1      14.998  11.016  16.562  0.00  0.00     0.086 H 
ENDROOT
BRANCH   1   3
ATOM      3  N   ALA d   1      13.360  11.029  15.269  0.00  0.00    -0.346 N 
ATOM      4  C   LYS d   1      13.320   9.778  14.822  0.00  0.00     0.241 C 
ATOM      5  O   LYS d   1      13.902   8.834  15.360  0.00  0.00    -0.271 OA
ATOM      6  H54 ALA d   1      12.957  11.751  14.706  0.00  0.00     0.163 HD
BRANCH   4   7
ATOM      7  CA  LYS d   1      12.522   9.567  13.550  0.00  0.00     0.089 C 
ATOM      8  H42 LYS d   1      12.445  10.525  13.014  0.00  0.00     0.087 H 
BRANCH   7   9
ATOM      9  N   LYS d   1      13.229   8.615  12.705  0.00  0.00    -0.346 N 
ATOM     10  C   SER d   1      14.393   8.920  12.138  0.00  0.00     0.243 C 
ATOM     11  O   SER d   1      14.913  10.036  12.217  0.00  0.00    -0.271 OA
ATOM     12  H41 LYS d   1      12.831   7.712  12.547  0.00  0.00     0.163 HD
BRANCH  10  13
ATOM     13  CA  SER d   1      15.065   7.811  11.339  0.00  0.00     0.109 C 
ATOM     14  H37 SER d   1      14.278   7.215  10.853  0.00  0.00     0.090 H 
BRANCH  13  15
ATOM     15  N   SER d   1      15.911   8.383  10.290  0.00  0.00    -0.344 N 
ATOM     16  C   LYS d   1      15.387   8.902   9.177  0.00  0.00     0.241 C 
ATOM     17  O   LYS d   1      14.177   8.915   8.947  0.00  0.00    -0.271 OA
ATOM     18  H36 SER d   1      16.904   8.385  10.410  0.00  0.00     0.163 HD
BRANCH  16  19
ATOM     19  CA  LYS d   1      16.368   9.497   8.171  0.00  0.00     0.089 C 
ATOM     20  H24 LYS d   1      17.355   9.041   8.334  0.00  0.00     0.087 H 
BRANCH  19  21
ATOM     21  N   LYS d   1      15.937   9.206   6.808  0.00  0.00    -0.346 N 
ATOM     22  C   VAL d   1      16.082   8.000   6.263  0.00  0.00     0.241 C 
ATOM     23  O   VAL d   1      16.618   7.046   6.845  0.00  0.00    -0.271 OA
ATOM     24  H23 LYS d   1      15.520   9.935   6.266  0.00  0.00     0.163 HD
BRANCH  22  25
ATOM     25  CA  VAL d   1      15.529   7.856   4.848  0.00  0.00     0.092 C 
ATOM     26  H15 VAL d   1      15.146   8.840   4.540  0.00  0.00     0.088 H 
BRANCH  25  27
ATOM     27  N   VAL d   1      16.589   7.485   3.899  0.00  0.00    -0.346 N 
ATOM     28  C   LEU d   1      17.150   8.372   3.081  0.00  0.00     0.249 C 
ATOM     29  O   LEU d   1      16.839   9.570   3.050  0.00  0.00    -0.271 OA
ATOM     30  H14 VAL d   1      16.899   6.535   3.867  0.00  0.00     0.163 HD
BRANCH  28  31
ATOM     31  CA  LEU d   1      18.218   7.827   2.126  0.00  0.00     0.176 C 
ATOM     32  H4  LEU d   1      17.820   6.950   1.595  0.00  0.00     0.099 H 
BRANCH  31  33
ATOM     33  N   LEU d   1      18.567   8.887   1.132  0.00  0.00    -0.066 N 
ATOM     34  H1  LEU d   1      19.269   8.536   0.500  0.00  0.00     0.275 HD
ATOM     35  H2  LEU d   1      18.924   9.696   1.615  0.00  0.00     0.275 HD
ATOM     36  H3  LEU d   1      17.743   9.143   0.611  0.00  0.00     0.275 HD
ENDBRANCH  31  33
BRANCH  31  37
ATOM     37  CB  LEU d   1      19.456   7.410   2.926  0.00  0.00    -0.028 C 
ATOM     38  H5  LEU d   1      19.168   6.580   3.588  0.00  0.00     0.037 H 
ATOM     39  H6  LEU d   1      19.773   8.271   3.533  0.00  0.00     0.037 H 
BRANCH  37  40
ATOM     40  CG  LEU d   1      20.651   6.955   2.093  0.00  0.00    -0.059 C 
ATOM     41  H7  LEU d   1      20.894   7.758   1.381  0.00  0.00     0.038 H 
BRANCH  40  42
ATOM     42  CD1 LEU d   1      21.873   6.729   2.966  0.00  0.00    -0.073 C 
ATOM     43  H8  LEU d   1      22.716   6.403   2.339  0.00  0.00     0.028 H 
ATOM     44  H9  LEU d   1      21.651   5.954   3.714  0.00  0.00     0.028 H 
ATOM     45  H10 LEU d   1      22.137   7.667   3.477  0.00  0.00     0.028 H 
ENDBRANCH  40  42
BRANCH  40  46
ATOM     46  CD2 LEU d   1      20.288   5.702   1.283  0.00  0.00    -0.073 C 
ATOM     47  H11 LEU d   1      19.401   5.908   0.667  0.00  0.00     0.028 H 
ATOM     48  H12 LEU d   1      20.072   4.871   1.970  0.00  0.00     0.028 H 
ATOM     49  H13 LEU d   1      21.131   5.429   0.632  0.00  0.00     0.028 H 
ENDBRANCH  40  46
ENDBRANCH  37  40
ENDBRANCH  31  37
ENDBRANCH  28  31
ENDBRANCH  25  27
BRANCH  25  50
ATOM     50  CB  VAL d   1      14.330   6.863   4.816  0.00  0.00    -0.033 C 
ATOM     51  H16 VAL d   1      14.704   5.863   5.082  0.00  0.00     0.042 H 
BRANCH  50  52
ATOM     52  CG1 VAL d   1      13.248   7.261   5.834  0.00  0.00    -0.071 C 
ATOM     53  H17 VAL d   1      12.417   6.542   5.786  0.00  0.00     0.028 H 
ATOM     54  H18 VAL d   1      12.875   8.268   5.597  0.00  0.00     0.028 H 
ATOM     55  H19 VAL d   1      13.678   7.258   6.846  0.00  0.00     0.028 H 
ENDBRANCH  50  52
BRANCH  50  56
ATOM     56  CG2 VAL d   1      13.735   6.798   3.421  0.00  0.00    -0.071 C 
ATOM     57  H20 VAL d   1      14.517   6.513   2.702  0.00  0.00     0.028 H 
ATOM     58  H21 VAL d   1      13.329   7.784   3.149  0.00  0.00     0.028 H 
ATOM     59  H22 VAL d   1      12.928   6.051   3.401  0.00  0.00     0.028 H 
ENDBRANCH  50  56
ENDBRANCH  25  50
ENDBRANCH  22  25
ENDBRANCH  19  21
BRANCH  19  60
ATOM     60  CB  LYS d   1      16.491  11.008   8.360  0.00  0.00    -0.038 C 
ATOM     61  H25 LYS d   1      15.482  11.443   8.316  0.00  0.00     0.036 H 
ATOM     62  H26 LYS d   1      17.100  11.409   7.536  0.00  0.00     0.036 H 
BRANCH  60  63
ATOM     63  CG  LYS d   1      17.132  11.428   9.672  0.00  0.00    -0.061 C 
ATOM     64  H27 LYS d   1      18.052  10.845   9.826  0.00  0.00     0.033 H 
ATOM     65  H28 LYS d   1      16.430  11.230  10.495  0.00  0.00     0.033 H 
BRANCH  63  66
ATOM     66  CD  LYS d   1      17.476  12.904   9.658  0.00  0.00    -0.043 C 
ATOM     67  H29 LYS d   1      16.647  13.463   9.199  0.00  0.00     0.035 H 
ATOM     68  H30 LYS d   1      18.392  13.055   9.068  0.00  0.00     0.035 H 
BRANCH  66  69
ATOM     69  CE  LYS d   1      17.703  13.419  11.072  0.00  0.00     0.080 C 
ATOM     70  H31 LYS d   1      18.390  12.735  11.592  0.00  0.00     0.075 H 
ATOM     71  H32 LYS d   1      16.738  13.441  11.600  0.00  0.00     0.075 H 
BRANCH  69  72
ATOM     72  NZ  LYS d   1      18.287  14.787  11.086  0.00  0.00    -0.079 N 
ATOM     73  H33 LYS d   1      18.419  15.086  12.040  0.00  0.00     0.274 HD
ATOM     74  H34 LYS d   1      17.662  15.424  10.618  0.00  0.00     0.274 HD
ATOM     75  H35 LYS d   1      19.176  14.778  10.610  0.00  0.00     0.274 HD
ENDBRANCH  69  72
ENDBRANCH  66  69
ENDBRANCH  63  66
ENDBRANCH  60  63
ENDBRANCH  19  60
ENDBRANCH  16  19
ENDBRANCH  13  15
BRANCH  13  76
ATOM     76  CB  SER d   1      15.860   6.877  12.261  0.00  0.00     0.044 C 
ATOM     77  H38 SER d   1      16.548   6.277  11.648  0.00  0.00     0.077 H 
ATOM     78  H39 SER d   1      15.156   6.211  12.781  0.00  0.00     0.077 H 
BRANCH  76  79
ATOM     79  OG  SER d   1      16.616   7.588  13.231  0.00  0.00    -0.398 OA
ATOM     80  H40 SER d   1      17.233   8.162  12.792  0.00  0.00     0.209 HD
ENDBRANCH  76  79
ENDBRANCH  13  76
ENDBRANCH  10  13
ENDBRANCH   7   9
BRANCH   7  81
ATOM     81  CB  LYS d   1      11.103   9.082  13.880  0.00  0.00    -0.038 C 
ATOM     82  H43 LYS d   1      11.178   8.141  14.445  0.00  0.00     0.036 H 
ATOM     83  H44 LYS d   1      10.568   8.901  12.936  0.00  0.00     0.036 H 
BRANCH  81  84
ATOM     84  CG  LYS d   1      10.291  10.092  14.717  0.00  0.00    -0.061 C 
ATOM     85  H45 LYS d   1      10.734  11.091  14.594  0.00  0.00     0.033 H 
ATOM     86  H46 LYS d   1      10.341   9.796  15.775  0.00  0.00     0.033 H 
BRANCH  84  87
ATOM     87  CD  LYS d   1       8.815  10.149  14.288  0.00  0.00    -0.043 C 
ATOM     88  H47 LYS d   1       8.364   9.154  14.421  0.00  0.00     0.035 H 
ATOM     89  H48 LYS d   1       8.761  10.438  13.228  0.00  0.00     0.035 H 
BRANCH  87  90
ATOM     90  CE  LYS d   1       8.030  11.171  15.127  0.00  0.00     0.080 C 
ATOM     91  H49 LYS d   1       8.488  12.165  15.018  0.00  0.00     0.075 H 
ATOM     92  H50 LYS d   1       8.051  10.871  16.185  0.00  0.00     0.075 H 
BRANCH  90  93
ATOM     93  NZ  LYS d   1       6.531  11.222  14.622  0.00  0.00    -0.079 N 
ATOM     94  H51 LYS d   1       6.014  11.891  15.171  0.00  0.00     0.274 HD
ATOM     95  H52 LYS d   1       6.112  10.311  14.722  0.00  0.00     0.274 HD
ATOM     96  H53 LYS d   1       6.512  11.496  13.652  0.00  0.00     0.274 HD
ENDBRANCH  90  93
ENDBRANCH  87  90
ENDBRANCH  84  87
ENDBRANCH  81  84
ENDBRANCH   7  81
ENDBRANCH   4   7
ENDBRANCH   1   3
BRANCH   1  97
ATOM     97  C   ALA d   1      13.205  10.765  17.716  0.00  0.00     0.240 C 
ATOM     98  O   ALA d   1      12.000  10.502  17.615  0.00  0.00    -0.271 OA
ATOM     99  N   THR d   1      13.918  10.511  18.813  0.00  0.00    -0.344 N 
ATOM    100  H59 THR d   1      14.902  10.687  18.803  0.00  0.00     0.163 HD
BRANCH  99 101
ATOM    101  CA  THR d   1      13.304   9.982  20.031  0.00  0.00     0.113 C 
ATOM    102  H60 THR d   1      12.380   9.463  19.735  0.00  0.00     0.091 H 
BRANCH 101 103
ATOM    103  C   THR d   1      12.916  11.113  20.989  0.00  0.00     0.243 C 
ATOM    104  O   THR d   1      13.747  11.962  21.316  0.00  0.00    -0.271 OA
ATOM    105  N   ASN d   1      11.646  11.121  21.404  0.00  0.00    -0.345 N 
ATOM    106  H66 ASN d   1      11.015  10.456  21.004  0.00  0.00     0.163 HD
BRANCH 105 107
ATOM    107  CA  ASN d   1      11.121  12.058  22.422  0.00  0.00     0.097 C 
ATOM    108  H67 ASN d   1      11.925  12.194  23.161  0.00  0.00     0.088 H 
BRANCH 107 109
ATOM    109  C   ASN d   1       9.898  11.538  23.193  0.00  0.00     0.241 C 
ATOM    110  O   ASN d   1       8.938  11.048  22.588  0.00  0.00    -0.271 OA
ATOM    111  N   LEU d   1       9.943  11.650  24.522  0.00  0.00    -0.346 N 
ATOM    112  H72 LEU d   1      10.771  12.019  24.944  0.00  0.00     0.163 HD
BRANCH 111 113
ATOM    113  CA  LEU d   1       8.826  11.253  25.391  0.00  0.00     0.089 C 
ATOM    114  H73 LEU d   1       7.894  11.306  24.810  0.00  0.00     0.087 H 
BRANCH 113 115
ATOM    115  C   LEU d   1       8.720  12.209  26.573  0.00  0.00     0.241 C 
ATOM    116  O   LEU d   1       9.438  12.052  27.566  0.00  0.00    -0.271 OA
ATOM    117  N   LEU d   1       7.807  13.179  26.468  0.00  0.00    -0.346 N 
ATOM    118  H83 LEU d   1       7.136  13.129  25.728  0.00  0.00     0.163 HD
BRANCH 117 119
ATOM    119  CA  LEU d   1       7.750  14.312  27.394  0.00  0.00     0.089 C 
ATOM    120  H84 LEU d   1       7.102  15.099  26.981  0.00  0.00     0.087 H 
BRANCH 119 121
ATOM    121  C   LEU d   1       9.178  14.836  27.515  0.00  0.00     0.241 C 
ATOM    122  O   LEU d   1       9.712  14.961  28.610  0.00  0.00    -0.271 OA
ATOM    123  N   TYR d   1       9.789  15.122  26.365  0.00  0.00    -0.348 N 
ATOM    124  H94 TYR d   1       9.233  15.230  25.541  0.00  0.00     0.163 HD
BRANCH 123 125
ATOM    125  CA  TYR d   1      11.249  15.286  26.257  0.00  0.00     0.066 C 
ATOM    126  H95 TYR d   1      11.460  15.660  25.244  0.00  0.00     0.084 H 
BRANCH 125 127
ATOM    127  C   TYR d   1      12.004  13.960  26.421  0.00  0.00     0.110 C 
ATOM    128  O   TYR d   1      12.963  13.850  27.193  0.00  0.00    -0.305 OA
ATOM    129  H96 TYR d   1      11.687  13.094  25.842  0.00  0.00     0.146 H 
ENDBRANCH 125 127
BRANCH 125 130
ATOM    130  CB  TYR d   1      11.763  16.325  27.247  0.00  0.00    -0.016 C 
ATOM    131  H97 TYR d   1      12.684  15.937  27.706  0.00  0.00     0.043 H 
ATOM    132  H98 TYR d   1      10.998  16.467  28.025  0.00  0.00     0.043 H 
BRANCH 130 133
ATOM    133  CG  TYR d   1      12.069  17.664  26.638  0.00  0.00    -0.056 A 
ATOM    134  CD1 TYR d   1      11.129  18.329  25.863  0.00  0.00    -0.074 A 
ATOM    135  CE1 TYR d   1      11.405  19.566  25.311  0.00  0.00    -0.051 A 
ATOM    136  H99 TYR d   1      10.162  17.871  25.688  0.00  0.00     0.084 H 
ATOM    137  CZ  TYR d   1      12.622  20.159  25.541  0.00  0.00     0.065 A 
ATOM    138 1H10 TYR d   1      10.663  20.066  24.699  0.00  0.00     0.087 H 
ATOM    139  CE2 TYR d   1      13.573  19.520  26.322  0.00  0.00    -0.051 A 
ATOM    140  CD2 TYR d   1      13.292  18.282  26.868  0.00  0.00    -0.074 A 
ATOM    141 2H10 TYR d   1      14.533  19.990  26.503  0.00  0.00     0.087 H 
ATOM    142 0H10 TYR d   1      14.035  17.787  27.483  0.00  0.00     0.084 H 
BRANCH 137 143
ATOM    143  OH  TYR d   1      12.883  21.399  24.991  0.00  0.00    -0.361 OA
ATOM    144 3H10 TYR d   1      12.129  21.687  24.490  0.00  0.00     0.217 HD
ENDBRANCH 137 143
ENDBRANCH 130 133
ENDBRANCH 125 130
ENDBRANCH 123 125
ENDBRANCH 119 121
BRANCH 119 145
ATOM    145  CB  LEU d   1       7.189  13.875  28.755  0.00  0.00    -0.035 C 
ATOM    146  H85 LEU d   1       7.960  13.236  29.211  0.00  0.00     0.037 H 
ATOM    147  H86 LEU d   1       6.295  13.272  28.537  0.00  0.00     0.037 H 
BRANCH 145 148
ATOM    148  CG  LEU d   1       6.769  14.882  29.845  0.00  0.00    -0.059 C 
ATOM    149  H87 LEU d   1       6.344  14.296  30.674  0.00  0.00     0.038 H 
BRANCH 148 150
ATOM    150  CD1 LEU d   1       7.949  15.663  30.397  0.00  0.00    -0.073 C 
ATOM    151  H88 LEU d   1       7.596  16.364  31.168  0.00  0.00     0.028 H 
ATOM    152  H89 LEU d   1       8.430  16.225  29.583  0.00  0.00     0.028 H 
ATOM    153  H90 LEU d   1       8.675  14.966  30.840  0.00  0.00     0.028 H 
ENDBRANCH 148 150
BRANCH 148 154
ATOM    154  CD2 LEU d   1       5.699  15.839  29.374  0.00  0.00    -0.073 C 
ATOM    155  H91 LEU d   1       4.847  15.269  28.975  0.00  0.00     0.028 H 
ATOM    156  H92 LEU d   1       6.108  16.487  28.585  0.00  0.00     0.028 H 
ATOM    157  H93 LEU d   1       5.363  16.458  30.219  0.00  0.00     0.028 H 
ENDBRANCH 148 154
ENDBRANCH 145 148
ENDBRANCH 119 145
ENDBRANCH 117 119
ENDBRANCH 113 115
BRANCH 113 158
ATOM    158  CB  LEU d   1       9.010   9.811  25.887  0.00  0.00    -0.035 C 
ATOM    159  H74 LEU d   1       9.524   9.880  26.857  0.00  0.00     0.037 H 
ATOM    160  H75 LEU d   1       9.667   9.314  25.158  0.00  0.00     0.037 H 
BRANCH 158 161
ATOM    161  CG  LEU d   1       7.806   8.872  26.099  0.00  0.00    -0.059 C 
ATOM    162  H76 LEU d   1       8.202   7.951  26.552  0.00  0.00     0.038 H 
BRANCH 161 163
ATOM    163  CD1 LEU d   1       6.760   9.428  27.072  0.00  0.00    -0.073 C 
ATOM    164  H77 LEU d   1       5.934   8.708  27.174  0.00  0.00     0.028 H 
ATOM    165  H78 LEU d   1       6.370  10.381  26.686  0.00  0.00     0.028 H 
ATOM    166  H79 LEU d   1       7.225   9.594  28.055  0.00  0.00     0.028 H 
ENDBRANCH 161 163
BRANCH 161 167
ATOM    167  CD2 LEU d   1       7.157   8.476  24.764  0.00  0.00    -0.073 C 
ATOM    168  H80 LEU d   1       7.927   8.081  24.085  0.00  0.00     0.028 H 
ATOM    169  H81 LEU d   1       6.685   9.360  24.309  0.00  0.00     0.028 H 
ATOM    170  H82 LEU d   1       6.394   7.704  24.942  0.00  0.00     0.028 H 
ENDBRANCH 161 167
ENDBRANCH 158 161
ENDBRANCH 113 158
ENDBRANCH 111 113
ENDBRANCH 107 109
BRANCH 107 171
ATOM    171  CB  ASN d   1      10.817  13.446  21.820  0.00  0.00     0.036 C 
ATOM    172  H68 ASN d   1      11.767  13.983  21.683  0.00  0.00     0.051 H 
ATOM    173  H69 ASN d   1      10.181  14.001  22.526  0.00  0.00     0.051 H 
BRANCH 171 174
ATOM    174  CG  ASN d   1      10.099  13.377  20.471  0.00  0.00     0.217 C 
ATOM    175  OD1 ASN d   1      10.571  13.944  19.487  0.00  0.00    -0.274 OA
ATOM    176  ND2 ASN d   1       8.955  12.697  20.424  0.00  0.00    -0.370 N 
ATOM    177  H70 ASN d   1       8.451  12.625  19.563  0.00  0.00     0.159 HD
ATOM    178  H71 ASN d   1       8.600  12.258  21.249  0.00  0.00     0.159 HD
ENDBRANCH 171 174
ENDBRANCH 107 171
ENDBRANCH 105 107
ENDBRANCH 101 103
BRANCH 101 179
ATOM    179  CB  THR d   1      14.221   8.935  20.749  0.00  0.00     0.060 C 
ATOM    180  H61 THR d   1      14.301   8.047  20.105  0.00  0.00     0.086 H 
BRANCH 179 181
ATOM    181  OG1 THR d   1      13.639   8.548  22.002  0.00  0.00    -0.393 OA
ATOM    182  H62 THR d   1      13.546   9.314  22.556  0.00  0.00     0.210 HD
ENDBRANCH 179 181
BRANCH 179 183
ATOM    183  CG2 THR d   1      15.633   9.486  20.997  0.00  0.00    -0.050 C 
ATOM    184  H63 THR d   1      16.242   8.721  21.501  0.00  0.00     0.031 H 
ATOM    185  H64 THR d   1      15.571  10.382  21.632  0.00  0.00     0.031 H 
ATOM    186  H65 THR d   1      16.098   9.749  20.035  0.00  0.00     0.031 H 
ENDBRANCH 179 183
ENDBRANCH 101 179
ENDBRANCH  99 101
ENDBRANCH   1  97
BRANCH   1 187
ATOM    187  CB  ALA d   1      14.006  12.910  16.687  0.00  0.00    -0.049 C 
ATOM    188  H56 ALA d   1      14.464  13.177  17.651  0.00  0.00     0.030 H 
ATOM    189  H57 ALA d   1      12.982  13.309  16.644  0.00  0.00     0.030 H 
ATOM    190  H58 ALA d   1      14.601  13.339  15.867  0.00  0.00     0.030 H 
ENDBRANCH   1 187
TORSDOF 58
