REMARK  3 active torsions:
REMARK  status: ('A' for Active; 'I' for Inactive)
REMARK    1  A    between atoms: C8_1  and  C7_4 
REMARK    2  A    between atoms: C7_4  and  C1_5 
REMARK    3  A    between atoms: C3_7  and  O3_11 
ROOT
ATOM      1  C1  A29 d   1      20.036  25.750  28.451  0.00  0.00     0.024 A 
ATOM      2  C2  A29 d   1      18.941  26.342  29.074  0.00  0.00    -0.037 A 
ATOM      3  C3  A29 d   1      17.646  25.815  28.994  0.00  0.00     0.066 A 
ATOM      4  C4  A29 d   1      17.395  24.655  28.273  0.00  0.00    -0.051 A 
ATOM      5  C5  A29 d   1      18.471  24.042  27.625  0.00  0.00    -0.079 A 
ATOM      6  C6  A29 d   1      19.779  24.589  27.711  0.00  0.00    -0.069 A 
ATOM      7  H1  A29 d   1      19.097  27.250  29.645  0.00  0.00     0.089 H 
ATOM      8  H2  A29 d   1      16.396  24.238  28.215  0.00  0.00     0.087 H 
ATOM      9  H3  A29 d   1      18.305  23.138  27.050  0.00  0.00     0.083 H 
ATOM     10  H4  A29 d   1      20.595  24.098  27.193  0.00  0.00     0.085 H 
ENDROOT
BRANCH   1  11
ATOM     11  C7  A29 d   1      21.389  26.454  28.555  0.00  0.00     0.258 C 
ATOM     12  O7  A29 d   1      21.437  27.451  29.266  0.00  0.00    -0.280 OA
BRANCH  11  13
ATOM     13  C8  A29 d   1      22.684  26.061  27.796  0.00  0.00     0.252 C 
ATOM     14  O1  A29 d   1      22.677  25.067  27.047  0.00  0.00    -0.642 OA
ATOM     15  O2  A29 d   1      23.717  26.810  27.899  0.00  0.00    -0.642 OA
ENDBRANCH  11  13
ENDBRANCH   1  11
BRANCH   3  16
ATOM     16  O3  A29 d   1      16.620  26.446  29.650  0.00  0.00    -0.361 OA
ATOM     17  H5  A29 d   1      16.955  27.218  30.091  0.00  0.00     0.217 HD
ENDBRANCH   3  16
TORSDOF 3
