REMARK  3 active torsions:
REMARK  status: ('A' for Active; 'I' for Inactive)
REMARK    1  A    between atoms: C3_1  and  O3_2 
REMARK    2  A    between atoms: C1_4  and  C_5 
REMARK       I    between atoms: C_5  and  N_7 
REMARK    3  A    between atoms: N_7  and  O2_11 
ROOT
ATOM      1  C3  069 d   1      17.074  25.774  29.133  0.00  0.00     0.066 A 
ATOM      2  C2  069 d   1      18.368  26.249  29.272  0.00  0.00    -0.036 A 
ATOM      3  C1  069 d   1      19.406  25.708  28.533  0.00  0.00     0.036 A 
ATOM      4  C6  069 d   1      19.101  24.639  27.655  0.00  0.00    -0.068 A 
ATOM      5  C5  069 d   1      17.792  24.145  27.538  0.00  0.00    -0.079 A 
ATOM      6  C4  069 d   1      16.748  24.727  28.284  0.00  0.00    -0.051 A 
ATOM      7  H2  069 d   1      18.570  27.055  29.968  0.00  0.00     0.089 H 
ATOM      8  H4  069 d   1      19.893  24.194  27.063  0.00  0.00     0.085 H 
ATOM      9  H5  069 d   1      17.584  23.315  26.873  0.00  0.00     0.083 H 
ATOM     10  H6  069 d   1      15.728  24.370  28.198  0.00  0.00     0.087 H 
ENDROOT
BRANCH   3  11
ATOM     11  C   069 d   1      20.840  26.327  28.671  0.00  0.00     0.275 C 
ATOM     12  O   069 d   1      21.073  27.261  29.469  0.00  0.00    -0.265 OA
ATOM     13  N   069 d   1      21.739  25.845  27.804  0.00  0.00    -0.233 N 
ATOM     14  H3  069 d   1      21.462  25.114  27.180  0.00  0.00     0.197 HD
BRANCH  13  15
ATOM     15  O2  069 d   1      23.034  26.319  27.739  0.00  0.00    -0.287 OA
ATOM     16  H7  069 d   1      23.021  27.246  27.532  0.00  0.00     0.244 HD
ENDBRANCH  13  15
ENDBRANCH   3  11
BRANCH   1  17
ATOM     17  O3  069 d   1      16.109  26.383  29.861  0.00  0.00    -0.361 OA
ATOM     18  H1  069 d   1      15.271  25.972  29.681  0.00  0.00     0.217 HD
ENDBRANCH   1  17
TORSDOF 3
