REMARK WARNING: 32 MAX_TORS EXCEEDED!!!
REMARK  48 active torsions:
REMARK  status: ('A' for Active; 'I' for Inactive)
REMARK    1  A    between atoms: N_1  and  CA_2 
REMARK    2  A    between atoms: CA_2  and  C_3 
REMARK    3  A    between atoms: CA_2  and  CB_5 
REMARK       I    between atoms: C_3  and  N_12 
REMARK    4  A    between atoms: CB_5  and  CG_6 
REMARK    5  A    between atoms: N_12  and  CA_13 
REMARK    6  A    between atoms: CA_13  and  C_14 
REMARK    7  A    between atoms: CA_13  and  CB_16 
REMARK       I    between atoms: C_14  and  N_23 
REMARK    8  A    between atoms: CB_16  and  CG_17 
REMARK    9  A    between atoms: CG_17  and  CD_18 
REMARK   10  A    between atoms: CD_18  and  NE_19 
REMARK       I    between atoms: NE_19  and  CZ_20 
REMARK       I    between atoms: CZ_20  and  NH1_21 
REMARK   11  A    between atoms: N_23  and  CA_24 
REMARK   12  A    between atoms: CA_24  and  C_25 
REMARK   13  A    between atoms: CA_24  and  CB_27 
REMARK       I    between atoms: C_25  and  N_29 
REMARK   14  A    between atoms: CB_27  and  OG_28 
REMARK   15  A    between atoms: N_29  and  CA_30 
REMARK   16  A    between atoms: CA_30  and  C_31 
REMARK   17  A    between atoms: CA_30  and  CB_33 
REMARK       I    between atoms: C_31  and  N_38 
REMARK   18  A    between atoms: CB_33  and  CG_34 
REMARK   19  A    between atoms: CG_34  and  CD_35 
REMARK   20  A    between atoms: CD_35  and  CE_36 
REMARK   21  A    between atoms: CE_36  and  NZ_37 
REMARK   22  A    between atoms: N_38  and  CA_39 
REMARK   23  A    between atoms: CA_39  and  C_40 
REMARK       I    between atoms: C_40  and  N_42 
REMARK   24  A    between atoms: N_42  and  CA_43 
REMARK   25  A    between atoms: CA_43  and  C_44 
REMARK   26  A    between atoms: CA_43  and  CB_46 
REMARK       I    between atoms: C_44  and  N_51 
REMARK   27  A    between atoms: CB_46  and  CG_47 
REMARK   28  A    between atoms: CG_47  and  CD_48 
REMARK   29  A    between atoms: N_51  and  CA_52 
REMARK   30  A    between atoms: CA_52  and  C_53 
REMARK   31  A    between atoms: CA_52  and  CB_55 
REMARK       I    between atoms: C_53  and  N_60 
REMARK   32  A    between atoms: CB_55  and  CG_56 
REMARK   33  A    between atoms: CG_56  and  CD_57 
REMARK   34  A    between atoms: N_60  and  CA_61 
REMARK   35  A    between atoms: CA_61  and  C_62 
REMARK   36  A    between atoms: CA_61  and  CB_64 
REMARK       I    between atoms: C_62  and  N_68 
REMARK   37  A    between atoms: CB_64  and  CG_65 
REMARK   38  A    between atoms: CG_65  and  CD1_66 
REMARK   39  A    between atoms: CG_65  and  CD2_67 
REMARK   40  A    between atoms: N_68  and  CA_69 
REMARK   41  A    between atoms: CA_69  and  C_70 
REMARK   42  A    between atoms: CA_69  and  CB_72 
REMARK       I    between atoms: C_70  and  N_79 
REMARK   43  A    between atoms: CB_72  and  CG_73 
REMARK   44  A    between atoms: N_79  and  CA_80 
REMARK   45  A    between atoms: CA_80  and  C_81 
REMARK   46  A    between atoms: CA_80  and  CB_83 
REMARK   47  A    between atoms: CB_83  and  OG1_84 
REMARK   48  A    between atoms: CB_83  and  CG2_85 
ROOT
ATOM      1  C   GLY d   1       9.921  19.547  32.754  0.00  0.00     0.236 C 
ATOM      2  O   GLY d   1       9.226  18.739  32.129  0.00  0.00    -0.272 OA
ATOM      3  N   GLU d   1      11.196  19.314  33.053  0.00  0.00    -0.346 N 
ATOM      4  H46 GLU d   1      11.718  20.009  33.548  0.00  0.00     0.163 HD
ENDROOT
BRANCH   1   5
ATOM      5  CA  GLY d   1       9.342  20.876  33.214  0.00  0.00     0.069 C 
ATOM      6  H44 GLY d   1       8.348  20.699  33.651  0.00  0.00     0.078 H 
ATOM      7  H45 GLY d   1      10.006  21.309  33.976  0.00  0.00     0.078 H 
BRANCH   5   8
ATOM      8  N   GLY d   1       9.212  21.816  32.114  0.00  0.00    -0.351 N 
ATOM      9  C   LYS d   1       8.456  21.565  31.045  0.00  0.00     0.240 C 
ATOM     10  O   LYS d   1       7.678  20.615  30.971  0.00  0.00    -0.271 OA
ATOM     11  H43 GLY d   1       9.708  22.683  32.160  0.00  0.00     0.163 HD
BRANCH   9  12
ATOM     12  CA  LYS d   1       8.600  22.547  29.893  0.00  0.00     0.089 C 
ATOM     13  H31 LYS d   1       7.769  23.267  29.919  0.00  0.00     0.087 H 
BRANCH  12  14
ATOM     14  N   LYS d   1       9.857  23.245  30.064  0.00  0.00    -0.346 N 
ATOM     15  C   SER d   1       9.895  24.566  30.125  0.00  0.00     0.243 C 
ATOM     16  O   SER d   1       8.899  25.277  29.970  0.00  0.00    -0.271 OA
ATOM     17  H30 LYS d   1      10.706  22.722  30.137  0.00  0.00     0.163 HD
BRANCH  15  18
ATOM     18  CA  SER d   1      11.249  25.176  30.397  0.00  0.00     0.109 C 
ATOM     19  H26 SER d   1      12.018  24.658  29.805  0.00  0.00     0.090 H 
BRANCH  18  20
ATOM     20  N   SER d   1      11.202  26.586  30.006  0.00  0.00    -0.344 N 
ATOM     21  C   ARG d   1      11.548  26.968  28.781  0.00  0.00     0.241 C 
ATOM     22  O   ARG d   1      12.030  26.188  27.953  0.00  0.00    -0.271 OA
ATOM     23  H25 SER d   1      10.905  27.272  30.671  0.00  0.00     0.163 HD
BRANCH  21  24
ATOM     24  CA  ARG d   1      11.353  28.454  28.445  0.00  0.00     0.089 C 
ATOM     25  H13 ARG d   1      11.109  28.999  29.369  0.00  0.00     0.087 H 
BRANCH  24  26
ATOM     26  N   ARG d   1      12.582  28.991  27.886  0.00  0.00    -0.346 N 
ATOM     27  C   PHE d   1      13.309  29.875  28.553  0.00  0.00     0.249 C 
ATOM     28  O   PHE d   1      13.065  30.211  29.702  0.00  0.00    -0.271 OA
ATOM     29  H12 ARG d   1      12.884  28.688  26.982  0.00  0.00     0.163 HD
BRANCH  27  30
ATOM     30  CA  PHE d   1      14.491  30.440  27.797  0.00  0.00     0.179 C 
ATOM     31  H4  PHE d   1      14.099  30.903  26.880  0.00  0.00     0.099 H 
BRANCH  30  32
ATOM     32  N   PHE d   1      15.219  31.475  28.525  0.00  0.00    -0.066 N 
ATOM     33  H1  PHE d   1      15.989  31.803  27.963  0.00  0.00     0.275 HD
ATOM     34  H2  PHE d   1      15.572  31.093  29.388  0.00  0.00     0.275 HD
ATOM     35  H3  PHE d   1      14.599  32.244  28.726  0.00  0.00     0.275 HD
ENDBRANCH  30  32
BRANCH  30  36
ATOM     36  CB  PHE d   1      15.436  29.315  27.388  0.00  0.00    -0.006 C 
ATOM     37  H5  PHE d   1      14.883  28.605  26.756  0.00  0.00     0.043 H 
ATOM     38  H6  PHE d   1      15.784  28.802  28.297  0.00  0.00     0.043 H 
BRANCH  36  39
ATOM     39  CG  PHE d   1      16.633  29.800  26.626  0.00  0.00    -0.056 A 
ATOM     40  CD1 PHE d   1      16.489  30.317  25.352  0.00  0.00    -0.077 A 
ATOM     41  CE1 PHE d   1      17.602  30.775  24.636  0.00  0.00    -0.082 A 
ATOM     42  H7  PHE d   1      15.504  30.368  24.902  0.00  0.00     0.084 H 
ATOM     43  CZ  PHE d   1      18.859  30.705  25.190  0.00  0.00    -0.083 A 
ATOM     44  H9  PHE d   1      17.472  31.186  23.641  0.00  0.00     0.083 H 
ATOM     45  CE2 PHE d   1      19.003  30.203  26.493  0.00  0.00    -0.082 A 
ATOM     46  H11 PHE d   1      19.726  31.033  24.628  0.00  0.00     0.083 H 
ATOM     47  CD2 PHE d   1      17.899  29.764  27.193  0.00  0.00    -0.077 A 
ATOM     48  H10 PHE d   1      19.985  30.160  26.950  0.00  0.00     0.083 H 
ATOM     49  H8  PHE d   1      18.022  29.385  28.201  0.00  0.00     0.084 H 
ENDBRANCH  36  39
ENDBRANCH  30  36
ENDBRANCH  27  30
ENDBRANCH  24  26
BRANCH  24  50
ATOM     50  CB  ARG d   1      10.213  28.640  27.445  0.00  0.00    -0.036 C 
ATOM     51  H14 ARG d   1      10.644  28.688  26.434  0.00  0.00     0.036 H 
ATOM     52  H15 ARG d   1       9.704  29.588  27.672  0.00  0.00     0.036 H 
BRANCH  50  53
ATOM     53  CG  ARG d   1       9.179  27.524  27.472  0.00  0.00    -0.048 C 
ATOM     54  H16 ARG d   1       8.637  27.558  28.429  0.00  0.00     0.035 H 
ATOM     55  H17 ARG d   1       9.692  26.556  27.376  0.00  0.00     0.035 H 
BRANCH  53  56
ATOM     56  CD  ARG d   1       8.193  27.674  26.342  0.00  0.00     0.009 C 
ATOM     57  H18 ARG d   1       8.627  27.242  25.428  0.00  0.00     0.064 H 
ATOM     58  H19 ARG d   1       7.992  28.744  26.182  0.00  0.00     0.064 H 
BRANCH  56  59
ATOM     59  NE  ARG d   1       6.938  26.994  26.638  0.00  0.00    -0.227 N 
ATOM     60  CZ  ARG d   1       6.670  25.731  26.322  0.00  0.00     0.665 C 
ATOM     61  NH1 ARG d   1       7.573  24.988  25.689  0.00  0.00    -0.235 N 
ATOM     62  NH2 ARG d   1       5.490  25.214  26.641  0.00  0.00    -0.235 N 
ATOM     63  H21 ARG d   1       7.358  24.010  25.448  0.00  0.00     0.174 HD
ATOM     64  H22 ARG d   1       8.488  25.390  25.440  0.00  0.00     0.174 HD
ATOM     65  H23 ARG d   1       4.791  25.790  27.131  0.00  0.00     0.174 HD
ATOM     66  H24 ARG d   1       5.273  24.237  26.398  0.00  0.00     0.174 HD
ATOM     67  H20 ARG d   1       6.207  27.530  27.127  0.00  0.00     0.177 HD
ENDBRANCH  56  59
ENDBRANCH  53  56
ENDBRANCH  50  53
ENDBRANCH  24  50
ENDBRANCH  21  24
ENDBRANCH  18  20
BRANCH  18  68
ATOM     68  CB  SER d   1      11.568  25.024  31.875  0.00  0.00     0.044 C 
ATOM     69  H27 SER d   1      12.595  25.370  32.063  0.00  0.00     0.077 H 
ATOM     70  H28 SER d   1      11.480  23.965  32.160  0.00  0.00     0.077 H 
BRANCH  68  71
ATOM     71  OG  SER d   1      10.666  25.793  32.646  0.00  0.00    -0.398 OA
ATOM     72  H29 SER d   1      10.742  26.708  32.402  0.00  0.00     0.209 HD
ENDBRANCH  68  71
ENDBRANCH  18  68
ENDBRANCH  15  18
ENDBRANCH  12  14
BRANCH  12  73
ATOM     73  CB  LYS d   1       8.592  21.827  28.551  0.00  0.00    -0.038 C 
ATOM     74  H32 LYS d   1       7.565  21.493  28.342  0.00  0.00     0.036 H 
ATOM     75  H33 LYS d   1       9.255  20.952  28.622  0.00  0.00     0.036 H 
BRANCH  73  76
ATOM     76  CG  LYS d   1       9.062  22.695  27.389  0.00  0.00    -0.061 C 
ATOM     77  H34 LYS d   1       9.878  23.345  27.737  0.00  0.00     0.033 H 
ATOM     78  H35 LYS d   1       8.221  23.315  27.044  0.00  0.00     0.033 H 
BRANCH  76  79
ATOM     79  CD  LYS d   1       9.565  21.850  26.224  0.00  0.00    -0.043 C 
ATOM     80  H36 LYS d   1      10.427  21.253  26.558  0.00  0.00     0.035 H 
ATOM     81  H37 LYS d   1       9.875  22.515  25.405  0.00  0.00     0.035 H 
BRANCH  79  82
ATOM     82  CE  LYS d   1       8.480  20.916  25.721  0.00  0.00     0.080 C 
ATOM     83  H38 LYS d   1       8.240  20.187  26.509  0.00  0.00     0.075 H 
ATOM     84  H39 LYS d   1       8.847  20.386  24.830  0.00  0.00     0.075 H 
BRANCH  82  85
ATOM     85  NZ  LYS d   1       7.246  21.672  25.364  0.00  0.00    -0.079 N 
ATOM     86  H40 LYS d   1       6.543  21.030  25.034  0.00  0.00     0.274 HD
ATOM     87  H41 LYS d   1       7.459  22.340  24.639  0.00  0.00     0.274 HD
ATOM     88  H42 LYS d   1       6.902  22.157  26.178  0.00  0.00     0.274 HD
ENDBRANCH  82  85
ENDBRANCH  79  82
ENDBRANCH  76  79
ENDBRANCH  73  76
ENDBRANCH  12  73
ENDBRANCH   9  12
ENDBRANCH   5   8
ENDBRANCH   1   5
BRANCH   3  89
ATOM     89  CA  GLU d   1      11.851  18.059  32.672  0.00  0.00     0.090 C 
ATOM     90  H47 GLU d   1      11.075  17.462  32.171  0.00  0.00     0.087 H 
BRANCH  89  91
ATOM     91  C   GLU d   1      12.359  17.183  33.840  0.00  0.00     0.241 C 
ATOM     92  O   GLU d   1      11.784  16.112  34.085  0.00  0.00    -0.271 OA
ATOM     93  N   GLU d   1      13.394  17.600  34.582  0.00  0.00    -0.346 N 
ATOM     94  H52 GLU d   1      13.779  16.932  35.219  0.00  0.00     0.163 HD
BRANCH  93  95
ATOM     95  CA  GLU d   1      14.028  18.923  34.568  0.00  0.00     0.090 C 
ATOM     96  H53 GLU d   1      14.634  19.072  33.662  0.00  0.00     0.087 H 
BRANCH  95  97
ATOM     97  C   GLU d   1      14.868  18.950  35.830  0.00  0.00     0.241 C 
ATOM     98  O   GLU d   1      14.340  18.631  36.900  0.00  0.00    -0.271 OA
ATOM     99  N   LEU d   1      16.152  19.305  35.757  0.00  0.00    -0.346 N 
ATOM    100  H58 LEU d   1      16.668  19.312  36.613  0.00  0.00     0.163 HD
BRANCH  99 101
ATOM    101  CA  LEU d   1      16.874  19.683  34.550  0.00  0.00     0.089 C 
ATOM    102  H59 LEU d   1      16.305  19.407  33.650  0.00  0.00     0.087 H 
BRANCH 101 103
ATOM    103  C   LEU d   1      18.220  18.957  34.588  0.00  0.00     0.241 C 
ATOM    104  O   LEU d   1      18.933  18.876  33.583  0.00  0.00    -0.271 OA
ATOM    105  N   PHE d   1      18.558  18.431  35.767  0.00  0.00    -0.346 N 
ATOM    106  H69 PHE d   1      17.891  18.464  36.511  0.00  0.00     0.163 HD
BRANCH 105 107
ATOM    107  CA  PHE d   1      19.866  17.804  36.027  0.00  0.00     0.093 C 
ATOM    108  H70 PHE d   1      19.861  17.473  37.076  0.00  0.00     0.088 H 
BRANCH 107 109
ATOM    109  C   PHE d   1      21.014  18.805  35.876  0.00  0.00     0.241 C 
ATOM    110  O   PHE d   1      22.029  18.502  35.265  0.00  0.00    -0.271 OA
ATOM    111  N   THR d   1      20.815  19.996  36.442  0.00  0.00    -0.346 N 
ATOM    112  H78 THR d   1      19.930  20.151  36.880  0.00  0.00     0.163 HD
BRANCH 111 113
ATOM    113  CA  THR d   1      21.783  21.099  36.477  0.00  0.00     0.087 C 
ATOM    114  H79 THR d   1      22.354  20.995  37.411  0.00  0.00     0.087 H 
BRANCH 113 115
ATOM    115  C   THR d   1      21.092  22.461  36.486  0.00  0.00     0.112 C 
ATOM    116  O   THR d   1      20.152  22.698  37.255  0.00  0.00    -0.305 OA
ATOM    117  H80 THR d   1      21.433  23.238  35.803  0.00  0.00     0.146 H 
ENDBRANCH 113 115
BRANCH 113 118
ATOM    118  CB  THR d   1      22.779  21.102  35.320  0.00  0.00     0.058 C 
ATOM    119  H81 THR d   1      22.260  20.850  34.383  0.00  0.00     0.086 H 
BRANCH 118 120
ATOM    120  OG1 THR d   1      23.806  20.152  35.576  0.00  0.00    -0.393 OA
ATOM    121  H82 THR d   1      23.422  19.287  35.662  0.00  0.00     0.210 HD
ENDBRANCH 118 120
BRANCH 118 122
ATOM    122  CG2 THR d   1      23.415  22.474  35.205  0.00  0.00    -0.050 C 
ATOM    123  H83 THR d   1      24.133  22.477  34.371  0.00  0.00     0.031 H 
ATOM    124  H84 THR d   1      23.940  22.715  36.141  0.00  0.00     0.031 H 
ATOM    125  H85 THR d   1      22.634  23.226  35.019  0.00  0.00     0.031 H 
ENDBRANCH 118 122
ENDBRANCH 113 118
ENDBRANCH 111 113
ENDBRANCH 107 109
BRANCH 107 126
ATOM    126  CB  PHE d   1      20.091  16.550  35.160  0.00  0.00    -0.014 C 
ATOM    127  H71 PHE d   1      20.736  15.854  35.716  0.00  0.00     0.043 H 
ATOM    128  H72 PHE d   1      20.595  16.855  34.231  0.00  0.00     0.043 H 
BRANCH 126 129
ATOM    129  CG  PHE d   1      18.823  15.837  34.800  0.00  0.00    -0.056 A 
ATOM    130  CD1 PHE d   1      17.911  15.481  35.781  0.00  0.00    -0.077 A 
ATOM    131  CE1 PHE d   1      16.722  14.845  35.455  0.00  0.00    -0.082 A 
ATOM    132  H73 PHE d   1      18.130  15.703  36.819  0.00  0.00     0.084 H 
ATOM    133  CZ  PHE d   1      16.444  14.549  34.146  0.00  0.00    -0.083 A 
ATOM    134  H75 PHE d   1      16.015  14.583  36.233  0.00  0.00     0.083 H 
ATOM    135  CE2 PHE d   1      17.348  14.894  33.154  0.00  0.00    -0.082 A 
ATOM    136  H77 PHE d   1      15.519  14.046  33.887  0.00  0.00     0.083 H 
ATOM    137  CD2 PHE d   1      18.529  15.537  33.484  0.00  0.00    -0.077 A 
ATOM    138  H76 PHE d   1      17.130  14.660  32.118  0.00  0.00     0.083 H 
ATOM    139  H74 PHE d   1      19.230  15.808  32.702  0.00  0.00     0.084 H 
ENDBRANCH 126 129
ENDBRANCH 107 126
ENDBRANCH 105 107
ENDBRANCH 101 103
BRANCH 101 140
ATOM    140  CB  LEU d   1      17.127  21.187  34.582  0.00  0.00    -0.035 C 
ATOM    141  H60 LEU d   1      17.856  21.341  35.391  0.00  0.00     0.037 H 
ATOM    142  H61 LEU d   1      16.164  21.637  34.865  0.00  0.00     0.037 H 
BRANCH 140 143
ATOM    143  CG  LEU d   1      17.637  22.028  33.414  0.00  0.00    -0.059 C 
ATOM    144  H62 LEU d   1      18.675  21.734  33.197  0.00  0.00     0.038 H 
BRANCH 143 145
ATOM    145  CD1 LEU d   1      16.809  21.812  32.154  0.00  0.00    -0.073 C 
ATOM    146  H63 LEU d   1      17.210  22.435  31.341  0.00  0.00     0.028 H 
ATOM    147  H64 LEU d   1      15.764  22.093  32.350  0.00  0.00     0.028 H 
ATOM    148  H65 LEU d   1      16.856  20.753  31.862  0.00  0.00     0.028 H 
ENDBRANCH 143 145
BRANCH 143 149
ATOM    149  CD2 LEU d   1      17.617  23.494  33.827  0.00  0.00    -0.073 C 
ATOM    150  H66 LEU d   1      18.220  23.627  34.737  0.00  0.00     0.028 H 
ATOM    151  H67 LEU d   1      16.581  23.805  34.025  0.00  0.00     0.028 H 
ATOM    152  H68 LEU d   1      18.036  24.109  33.017  0.00  0.00     0.028 H 
ENDBRANCH 143 149
ENDBRANCH 140 143
ENDBRANCH 101 140
ENDBRANCH  99 101
ENDBRANCH  95  97
BRANCH  95 153
ATOM    153  CB  GLU d   1      12.978  20.013  34.706  0.00  0.00    -0.029 C 
ATOM    154  H54 GLU d   1      12.153  19.618  35.318  0.00  0.00     0.037 H 
ATOM    155  H55 GLU d   1      12.605  20.258  33.701  0.00  0.00     0.037 H 
BRANCH 153 156
ATOM    156  CG  GLU d   1      13.469  21.287  35.347  0.00  0.00     0.018 C 
ATOM    157  H56 GLU d   1      14.440  21.091  35.826  0.00  0.00     0.049 H 
ATOM    158  H57 GLU d   1      12.741  21.604  36.109  0.00  0.00     0.049 H 
BRANCH 156 159
ATOM    159  CD  GLU d   1      13.638  22.399  34.346  0.00  0.00     0.172 C 
ATOM    160  OE1 GLU d   1      13.668  22.107  33.131  0.00  0.00    -0.648 OA
ATOM    161  OE2 GLU d   1      13.736  23.565  34.780  0.00  0.00    -0.648 OA
ENDBRANCH 156 159
ENDBRANCH 153 156
ENDBRANCH  95 153
ENDBRANCH  93  95
ENDBRANCH  89  91
BRANCH  89 162
ATOM    162  CB  GLU d   1      12.955  18.298  31.630  0.00  0.00    -0.029 C 
ATOM    163  H48 GLU d   1      13.299  17.321  31.261  0.00  0.00     0.037 H 
ATOM    164  H49 GLU d   1      13.789  18.818  32.123  0.00  0.00     0.037 H 
BRANCH 162 165
ATOM    165  CG  GLU d   1      12.509  19.134  30.432  0.00  0.00     0.018 C 
ATOM    166  H50 GLU d   1      11.410  19.134  30.392  0.00  0.00     0.049 H 
ATOM    167  H51 GLU d   1      12.909  18.677  29.515  0.00  0.00     0.049 H 
BRANCH 165 168
ATOM    168  CD  GLU d   1      12.994  20.573  30.512  0.00  0.00     0.172 C 
ATOM    169  OE1 GLU d   1      12.190  21.497  30.247  0.00  0.00    -0.648 OA
ATOM    170  OE2 GLU d   1      14.184  20.776  30.840  0.00  0.00    -0.648 OA
ENDBRANCH 165 168
ENDBRANCH 162 165
ENDBRANCH  89 162
ENDBRANCH   3  89
TORSDOF 48
