REMARK  3 active torsions:
REMARK  status: ('A' for Active; 'I' for Inactive)
REMARK    1  A    between atoms: C2_3  and  O_4 
REMARK    2  A    between atoms: O_4  and  C1_5 
REMARK    3  A    between atoms: C7_10  and  C8_14 
ROOT
ATOM      1 CL   SNB d   1      18.603   6.601  33.111  0.00  0.00    -0.081 Cl
ATOM      2  C16 SNB d   1      19.919   7.681  32.578  0.00  0.00     0.068 A 
ATOM      3  C2  SNB d   1      21.081   7.145  32.054  0.00  0.00     0.090 A 
ATOM      4  C15 SNB d   1      19.761   9.062  32.693  0.00  0.00    -0.046 A 
ATOM      5  C14 SNB d   1      20.788   9.901  32.271  0.00  0.00     0.006 A 
ATOM      6  C4  SNB d   1      21.965   9.371  31.745  0.00  0.00    -0.019 A 
ATOM      7  C3  SNB d   1      22.116   7.990  31.628  0.00  0.00    -0.038 A 
ATOM      8  C7  SNB d   1      20.671  11.381  32.381  0.00  0.00     0.077 C 
ATOM      9  N   SNB d   1      21.498  12.069  31.714  0.00  0.00    -0.259 NA
ATOM     10  C6  SNB d   1      22.498  11.603  30.751  0.00  0.00     0.004 C 
ATOM     11  C5  SNB d   1      23.072  10.295  31.286  0.00  0.00    -0.055 C 
ATOM     12  H4  SNB d   1      18.849   9.477  33.106  0.00  0.00     0.087 H 
ATOM     13  H5  SNB d   1      23.026   7.573  31.211  0.00  0.00     0.089 H 
ATOM     14  H6  SNB d   1      22.779  12.097  29.828  0.00  0.00     0.114 H 
ATOM     15  H7  SNB d   1      24.129  10.059  31.331  0.00  0.00     0.087 H 
ENDROOT
BRANCH   8  16
ATOM     16  C8  SNB d   1      19.641  12.027  33.279  0.00  0.00    -0.005 A 
ATOM     17  C13 SNB d   1      19.425  11.526  34.553  0.00  0.00    -0.054 A 
ATOM     18  C12 SNB d   1      18.491  12.123  35.387  0.00  0.00     0.011 A 
ATOM     19  H8  SNB d   1      19.987  10.666  34.898  0.00  0.00     0.086 H 
ATOM     20 BR   SNB d   1      18.252  11.429  37.128  0.00  0.00    -0.051 Br
ATOM     21  C11 SNB d   1      17.741  13.213  34.945  0.00  0.00    -0.066 A 
ATOM     22  C10 SNB d   1      17.931  13.716  33.670  0.00  0.00    -0.081 A 
ATOM     23  H9  SNB d   1      17.008  13.667  35.602  0.00  0.00     0.085 H 
ATOM     24  C9  SNB d   1      18.899  13.121  32.856  0.00  0.00    -0.071 A 
ATOM     25  H10 SNB d   1      17.343  14.552  33.311  0.00  0.00     0.083 H 
ATOM     26  H11 SNB d   1      19.075  13.526  31.866  0.00  0.00     0.084 H 
ENDBRANCH   8  16
BRANCH   3  27
ATOM     27  O   SNB d   1      21.192   5.784  31.940  0.00  0.00    -0.354 OA
BRANCH  27  28
ATOM     28  C1  SNB d   1      22.210   5.240  31.089  0.00  0.00     0.010 C 
ATOM     29  H1  SNB d   1      22.159   4.141  31.113  0.00  0.00     0.066 H 
ATOM     30  H2  SNB d   1      23.198   5.569  31.443  0.00  0.00     0.066 H 
ATOM     31  H3  SNB d   1      22.053   5.592  30.059  0.00  0.00     0.066 H 
ENDBRANCH  27  28
ENDBRANCH   3  27
TORSDOF 3
