REMARK  5 active torsions:
REMARK  status: ('A' for Active; 'I' for Inactive)
REMARK       I    between atoms: C8_2  and  N3_3 
REMARK    1  A    between atoms: C6_8  and  C7_9 
REMARK    2  A    between atoms: C7_9  and  C12_10 
REMARK    3  A    between atoms: C16_15  and  O18_16 
REMARK    4  A    between atoms: O18_16  and  C19_17 
REMARK    5  A    between atoms: C24_22  and  C25_23 
ROOT
ATOM      1  C12 PIX d   1     -18.084  -7.250  -6.394  0.00  0.00    -0.055 A 
ATOM      2  C13 PIX d   1     -19.439  -7.493  -6.498  0.00  0.00    -0.077 A 
ATOM      3  C14 PIX d   1     -20.098  -7.307  -7.709  0.00  0.00    -0.080 A 
ATOM      4  C15 PIX d   1     -19.395  -6.866  -8.819  0.00  0.00    -0.050 A 
ATOM      5  C17 PIX d   1     -17.382  -6.803  -7.493  0.00  0.00    -0.044 A 
ATOM      6  C16 PIX d   1     -18.035  -6.629  -8.697  0.00  0.00     0.078 A 
ATOM      7  H13 PIX d   1     -19.993  -7.831  -5.630  0.00  0.00     0.084 H 
ATOM      8  H14 PIX d   1     -21.161  -7.507  -7.784  0.00  0.00     0.083 H 
ATOM      9  H15 PIX d   1     -19.900  -6.709  -9.765  0.00  0.00     0.087 H 
ATOM     10  H16 PIX d   1     -16.322  -6.589  -7.412  0.00  0.00     0.088 H 
ENDROOT
BRANCH   1  11
ATOM     11  C7  PIX d   1     -17.370  -7.466  -5.087  0.00  0.00    -0.037 C 
ATOM     12  H11 PIX d   1     -16.542  -6.746  -5.010  0.00  0.00     0.040 H 
ATOM     13  H12 PIX d   1     -18.078  -7.300  -4.262  0.00  0.00     0.040 H 
BRANCH  11  14
ATOM     14  C6  PIX d   1     -16.808  -8.881  -4.979  0.00  0.00    -0.047 C 
ATOM     15  C1  PIX d   1     -16.376  -9.094  -3.545  0.00  0.00    -0.046 C 
ATOM     16  C2  PIX d   1     -15.749 -10.470  -3.297  0.00  0.00    -0.003 C 
ATOM     17  H4  PIX d   1     -15.637  -8.322  -3.285  0.00  0.00     0.035 H 
ATOM     18  H5  PIX d   1     -17.258  -8.991  -2.896  0.00  0.00     0.035 H 
ATOM     19  N3  PIX d   1     -14.679 -10.695  -4.277  0.00  0.00    -0.359 N 
ATOM     20  H2  PIX d   1     -15.331 -10.506  -2.280  0.00  0.00     0.064 H 
ATOM     21  H3  PIX d   1     -16.517 -11.250  -3.405  0.00  0.00     0.064 H 
ATOM     22  C8  PIX d   1     -13.516 -11.203  -3.877  0.00  0.00     0.171 C 
ATOM     23  C4  PIX d   1     -14.906 -10.393  -5.689  0.00  0.00    -0.003 C 
ATOM     24  O9  PIX d   1     -12.572 -11.421  -4.634  0.00  0.00    -0.284 OA
ATOM     25  H1  PIX d   1     -13.394 -11.439  -2.821  0.00  0.00     0.180 H 
ATOM     26  C5  PIX d   1     -15.567  -9.036  -5.837  0.00  0.00    -0.046 C 
ATOM     27  H6  PIX d   1     -15.559 -11.164  -6.125  0.00  0.00     0.064 H 
ATOM     28  H7  PIX d   1     -13.942 -10.387  -6.218  0.00  0.00     0.064 H 
ATOM     29  H8  PIX d   1     -15.851  -8.898  -6.891  0.00  0.00     0.035 H 
ATOM     30  H9  PIX d   1     -14.843  -8.261  -5.548  0.00  0.00     0.035 H 
ATOM     31  H10 PIX d   1     -17.571  -9.616  -5.274  0.00  0.00     0.040 H 
ENDBRANCH  11  14
ENDBRANCH   1  11
BRANCH   6  32
ATOM     32  O18 PIX d   1     -17.328  -6.189  -9.760  0.00  0.00    -0.292 OA
BRANCH  32  33
ATOM     33  C19 PIX d   1     -17.189  -4.844  -9.922  0.00  0.00     0.169 A 
ATOM     34  C20 PIX d   1     -17.913  -3.959  -9.122  0.00  0.00    -0.031 A 
ATOM     35  C21 PIX d   1     -17.744  -2.597  -9.304  0.00  0.00    -0.063 A 
ATOM     36  H17 PIX d   1     -18.598  -4.332  -8.369  0.00  0.00     0.090 H 
ATOM     37  C24 PIX d   1     -16.867  -2.137 -10.284  0.00  0.00     0.065 A 
ATOM     38  H18 PIX d   1     -18.291  -1.893  -8.688  0.00  0.00     0.085 H 
ATOM     39  C23 PIX d   1     -16.160  -3.068 -11.059  0.00  0.00     0.020 A 
ATOM     40  N24 PIX d   1     -16.329  -4.388 -10.871  0.00  0.00    -0.236 NA
ATOM     41  H19 PIX d   1     -15.470  -2.719 -11.818  0.00  0.00     0.116 H 
BRANCH  37  42
ATOM     42  C25 PIX d   1     -16.669  -0.659 -10.490  0.00  0.00     0.418 C 
ATOM     43  F28 PIX d   1     -16.340  -0.387 -11.732  0.00  0.00    -0.166 F 
ATOM     44  F26 PIX d   1     -17.768   0.012 -10.199  0.00  0.00    -0.166 F 
ATOM     45  F27 PIX d   1     -15.677  -0.257  -9.721  0.00  0.00    -0.166 F 
ENDBRANCH  37  42
ENDBRANCH  32  33
ENDBRANCH   6  32
TORSDOF 5
