REMARK  4 active torsions:
REMARK  status: ('A' for Active; 'I' for Inactive)
REMARK    1  A    between atoms: C10_4  and  C9_3 
REMARK       I    between atoms: C1_5  and  N1_7 
REMARK       I    between atoms: N5_17  and  C1_5 
REMARK    2  A    between atoms: N1_7  and  C4_8 
REMARK    3  A    between atoms: S2_18  and  N5_17 
REMARK    4  A    between atoms: S2_18  and  C11_19 
ROOT
ATOM      1  O3  RO3 d   1       4.765 -12.065   5.491  0.00  0.00    -0.200 OA
ATOM      2  O2  RO3 d   1       4.545 -10.783   7.360  0.00  0.00    -0.200 OA
ATOM      3  S2  RO3 d   1       5.265 -11.896   6.822  0.00  0.00     0.266 S 
ENDROOT
BRANCH   3   4
ATOM      4  N5  RO3 d   1       6.750 -11.577   6.670  0.00  0.00    -0.232 N 
ATOM      5  C1  RO3 d   1       7.478 -10.859   7.520  0.00  0.00     0.335 C 
ATOM      6  O1  RO3 d   1       6.998 -10.397   8.539  0.00  0.00    -0.246 OA
ATOM      7  N1  RO3 d   1       8.772 -10.690   7.219  0.00  0.00    -0.286 N 
ATOM      8  H6  RO3 d   1       9.145 -11.161   6.419  0.00  0.00     0.172 HD
ATOM      9  H9  RO3 d   1       7.215 -11.939   5.862  0.00  0.00     0.183 HD
BRANCH   7  10
ATOM     10  C4  RO3 d   1       9.584  -9.918   7.945  0.00  0.00     0.175 A 
ATOM     11  S16 RO3 d   1       9.399  -9.599   9.493  0.00  0.00    -0.043 SA
ATOM     12  C14 RO3 d   1      10.630  -8.602   9.514  0.00  0.00     0.072 A 
ATOM     13  C15 RO3 d   1      11.217  -8.460   8.302  0.00  0.00     0.029 A 
ATOM     14 BR2  RO3 d   1      11.274  -7.646  11.069  0.00  0.00    -0.041 Br
ATOM     15  N17 RO3 d   1      10.584  -9.211   7.421  0.00  0.00    -0.235 NA
ATOM     16  H7  RO3 d   1      12.076  -7.826   8.088  0.00  0.00     0.117 H 
ENDBRANCH   7  10
ENDBRANCH   3   4
BRANCH   3  17
ATOM     17  C11 RO3 d   1       5.084 -13.203   7.711  0.00  0.00     0.080 A 
ATOM     18  C6  RO3 d   1       5.335 -14.451   7.141  0.00  0.00    -0.060 A 
ATOM     19  C5  RO3 d   1       5.196 -15.591   7.916  0.00  0.00    -0.076 A 
ATOM     20  H2  RO3 d   1       5.636 -14.528   6.102  0.00  0.00     0.085 H 
ATOM     21  C10 RO3 d   1       4.835 -15.495   9.257  0.00  0.00    -0.062 A 
ATOM     22  H1  RO3 d   1       5.370 -16.566   7.474  0.00  0.00     0.084 H 
ATOM     23  C8  RO3 d   1       4.588 -14.245   9.830  0.00  0.00    -0.076 A 
ATOM     24  C12 RO3 d   1       4.712 -13.097   9.054  0.00  0.00    -0.060 A 
ATOM     25  H10 RO3 d   1       4.301 -14.170  10.873  0.00  0.00     0.084 H 
ATOM     26  H8  RO3 d   1       4.521 -12.123   9.490  0.00  0.00     0.085 H 
BRANCH  21  27
ATOM     27  C9  RO3 d   1       4.695 -16.750  10.074  0.00  0.00    -0.051 C 
ATOM     28  H3  RO3 d   1       4.407 -16.488  11.103  0.00  0.00     0.033 H 
ATOM     29  H4  RO3 d   1       5.655 -17.287  10.088  0.00  0.00     0.033 H 
ATOM     30  H5  RO3 d   1       3.921 -17.393   9.629  0.00  0.00     0.033 H 
ENDBRANCH  21  27
ENDBRANCH   3  17
TORSDOF 4
