REMARK  5 active torsions:
REMARK  status: ('A' for Active; 'I' for Inactive)
REMARK       I    between atoms: C1_4  and  N1_6 
REMARK       I    between atoms: N5_16  and  C1_4 
REMARK    1  A    between atoms: N1_6  and  C4_7 
REMARK    2  A    between atoms: S2_17  and  N5_16 
REMARK    3  A    between atoms: S2_17  and  C11_18 
REMARK    4  A    between atoms: C8_19  and  C20_20 
REMARK    5  A    between atoms: C20_20  and  C21_21 
ROOT
ATOM      1  C5  RO5 d   1      34.861  13.841 -23.229  0.00  0.00    -0.081 A 
ATOM      2  C6  RO5 d   1      36.253  13.800 -23.213  0.00  0.00    -0.060 A 
ATOM      3  C10 RO5 d   1      34.151  13.539 -22.078  0.00  0.00    -0.077 A 
ATOM      4  C12 RO5 d   1      36.235  13.184 -20.898  0.00  0.00    -0.054 A 
ATOM      5  C11 RO5 d   1      36.934  13.464 -22.055  0.00  0.00     0.080 A 
ATOM      6  C8  RO5 d   1      34.843  13.216 -20.907  0.00  0.00    -0.057 A 
ATOM      7  H1  RO5 d   1      34.335  14.108 -24.138  0.00  0.00     0.083 H 
ATOM      8  H2  RO5 d   1      36.808  14.033 -24.114  0.00  0.00     0.085 H 
ATOM      9  H3  RO5 d   1      33.067  13.553 -22.085  0.00  0.00     0.084 H 
ATOM     10  H6  RO5 d   1      36.768  12.940 -19.986  0.00  0.00     0.086 H 
ENDROOT
BRANCH   5  11
ATOM     11  S2  RO5 d   1      38.689  13.409 -21.999  0.00  0.00     0.266 S 
ATOM     12  O3  RO5 d   1      39.308  14.563 -22.555  0.00  0.00    -0.200 OA
ATOM     13  O2  RO5 d   1      39.073  13.343 -20.619  0.00  0.00    -0.200 OA
BRANCH  11  14
ATOM     14  N5  RO5 d   1      39.249  12.139 -22.864  0.00  0.00    -0.232 N 
ATOM     15  C1  RO5 d   1      39.389  10.912 -22.429  0.00  0.00     0.335 C 
ATOM     16  O1  RO5 d   1      39.097  10.593 -21.292  0.00  0.00    -0.246 OA
ATOM     17  N1  RO5 d   1      39.853  10.046 -23.319  0.00  0.00    -0.286 N 
ATOM     18  H4  RO5 d   1      40.028  10.317 -24.266  0.00  0.00     0.172 HD
ATOM     19  H7  RO5 d   1      39.509  12.316 -23.813  0.00  0.00     0.183 HD
BRANCH  17  20
ATOM     20  C4  RO5 d   1      40.074   8.814 -22.906  0.00  0.00     0.175 A 
ATOM     21  S16 RO5 d   1      39.433   8.037 -21.485  0.00  0.00    -0.043 SA
ATOM     22  C14 RO5 d   1      40.305   6.560 -21.711  0.00  0.00     0.072 A 
ATOM     23  C15 RO5 d   1      41.048   6.767 -22.837  0.00  0.00     0.029 A 
ATOM     24 BR2  RO5 d   1      40.184   5.027 -20.584  0.00  0.00    -0.041 Br
ATOM     25  N17 RO5 d   1      40.934   7.928 -23.419  0.00  0.00    -0.235 NA
ATOM     26  H5  RO5 d   1      41.708   5.996 -23.232  0.00  0.00     0.117 H 
ENDBRANCH  17  20
ENDBRANCH  11  14
ENDBRANCH   5  11
BRANCH   6  27
ATOM     27  C20 RO5 d   1      34.111  12.933 -19.611  0.00  0.00    -0.044 C 
ATOM     28  H8  RO5 d   1      33.464  13.789 -19.369  0.00  0.00     0.039 H 
ATOM     29  H9  RO5 d   1      34.847  12.790 -18.806  0.00  0.00     0.039 H 
BRANCH  27  30
ATOM     30  C21 RO5 d   1      33.269  11.702 -19.729  0.00  0.00    -0.073 C 
ATOM     31  H10 RO5 d   1      32.750  11.520 -18.776  0.00  0.00     0.028 H 
ATOM     32  H11 RO5 d   1      33.910  10.841 -19.967  0.00  0.00     0.028 H 
ATOM     33  H12 RO5 d   1      32.528  11.840 -20.530  0.00  0.00     0.028 H 
ENDBRANCH  27  30
ENDBRANCH   6  27
TORSDOF 5
