REMARK  5 active torsions:
REMARK  status: ('A' for Active; 'I' for Inactive)
REMARK    1  A    between atoms: N9_1  and  C10_2 
REMARK    2  A    between atoms: C15_7  and  O16_8 
REMARK    3  A    between atoms: C17_9  and  O18_10 
REMARK    4  A    between atoms: C19_11  and  O20_12 
REMARK    5  A    between atoms: C21_13  and  O22_14 
ROOT
ATOM      1  C10 MT5 d   1     -24.303 -16.589 -39.589  0.00  0.00     0.672 A 
ATOM      2  N11 MT5 d   1     -23.454 -15.618 -39.986  0.00  0.00    -0.225 N 
ATOM      3  C12 MT5 d   1     -23.507 -15.448 -41.437  0.00  0.00     0.031 A 
ATOM      4  C13 MT5 d   1     -24.541 -16.503 -41.866  0.00  0.00     0.074 A 
ATOM      5  N14 MT5 d   1     -24.976 -17.148 -40.648  0.00  0.00    -0.180 N 
ATOM      6  C15 MT5 d   1     -25.960 -18.157 -40.651  0.00  0.00     0.146 C 
ATOM      7  C17 MT5 d   1     -26.827 -18.254 -41.900  0.00  0.00     0.105 C 
ATOM      8  C19 MT5 d   1     -26.485 -17.257 -43.014  0.00  0.00     0.091 C 
ATOM      9  C21 MT5 d   1     -25.796 -16.012 -42.465  0.00  0.00     0.084 C 
ATOM     10  H3  MT5 d   1     -22.852 -15.072 -39.354  0.00  0.00     0.177 HD
ATOM     11  H4  MT5 d   1     -22.526 -15.645 -41.895  0.00  0.00     0.068 H 
ATOM     12  H5  MT5 d   1     -23.840 -14.435 -41.705  0.00  0.00     0.068 H 
ATOM     13  H6  MT5 d   1     -24.061 -17.214 -42.555  0.00  0.00     0.080 H 
ATOM     14  H7  MT5 d   1     -26.663 -17.763 -39.903  0.00  0.00     0.122 H 
ATOM     15  H9  MT5 d   1     -27.835 -17.981 -41.555  0.00  0.00     0.093 H 
ATOM     16  H11 MT5 d   1     -25.862 -17.735 -43.784  0.00  0.00     0.091 H 
ATOM     17  H13 MT5 d   1     -26.434 -15.544 -41.701  0.00  0.00     0.090 H 
ENDROOT
BRANCH   1  18
ATOM     18  N9  MT5 d   1     -24.514 -17.011 -38.332  0.00  0.00    -0.235 N 
ATOM     19  H1  MT5 d   1     -24.000 -16.580 -37.551  0.00  0.00     0.174 HD
ATOM     20  H2  MT5 d   1     -25.190 -17.766 -38.149  0.00  0.00     0.174 HD
ENDBRANCH   1  18
BRANCH   6  21
ATOM     21  O16 MT5 d   1     -25.676 -19.389 -40.145  0.00  0.00    -0.373 OA
ATOM     22  H8  MT5 d   1     -26.442 -19.946 -40.223  0.00  0.00     0.212 HD
ENDBRANCH   6  21
BRANCH   9  23
ATOM     23  O22 MT5 d   1     -25.483 -15.060 -43.437  0.00  0.00    -0.391 OA
ATOM     24  H14 MT5 d   1     -26.281 -14.773 -43.866  0.00  0.00     0.210 HD
ENDBRANCH   9  23
BRANCH   7  25
ATOM     25  O18 MT5 d   1     -26.957 -19.575 -42.477  0.00  0.00    -0.388 OA
ATOM     26  H10 MT5 d   1     -26.098 -19.897 -42.724  0.00  0.00     0.210 HD
ENDBRANCH   7  25
BRANCH   8  27
ATOM     27  O20 MT5 d   1     -27.715 -16.829 -43.532  0.00  0.00    -0.390 OA
ATOM     28  H12 MT5 d   1     -27.563 -16.204 -44.232  0.00  0.00     0.210 HD
ENDBRANCH   8  27
TORSDOF 5
