REMARK  4 active torsions:
REMARK  status: ('A' for Active; 'I' for Inactive)
REMARK    1  A    between atoms: C14_6  and  C5_7 
REMARK    2  A    between atoms: C3_10  and  C6_11 
REMARK    3  A    between atoms: N1_16  and  C20_17 
REMARK    4  A    between atoms: C7_18  and  C8_19 
ROOT
ATOM      1  C5  VGC d   1      29.494  12.814   7.528  0.00  0.00    -0.007 A 
ATOM      2  C2  VGC d   1      30.294  12.099   6.636  0.00  0.00     0.041 A 
ATOM      3  S1  VGC d   1      31.862  11.937   5.965  0.00  0.00    -0.081 SA
ATOM      4  C3  VGC d   1      31.421  10.618   5.013  0.00  0.00     0.084 A 
ATOM      5  C4  VGC d   1      30.157  10.271   5.203  0.00  0.00    -0.032 A 
ATOM      6  C1  VGC d   1      29.499  11.091   6.107  0.00  0.00     0.054 A 
ATOM      7  N1  VGC d   1      28.306  11.277   6.670  0.00  0.00    -0.349 N 
ATOM      8  C7  VGC d   1      28.232  12.278   7.511  0.00  0.00     0.053 A 
ATOM      9  H12 VGC d   1      29.683   9.429   4.701  0.00  0.00     0.089 H 
ENDROOT
BRANCH   1  10
ATOM     10  C14 VGC d   1      30.015  14.012   8.339  0.00  0.00    -0.025 C 
ATOM     11  C15 VGC d   1      30.876  14.935   7.379  0.00  0.00    -0.058 C 
ATOM     12  C18 VGC d   1      31.279  16.149   8.172  0.00  0.00    -0.064 C 
ATOM     13  H1  VGC d   1      31.771  14.393   7.038  0.00  0.00     0.034 H 
ATOM     14  H2  VGC d   1      30.276  15.236   6.508  0.00  0.00     0.034 H 
ATOM     15  C19 VGC d   1      32.221  15.711   9.353  0.00  0.00    -0.065 C 
ATOM     16  H3  VGC d   1      30.381  16.636   8.580  0.00  0.00     0.033 H 
ATOM     17  H4  VGC d   1      31.813  16.854   7.518  0.00  0.00     0.033 H 
ATOM     18  C17 VGC d   1      31.572  14.639  10.230  0.00  0.00    -0.064 C 
ATOM     19  H5  VGC d   1      32.446  16.591   9.974  0.00  0.00     0.033 H 
ATOM     20  H6  VGC d   1      33.155  15.310   8.933  0.00  0.00     0.033 H 
ATOM     21  C16 VGC d   1      31.008  13.493   9.391  0.00  0.00    -0.058 C 
ATOM     22  H7  VGC d   1      30.754  15.096  10.806  0.00  0.00     0.033 H 
ATOM     23  H8  VGC d   1      32.328  14.237  10.921  0.00  0.00     0.033 H 
ATOM     24  H9  VGC d   1      30.491  12.784  10.054  0.00  0.00     0.034 H 
ATOM     25  H10 VGC d   1      31.837  12.980   8.880  0.00  0.00     0.034 H 
ATOM     26  H11 VGC d   1      29.185  14.567   8.801  0.00  0.00     0.047 H 
ENDBRANCH   1  10
BRANCH   8  27
ATOM     27  C8  VGC d   1      27.119  12.650   8.240  0.00  0.00    -0.009 A 
ATOM     28  C9  VGC d   1      25.870  12.849   7.654  0.00  0.00    -0.071 A 
ATOM     29  C10 VGC d   1      24.745  13.214   8.447  0.00  0.00    -0.082 A 
ATOM     30  H16 VGC d   1      25.754  12.725   6.583  0.00  0.00     0.084 H 
ATOM     31  C11 VGC d   1      24.841  13.458   9.856  0.00  0.00    -0.083 A 
ATOM     32  H17 VGC d   1      23.778  13.311   7.966  0.00  0.00     0.083 H 
ATOM     33  C12 VGC d   1      26.124  13.262  10.418  0.00  0.00    -0.082 A 
ATOM     34  H18 VGC d   1      23.990  13.771  10.450  0.00  0.00     0.083 H 
ATOM     35  C13 VGC d   1      27.236  12.839   9.624  0.00  0.00    -0.071 A 
ATOM     36  H19 VGC d   1      26.268  13.437  11.478  0.00  0.00     0.083 H 
ATOM     37  H20 VGC d   1      28.192  12.660  10.104  0.00  0.00     0.084 H 
ENDBRANCH   8  27
BRANCH   7  38
ATOM     38  C20 VGC d   1      27.097  10.500   6.488  0.00  0.00    -0.013 C 
ATOM     39  H13 VGC d   1      27.285   9.694   5.763  0.00  0.00     0.057 H 
ATOM     40  H14 VGC d   1      26.295  11.152   6.112  0.00  0.00     0.057 H 
ATOM     41  H15 VGC d   1      26.793  10.064   7.451  0.00  0.00     0.057 H 
ENDBRANCH   7  38
BRANCH   4  42
ATOM     42  C6  VGC d   1      32.384   9.897   4.110  0.00  0.00     0.216 C 
ATOM     43  O1  VGC d   1      31.980   8.913   3.481  0.00  0.00    -0.644 OA
ATOM     44  O2  VGC d   1      33.543  10.281   4.074  0.00  0.00    -0.644 OA
ENDBRANCH   4  42
TORSDOF 4
