REMARK  4 active torsions:
REMARK  status: ('A' for Active; 'I' for Inactive)
REMARK       I    between atoms: C10_2  and  N12_3 
REMARK    1  A    between atoms: C10_2  and  C5_4 
REMARK    2  A    between atoms: N9_12  and  S13_13 
REMARK    3  A    between atoms: S13_13  and  C14_16 
REMARK    4  A    between atoms: C21_17  and  N22_18 
ROOT
ATOM      1  C5  ZZY d   1     106.997  22.767 139.142  0.00  0.00     0.051 A 
ATOM      2  C3  ZZY d   1     105.774  22.166 139.163  0.00  0.00    -0.037 A 
ATOM      3  C1  ZZY d   1     104.694  22.828 139.714  0.00  0.00     0.079 A 
ATOM      4  C6  ZZY d   1     107.125  24.023 139.680  0.00  0.00     0.018 A 
ATOM      5  N4  ZZY d   1     106.045  24.658 140.219  0.00  0.00    -0.258 NA
ATOM      6  C2  ZZY d   1     104.856  24.069 140.235  0.00  0.00     0.085 A 
ATOM      7  C8  ZZY d   1     103.692  24.495 140.725  0.00  0.00    -0.037 A 
ATOM      8  C7  ZZY d   1     102.866  23.466 140.438  0.00  0.00    -0.001 A 
ATOM      9  N9  ZZY d   1     103.460  22.449 139.841  0.00  0.00    -0.244 N 
ATOM     10  H3  ZZY d   1     105.649  21.172 138.749  0.00  0.00     0.088 H 
ATOM     11  H4  ZZY d   1     108.091  24.514 139.677  0.00  0.00     0.116 H 
ATOM     12  H5  ZZY d   1     103.465  25.434 141.228  0.00  0.00     0.089 H 
ATOM     13  H6  ZZY d   1     101.804  23.474 140.678  0.00  0.00     0.113 H 
ENDROOT
BRANCH   9  14
ATOM     14  S13 ZZY d   1     102.730  21.045 139.398  0.00  0.00     0.271 S 
ATOM     15  O16 ZZY d   1     101.555  21.161 138.957  0.00  0.00    -0.200 OA
ATOM     16  O15 ZZY d   1     103.404  20.450 138.442  0.00  0.00    -0.200 OA
BRANCH  14  17
ATOM     17  C14 ZZY d   1     102.622  19.891 140.715  0.00  0.00     0.113 C 
ATOM     18  C21 ZZY d   1     101.642  19.822 141.771  0.00  0.00     0.126 C 
ATOM     19  C19 ZZY d   1     101.692  18.786 142.698  0.00  0.00    -0.049 C 
ATOM     20  C17 ZZY d   1     102.743  17.946 142.713  0.00  0.00    -0.081 C 
ATOM     21  H10 ZZY d   1     100.884  18.655 143.409  0.00  0.00     0.087 H 
ATOM     22  C18 ZZY d   1     103.675  17.977 141.712  0.00  0.00    -0.081 C 
ATOM     23  H9  ZZY d   1     102.852  17.238 143.526  0.00  0.00     0.083 H 
ATOM     24  C20 ZZY d   1     103.615  18.932 140.727  0.00  0.00    -0.058 C 
ATOM     25  H8  ZZY d   1     104.469  17.240 141.696  0.00  0.00     0.083 H 
ATOM     26  H7  ZZY d   1     104.363  18.933 139.942  0.00  0.00     0.086 H 
BRANCH  18  27
ATOM     27  N22 ZZY d   1     100.527  20.738 142.006  0.00  0.00    -0.114 N 
ATOM     28  O23 ZZY d   1     100.673  21.968 141.858  0.00  0.00    -0.532 OA
ATOM     29  O24 ZZY d   1      99.438  20.410 142.333  0.00  0.00    -0.532 OA
ENDBRANCH  18  27
ENDBRANCH  14  17
ENDBRANCH   9  14
BRANCH   1  30
ATOM     30  C10 ZZY d   1     108.096  22.044 138.535  0.00  0.00     0.250 C 
ATOM     31  O11 ZZY d   1     109.212  22.434 138.444  0.00  0.00    -0.268 OA
ATOM     32  N12 ZZY d   1     107.719  20.844 138.074  0.00  0.00    -0.366 N 
ATOM     33  H1  ZZY d   1     106.768  20.548 138.168  0.00  0.00     0.159 HD
ATOM     34  H2  ZZY d   1     108.388  20.244 137.636  0.00  0.00     0.159 HD
ENDBRANCH   1  30
TORSDOF 4
