REMARK  6 active torsions:
REMARK  status: ('A' for Active; 'I' for Inactive)
REMARK    1  A    between atoms: O3_4  and  S2_1 
REMARK    2  A    between atoms: S2_1  and  N1_5 
REMARK    3  A    between atoms: C14_22  and  O3_4 
REMARK    4  A    between atoms: CAO_25  and  N5_8 
REMARK    5  A    between atoms: C3_12  and  CAO_25 
REMARK    6  A    between atoms: CAV_26  and  C7_16 
ROOT
ATOM      1  N6  MS4 d   1     -18.306  17.571 -14.261  0.00  0.00    -0.191 NA
ATOM      2  C3  MS4 d   1     -16.122  15.841  -9.653  0.00  0.00    -0.037 A 
ATOM      3  C4  MS4 d   1     -16.790  17.066  -9.748  0.00  0.00    -0.074 A 
ATOM      4  C5  MS4 d   1     -17.333  17.474 -10.959  0.00  0.00    -0.061 A 
ATOM      5  C6  MS4 d   1     -17.222  16.666 -12.088  0.00  0.00     0.055 A 
ATOM      6  C7  MS4 d   1     -16.529  15.436 -12.008  0.00  0.00    -0.005 A 
ATOM      7  C8  MS4 d   1     -15.988  15.022 -10.785  0.00  0.00    -0.063 A 
ATOM      8  C9  MS4 d   1     -17.822  17.155 -13.306  0.00  0.00     0.100 C 
ATOM      9  H5  MS4 d   1     -16.884  17.699  -8.873  0.00  0.00     0.084 H 
ATOM     10  H6  MS4 d   1     -17.846  18.427 -11.026  0.00  0.00     0.085 H 
ATOM     11  H7  MS4 d   1     -15.468  14.073 -10.713  0.00  0.00     0.085 H 
ENDROOT
BRANCH   6  12
ATOM     12  CAV MS4 d   1     -16.443  14.661 -13.166  0.00  0.00    -0.023 A 
ATOM     13  C12 MS4 d   1     -15.808  15.165 -14.307  0.00  0.00    -0.048 A 
ATOM     14  C13 MS4 d   1     -15.747  14.430 -15.486  0.00  0.00     0.069 A 
ATOM     15  H8  MS4 d   1     -15.354  16.149 -14.271  0.00  0.00     0.087 H 
ATOM     16 CL   MS4 d   1     -14.930  15.151 -16.846  0.00  0.00    -0.081 Cl
ATOM     17  C14 MS4 d   1     -16.330  13.152 -15.524  0.00  0.00     0.112 A 
ATOM     18  C15 MS4 d   1     -16.975  12.676 -14.395  0.00  0.00    -0.047 A 
ATOM     19  C16 MS4 d   1     -17.024  13.403 -13.211  0.00  0.00    -0.069 A 
ATOM     20  H9  MS4 d   1     -17.457  11.706 -14.436  0.00  0.00     0.087 H 
ATOM     21  H10 MS4 d   1     -17.510  12.991 -12.334  0.00  0.00     0.085 H 
BRANCH  17  22
ATOM     22  O3  MS4 d   1     -16.390  12.352 -16.642  0.00  0.00    -0.215 OA
BRANCH  22  23
ATOM     23  S2  MS4 d   1     -15.357  11.517 -17.062  0.00  0.00     0.360 S 
ATOM     24  O1  MS4 d   1     -14.028  11.618 -16.539  0.00  0.00    -0.176 OA
ATOM     25  O2  MS4 d   1     -15.613  11.099 -18.429  0.00  0.00    -0.176 OA
BRANCH  23  26
ATOM     26  N1  MS4 d   1     -15.802  10.160 -16.334  0.00  0.00    -0.305 N 
ATOM     27  H1  MS4 d   1     -15.250   9.333 -16.437  0.00  0.00     0.171 HD
ATOM     28  H2  MS4 d   1     -16.632  10.141 -15.777  0.00  0.00     0.171 HD
ENDBRANCH  23  26
ENDBRANCH  22  23
ENDBRANCH  17  22
ENDBRANCH   6  12
BRANCH   2  29
ATOM     29  CAO MS4 d   1     -15.506  15.397  -8.309  0.00  0.00     0.042 C 
ATOM     30  H11 MS4 d   1     -15.604  14.306  -8.212  0.00  0.00     0.074 H 
ATOM     31  H12 MS4 d   1     -14.441  15.672  -8.294  0.00  0.00     0.074 H 
BRANCH  29  32
ATOM     32  N5  MS4 d   1     -16.187  16.045  -7.171  0.00  0.00    -0.258 N 
ATOM     33  N4  MS4 d   1     -17.328  15.771  -6.771  0.00  0.00    -0.164 NA
ATOM     34  C1  MS4 d   1     -17.590  16.575  -5.736  0.00  0.00     0.107 A 
ATOM     35  N3  MS4 d   1     -16.523  17.356  -5.535  0.00  0.00    -0.234 NA
ATOM     36  H3  MS4 d   1     -18.512  16.591  -5.157  0.00  0.00     0.149 H 
ATOM     37  C2  MS4 d   1     -15.631  17.014  -6.452  0.00  0.00     0.084 A 
ATOM     38  H4  MS4 d   1     -14.639  17.442  -6.589  0.00  0.00     0.146 H 
ENDBRANCH  29  32
ENDBRANCH   2  29
TORSDOF 6
