REMARK  0 active torsions:
REMARK  status: ('A' for Active; 'I' for Inactive)
ROOT
ATOM      1 CLA  VGD d   1       6.195 -13.471  13.613  0.00  0.00    -0.084 Cl
ATOM      2  CAH VGD d   1       6.917 -11.945  14.207  0.00  0.00     0.036 A 
ATOM      3  CAC VGD d   1       6.208 -11.007  14.978  0.00  0.00    -0.060 A 
ATOM      4  CAD VGD d   1       6.857  -9.834  15.387  0.00  0.00    -0.051 A 
ATOM      5  CAK VGD d   1       8.194  -9.619  15.022  0.00  0.00     0.103 A 
ATOM      6  CAJ VGD d   1       8.889 -10.581  14.252  0.00  0.00     0.080 A 
ATOM      7  CAE VGD d   1       8.244 -11.735  13.849  0.00  0.00    -0.033 A 
ATOM      8  NAG VGD d   1       9.067  -8.612  15.283  0.00  0.00    -0.063 NA
ATOM      9  CAI VGD d   1      10.218  -8.994  14.675  0.00  0.00     0.699 A 
ATOM     10  NAF VGD d   1      10.168 -10.181  14.044  0.00  0.00    -0.188 N 
ATOM     11  NAA VGD d   1      11.354  -8.251  14.694  0.00  0.00    -0.233 N 
ATOM     12  H   VGD d   1       5.175 -11.188  15.252  0.00  0.00     0.086 H 
ATOM     13  H   VGD d   1       6.329  -9.098  15.982  0.00  0.00     0.087 H 
ATOM     14  H   VGD d   1       8.771 -12.474  13.256  0.00  0.00     0.089 H 
ATOM     15  H   VGD d   1      10.917 -10.666  13.530  0.00  0.00     0.184 HD
ATOM     16  H   VGD d   1      11.369  -7.345  15.184  0.00  0.00     0.174 HD
ATOM     17  H   VGD d   1      12.201  -8.593  14.219  0.00  0.00     0.174 HD
ENDROOT
TORSDOF 0
