REMARK  8 active torsions:
REMARK  status: ('A' for Active; 'I' for Inactive)
REMARK    1  A    between atoms: C20_1  and  C19_2 
REMARK    2  A    between atoms: C19_2  and  C21_3 
REMARK    3  A    between atoms: C19_2  and  C22_4 
REMARK    4  A    between atoms: C19_2  and  N7_5 
REMARK    5  A    between atoms: C5_11  and  N10_12 
REMARK    6  A    between atoms: C9_14  and  C11_15 
REMARK    7  A    between atoms: C11_15  and  C12_16 
REMARK    8  A    between atoms: C14_21  and  C18_22 
ROOT
ATOM      1  N7  VGG d   1      19.944 -18.662  -9.923  0.00  0.00    -0.242 N 
ATOM      2  N8  VGG d   1      20.629 -19.519  -9.313  0.00  0.00    -0.173 NA
ATOM      3  C3  VGG d   1      19.220 -19.207 -10.909  0.00  0.00     0.164 A 
ATOM      4  N2  VGG d   1      18.349 -18.715 -11.843  0.00  0.00    -0.222 NA
ATOM      5  C1  VGG d   1      17.795 -19.547 -12.705  0.00  0.00     0.091 A 
ATOM      6  N6  VGG d   1      18.024 -20.850 -12.719  0.00  0.00    -0.224 NA
ATOM      7  C5  VGG d   1      18.889 -21.394 -11.825  0.00  0.00     0.138 A 
ATOM      8  C4  VGG d   1      19.508 -20.571 -10.916  0.00  0.00     0.084 A 
ATOM      9  C9  VGG d   1      20.417 -20.734  -9.855  0.00  0.00     0.077 A 
ATOM     10  H   VGG d   1      17.110 -19.137 -13.447  0.00  0.00     0.146 H 
ENDROOT
BRANCH   9  11
ATOM     11  C11 VGG d   1      21.092 -21.989  -9.291  0.00  0.00     0.002 C 
ATOM     12  H   VGG d   1      20.308 -22.743  -9.216  0.00  0.00     0.049 H 
ATOM     13  H   VGG d   1      21.567 -21.681  -8.360  0.00  0.00     0.049 H 
BRANCH  11  14
ATOM     14  C12 VGG d   1      22.176 -22.603 -10.123  0.00  0.00    -0.052 A 
ATOM     15  C13 VGG d   1      22.990 -23.558  -9.505  0.00  0.00    -0.071 A 
ATOM     16  C14 VGG d   1      23.997 -24.176 -10.193  0.00  0.00    -0.061 A 
ATOM     17  H   VGG d   1      22.819 -23.813  -8.459  0.00  0.00     0.085 H 
ATOM     18  C15 VGG d   1      24.231 -23.855 -11.527  0.00  0.00    -0.077 A 
ATOM     19  C16 VGG d   1      23.425 -22.906 -12.173  0.00  0.00    -0.082 A 
ATOM     20  H   VGG d   1      25.041 -24.341 -12.070  0.00  0.00     0.084 H 
ATOM     21  C17 VGG d   1      22.393 -22.289 -11.471  0.00  0.00    -0.076 A 
ATOM     22  H   VGG d   1      23.605 -22.653 -13.218  0.00  0.00     0.083 H 
ATOM     23  H   VGG d   1      21.753 -21.561 -11.970  0.00  0.00     0.084 H 
BRANCH  16  24
ATOM     24  C18 VGG d   1      24.894 -25.229  -9.471  0.00  0.00    -0.051 C 
ATOM     25  H   VGG d   1      24.818 -26.185  -9.988  0.00  0.00     0.033 H 
ATOM     26  H   VGG d   1      25.930 -24.890  -9.482  0.00  0.00     0.033 H 
ATOM     27  H   VGG d   1      24.559 -25.344  -8.440  0.00  0.00     0.033 H 
ENDBRANCH  16  24
ENDBRANCH  11  14
ENDBRANCH   9  11
BRANCH   1  28
ATOM     28  C19 VGG d   1      19.925 -17.204  -9.544  0.00  0.00     0.047 C 
BRANCH  28  29
ATOM     29  C20 VGG d   1      20.173 -16.277 -10.708  0.00  0.00    -0.052 C 
ATOM     30  H   VGG d   1      21.151 -16.490 -11.139  0.00  0.00     0.030 H 
ATOM     31  H   VGG d   1      19.401 -16.429 -11.463  0.00  0.00     0.030 H 
ATOM     32  H   VGG d   1      20.145 -15.244 -10.361  0.00  0.00     0.030 H 
ENDBRANCH  28  29
BRANCH  28  33
ATOM     33  C21 VGG d   1      18.517 -16.959  -9.005  0.00  0.00    -0.052 C 
ATOM     34  H   VGG d   1      17.787 -17.184  -9.783  0.00  0.00     0.030 H 
ATOM     35  H   VGG d   1      18.342 -17.603  -8.143  0.00  0.00     0.030 H 
ATOM     36  H   VGG d   1      18.420 -15.915  -8.706  0.00  0.00     0.030 H 
ENDBRANCH  28  33
BRANCH  28  37
ATOM     37  C22 VGG d   1      20.985 -16.962  -8.457  0.00  0.00    -0.052 C 
ATOM     38  H   VGG d   1      20.756 -17.574  -7.585  0.00  0.00     0.030 H 
ATOM     39  H   VGG d   1      21.968 -17.231  -8.843  0.00  0.00     0.030 H 
ATOM     40  H   VGG d   1      20.980 -15.909  -8.175  0.00  0.00     0.030 H 
ENDBRANCH  28  37
ENDBRANCH   1  28
BRANCH   7  41
ATOM     41  N10 VGG d   1      19.090 -22.707 -11.858  0.00  0.00    -0.383 N 
ATOM     42  H   VGG d   1      19.726 -23.142 -11.190  0.00  0.00     0.157 HD
ATOM     43  H   VGG d   1      18.608 -23.279 -12.551  0.00  0.00     0.157 HD
ENDBRANCH   7  41
TORSDOF 8
