REMARK  6 active torsions:
REMARK  status: ('A' for Active; 'I' for Inactive)
REMARK    1  A    between atoms: N7A_1  and  C3A_2 
REMARK    2  A    between atoms: C1A_4  and  C6A_5 
REMARK    3  A    between atoms: C5A_7  and  C4_8 
REMARK    4  A    between atoms: C2_13  and  N7_14 
REMARK    5  A    between atoms: N7_14  and  C1B_15 
REMARK    6  A    between atoms: C3B_18  and  N7B_19 
ROOT
ATOM      1  C4  CK7 d   1       4.580  49.435   2.134  0.00  0.00     0.096 A 
ATOM      2  N3  CK7 d   1       3.296  49.589   2.488  0.00  0.00    -0.061 NA
ATOM      3  C5  CK7 d   1       5.462  50.514   2.258  0.00  0.00    -0.036 A 
ATOM      4  C6  CK7 d   1       4.952  51.735   2.704  0.00  0.00     0.023 A 
ATOM      5  N1  CK7 d   1       3.649  51.842   3.046  0.00  0.00    -0.075 NA
ATOM      6  C2  CK7 d   1       2.834  50.774   2.917  0.00  0.00     0.727 A 
ATOM      7  H6  CK7 d   1       6.513  50.405   2.014  0.00  0.00     0.089 H 
ATOM      8  H7  CK7 d   1       5.603  52.599   2.776  0.00  0.00     0.115 H 
ENDROOT
BRANCH   6   9
ATOM      9  N7  CK7 d   1       1.571  50.885   3.400  0.00  0.00    -0.188 N 
ATOM     10  H8  CK7 d   1       1.411  51.615   4.108  0.00  0.00     0.184 HD
BRANCH   9  11
ATOM     11  C1B CK7 d   1       0.503  50.139   3.050  0.00  0.00     0.051 A 
ATOM     12  C6B CK7 d   1      -0.740  50.633   3.353  0.00  0.00    -0.057 A 
ATOM     13  C5B CK7 d   1      -1.886  49.897   3.035  0.00  0.00    -0.079 A 
ATOM     14  H9  CK7 d   1      -0.835  51.597   3.840  0.00  0.00     0.086 H 
ATOM     15  C4B CK7 d   1      -1.802  48.659   2.418  0.00  0.00    -0.051 A 
ATOM     16  H12 CK7 d   1      -2.861  50.304   3.276  0.00  0.00     0.083 H 
ATOM     17  C3B CK7 d   1      -0.536  48.152   2.118  0.00  0.00     0.105 A 
ATOM     18  H11 CK7 d   1      -2.697  48.098   2.174  0.00  0.00     0.087 H 
ATOM     19  C2B CK7 d   1       0.606  48.890   2.427  0.00  0.00    -0.025 A 
ATOM     20  H10 CK7 d   1       1.584  48.492   2.182  0.00  0.00     0.090 H 
BRANCH  17  21
ATOM     21  N7B CK7 d   1      -0.392  46.827   1.792  0.00  0.00    -0.116 N 
ATOM     22  O8B CK7 d   1      -1.402  46.171   1.586  0.00  0.00    -0.532 OA
ATOM     23  O9B CK7 d   1       0.620  46.206   2.128  0.00  0.00    -0.532 OA
ENDBRANCH  17  21
ENDBRANCH   9  11
ENDBRANCH   6   9
BRANCH   1  24
ATOM     24  C5A CK7 d   1       4.934  48.103   1.532  0.00  0.00     0.062 A 
ATOM     25  C1A CK7 d   1       6.150  47.675   1.176  0.00  0.00     0.053 A 
ATOM     26  N2A CK7 d   1       6.079  46.600   0.424  0.00  0.00    -0.228 NA
ATOM     27  C3A CK7 d   1       4.838  46.224   0.245  0.00  0.00     0.165 A 
ATOM     28  S4A CK7 d   1       3.726  47.164   0.972  0.00  0.00    -0.048 SA
BRANCH  25  29
ATOM     29  C6A CK7 d   1       7.494  48.239   1.481  0.00  0.00    -0.034 C 
ATOM     30  H3  CK7 d   1       7.382  49.130   2.116  0.00  0.00     0.035 H 
ATOM     31  H4  CK7 d   1       7.996  48.518   0.543  0.00  0.00     0.035 H 
ATOM     32  H5  CK7 d   1       8.097  47.486   2.009  0.00  0.00     0.035 H 
ENDBRANCH  25  29
BRANCH  27  33
ATOM     33  N7A CK7 d   1       4.548  45.143  -0.497  0.00  0.00    -0.378 N 
ATOM     34  H1  CK7 d   1       5.307  44.595  -0.927  0.00  0.00     0.158 HD
ATOM     35  H2  CK7 d   1       3.567  44.862  -0.636  0.00  0.00     0.158 HD
ENDBRANCH  27  33
ENDBRANCH   1  24
TORSDOF 6
