REMARK  10 active torsions:
REMARK  status: ('A' for Active; 'I' for Inactive)
REMARK    1  A    between atoms: C25_1  and  O24_2 
REMARK    2  A    between atoms: O24_2  and  C16_3 
REMARK    3  A    between atoms: C15_4  and  O22_5 
REMARK    4  A    between atoms: O22_5  and  C23_6 
REMARK    5  A    between atoms: C12_10  and  C11_11 
REMARK    6  A    between atoms: C11_11  and  C10_12 
REMARK    7  A    between atoms: C5_19  and  O20_20 
REMARK    8  A    between atoms: O20_20  and  C21_21 
REMARK    9  A    between atoms: C6_22  and  O18_24 
REMARK   10  A    between atoms: O18_24  and  C19_25 
ROOT
ATOM      1  C10 EV1 d   1      -4.350 -28.428  33.370  0.00  0.00     0.049 A 
ATOM      2  N9  EV1 d   1      -4.010 -27.612  32.338  0.00  0.00    -0.264 NA
ATOM      3  C8  EV1 d   1      -3.249 -26.510  32.493  0.00  0.00     0.003 A 
ATOM      4  C7  EV1 d   1      -2.739 -26.107  33.730  0.00  0.00    -0.055 A 
ATOM      5  C2  EV1 d   1      -3.004 -26.855  34.872  0.00  0.00    -0.020 A 
ATOM      6  C3  EV1 d   1      -3.838 -28.084  34.739  0.00  0.00     0.002 A 
ATOM      7  C4  EV1 d   1      -4.112 -28.840  35.872  0.00  0.00    -0.035 A 
ATOM      8  C5  EV1 d   1      -3.614 -28.463  37.117  0.00  0.00     0.102 A 
ATOM      9  C6  EV1 d   1      -2.784 -27.224  37.250  0.00  0.00     0.102 A 
ATOM     10  C1  EV1 d   1      -2.506 -26.463  36.112  0.00  0.00    -0.037 A 
ATOM     11  H12 EV1 d   1      -3.023 -25.910  31.619  0.00  0.00     0.114 H 
ATOM     12  H13 EV1 d   1      -2.135 -25.209  33.800  0.00  0.00     0.087 H 
ATOM     13  H14 EV1 d   1      -4.720 -29.733  35.786  0.00  0.00     0.089 H 
ATOM     14  H18 EV1 d   1      -1.902 -25.567  36.194  0.00  0.00     0.089 H 
ENDROOT
BRANCH   1  15
ATOM     15  C11 EV1 d   1      -5.203 -29.646  33.051  0.00  0.00     0.000 C 
ATOM     16  H10 EV1 d   1      -5.645 -29.495  32.055  0.00  0.00     0.049 H 
ATOM     17  H11 EV1 d   1      -4.540 -30.524  33.029  0.00  0.00     0.049 H 
BRANCH  15  18
ATOM     18  C12 EV1 d   1      -6.333 -29.943  34.020  0.00  0.00    -0.050 A 
ATOM     19  C13 EV1 d   1      -6.283 -31.137  34.744  0.00  0.00    -0.074 A 
ATOM     20  C14 EV1 d   1      -7.283 -31.488  35.652  0.00  0.00    -0.048 A 
ATOM     21  H8  EV1 d   1      -5.445 -31.809  34.596  0.00  0.00     0.084 H 
ATOM     22  C15 EV1 d   1      -8.379 -30.649  35.854  0.00  0.00     0.101 A 
ATOM     23  H7  EV1 d   1      -7.208 -32.418  36.204  0.00  0.00     0.087 H 
ATOM     24  C16 EV1 d   1      -8.447 -29.378  35.068  0.00  0.00     0.102 A 
ATOM     25  C17 EV1 d   1      -7.412 -29.070  34.177  0.00  0.00    -0.042 A 
ATOM     26  H9  EV1 d   1      -7.448 -28.149  33.606  0.00  0.00     0.088 H 
BRANCH  22  27
ATOM     27  O22 EV1 d   1      -9.375 -30.992  36.743  0.00  0.00    -0.353 OA
BRANCH  27  28
ATOM     28  C23 EV1 d   1      -9.138 -31.807  37.895  0.00  0.00     0.010 C 
ATOM     29  H4  EV1 d   1     -10.079 -31.942  38.448  0.00  0.00     0.066 H 
ATOM     30  H5  EV1 d   1      -8.398 -31.317  38.545  0.00  0.00     0.066 H 
ATOM     31  H6  EV1 d   1      -8.755 -32.788  37.578  0.00  0.00     0.066 H 
ENDBRANCH  27  28
ENDBRANCH  22  27
BRANCH  24  32
ATOM     32  O24 EV1 d   1      -9.485 -28.485  35.212  0.00  0.00    -0.353 OA
BRANCH  32  33
ATOM     33  C25 EV1 d   1     -10.855 -28.844  35.401  0.00  0.00     0.010 C 
ATOM     34  H1  EV1 d   1     -11.465 -27.932  35.486  0.00  0.00     0.066 H 
ATOM     35  H2  EV1 d   1     -10.955 -29.439  36.321  0.00  0.00     0.066 H 
ATOM     36  H3  EV1 d   1     -11.200 -29.437  34.542  0.00  0.00     0.066 H 
ENDBRANCH  32  33
ENDBRANCH  24  32
ENDBRANCH  15  18
ENDBRANCH   1  15
BRANCH   8  37
ATOM     37  O20 EV1 d   1      -3.906 -29.231  38.219  0.00  0.00    -0.353 OA
BRANCH  37  38
ATOM     38  C21 EV1 d   1      -3.749 -30.651  38.207  0.00  0.00     0.010 C 
ATOM     39  H15 EV1 d   1      -4.038 -31.060  39.186  0.00  0.00     0.066 H 
ATOM     40  H16 EV1 d   1      -2.698 -30.902  38.000  0.00  0.00     0.066 H 
ATOM     41  H17 EV1 d   1      -4.390 -31.084  37.425  0.00  0.00     0.066 H 
ENDBRANCH  37  38
ENDBRANCH   8  37
BRANCH   9  42
ATOM     42  O18 EV1 d   1      -2.287 -26.859  38.486  0.00  0.00    -0.353 OA
BRANCH  42  43
ATOM     43  C19 EV1 d   1      -2.194 -25.499  38.918  0.00  0.00     0.010 C 
ATOM     44  H19 EV1 d   1      -1.769 -25.465  39.932  0.00  0.00     0.066 H 
ATOM     45  H20 EV1 d   1      -3.197 -25.047  38.925  0.00  0.00     0.066 H 
ATOM     46  H21 EV1 d   1      -1.545 -24.939  38.229  0.00  0.00     0.066 H 
ENDBRANCH  42  43
ENDBRANCH   9  42
TORSDOF 10
