REMARK  15 active torsions:
REMARK  status: ('A' for Active; 'I' for Inactive)
REMARK    1  A    between atoms: C7_7  and  C3_3 
REMARK    2  A    between atoms: C5_5  and  N27_27 
REMARK       I    between atoms: N8_8  and  C7_7 
REMARK    3  A    between atoms: C10_10  and  N8_8 
REMARK    4  A    between atoms: C10_10  and  C11_11 
REMARK    5  A    between atoms: C12_12  and  C10_10 
REMARK    6  A    between atoms: C11_11  and  C14_14 
REMARK    7  A    between atoms: C12_12  and  O13_13 
REMARK    8  A    between atoms: C15_15  and  C12_12 
REMARK    9  A    between atoms: N16_16  and  C15_15 
REMARK   10  A    between atoms: C17_17  and  N16_16 
REMARK   11  A    between atoms: C38_38  and  C17_17 
REMARK   12  A    between atoms: N23_23  and  C33_33 
REMARK   13  A    between atoms: C33_33  and  C32_32 
REMARK   14  A    between atoms: C34_34  and  O40_40 
REMARK   15  A    between atoms: O40_40  and  C41_41 
ROOT
ATOM      1  C10 ZYE d   1      28.846   2.447  32.637  0.00  0.00     0.042 C 
ATOM      2  H4  ZYE d   1      29.808   2.828  32.263  0.00  0.00     0.077 H 
ENDROOT
BRANCH   1   3
ATOM      3  N8  ZYE d   1      29.133   1.449  33.696  0.00  0.00    -0.349 N 
ATOM      4  C7  ZYE d   1      30.313   1.355  34.374  0.00  0.00     0.252 C 
ATOM      5  O9  ZYE d   1      31.295   2.126  34.229  0.00  0.00    -0.268 OA
ATOM      6  H3  ZYE d   1      28.410   0.799  33.930  0.00  0.00     0.163 HD
BRANCH   4   7
ATOM      7  C3  ZYE d   1      30.494   0.128  35.171  0.00  0.00     0.036 A 
ATOM      8  C2  ZYE d   1      30.015  -1.155  34.639  0.00  0.00    -0.041 A 
ATOM      9  C1  ZYE d   1      30.198  -2.349  35.396  0.00  0.00     0.047 A 
ATOM     10  H1  ZYE d   1      29.524  -1.194  33.673  0.00  0.00     0.088 H 
ATOM     11  C6  ZYE d   1      30.828  -2.372  36.671  0.00  0.00     0.019 A 
ATOM     12  N23 ZYE d   1      29.828  -3.658  35.092  0.00  0.00    -0.356 N 
ATOM     13  C5  ZYE d   1      31.318  -1.059  37.218  0.00  0.00     0.050 A 
ATOM     14  C31 ZYE d   1      30.863  -3.687  37.167  0.00  0.00    -0.054 A 
ATOM     15  C4  ZYE d   1      31.131   0.151  36.447  0.00  0.00    -0.041 A 
ATOM     16  H2  ZYE d   1      31.482   1.095  36.848  0.00  0.00     0.088 H 
ATOM     17  C30 ZYE d   1      30.233  -4.440  36.154  0.00  0.00    -0.019 A 
ATOM     18  H27 ZYE d   1      31.278  -4.040  38.110  0.00  0.00     0.087 H 
ATOM     19  H26 ZYE d   1      30.083  -5.518  36.205  0.00  0.00     0.111 H 
BRANCH  13  20
ATOM     20  N27 ZYE d   1      31.973  -0.977  38.501  0.00  0.00    -0.317 N 
ATOM     21  C26 ZYE d   1      31.326  -1.214  39.678  0.00  0.00     0.224 A 
ATOM     22  C25 ZYE d   1      32.352  -1.034  40.785  0.00  0.00     0.011 A 
ATOM     23  O29 ZYE d   1      30.113  -1.524  39.794  0.00  0.00    -0.273 OA
ATOM     24  C24 ZYE d   1      33.671  -0.660  40.075  0.00  0.00    -0.042 A 
ATOM     25  H22 ZYE d   1      32.042  -0.229  41.468  0.00  0.00     0.047 H 
ATOM     26  H23 ZYE d   1      32.473  -1.969  41.352  0.00  0.00     0.047 H 
ATOM     27  C28 ZYE d   1      33.381  -0.636  38.591  0.00  0.00     0.003 A 
ATOM     28  H20 ZYE d   1      34.445  -1.409  40.297  0.00  0.00     0.036 H 
ATOM     29  H21 ZYE d   1      34.013   0.331  40.410  0.00  0.00     0.036 H 
ATOM     30  H24 ZYE d   1      33.997  -1.377  38.060  0.00  0.00     0.065 H 
ATOM     31  H25 ZYE d   1      33.568   0.364  38.172  0.00  0.00     0.065 H 
ENDBRANCH  13  20
BRANCH  12  32
ATOM     32  C33 ZYE d   1      29.134  -4.095  33.853  0.00  0.00    -0.004 C 
ATOM     33  H31 ZYE d   1      29.328  -5.167  33.702  0.00  0.00     0.064 H 
ATOM     34  H32 ZYE d   1      29.540  -3.525  33.004  0.00  0.00     0.064 H 
BRANCH  32  35
ATOM     35  C32 ZYE d   1      27.615  -3.876  33.908  0.00  0.00    -0.061 C 
ATOM     36  H28 ZYE d   1      27.161  -4.218  32.966  0.00  0.00     0.029 H 
ATOM     37  H29 ZYE d   1      27.404  -2.806  34.050  0.00  0.00     0.029 H 
ATOM     38  H30 ZYE d   1      27.192  -4.448  34.747  0.00  0.00     0.029 H 
ENDBRANCH  32  35
ENDBRANCH  12  32
ENDBRANCH   4   7
ENDBRANCH   1   3
BRANCH   1  39
ATOM     39  C11 ZYE d   1      28.131   1.676  31.502  0.00  0.00    -0.020 C 
ATOM     40  H5  ZYE d   1      28.044   2.324  30.617  0.00  0.00     0.043 H 
ATOM     41  H6  ZYE d   1      27.127   1.377  31.838  0.00  0.00     0.043 H 
BRANCH  39  42
ATOM     42  C14 ZYE d   1      28.945   0.424  31.142  0.00  0.00    -0.056 A 
ATOM     43  C18 ZYE d   1      28.131  -0.799  31.000  0.00  0.00    -0.077 A 
ATOM     44  C19 ZYE d   1      28.761  -2.099  30.679  0.00  0.00    -0.082 A 
ATOM     45  H15 ZYE d   1      27.056  -0.744  31.133  0.00  0.00     0.084 H 
ATOM     46  C20 ZYE d   1      30.226  -2.192  30.500  0.00  0.00    -0.083 A 
ATOM     47  H16 ZYE d   1      28.147  -2.986  30.575  0.00  0.00     0.083 H 
ATOM     48  C21 ZYE d   1      31.073  -0.971  30.637  0.00  0.00    -0.082 A 
ATOM     49  H17 ZYE d   1      30.684  -3.147  30.269  0.00  0.00     0.083 H 
ATOM     50  C22 ZYE d   1      30.452   0.332  30.954  0.00  0.00    -0.077 A 
ATOM     51  H18 ZYE d   1      32.147  -1.040  30.504  0.00  0.00     0.083 H 
ATOM     52  H19 ZYE d   1      31.068   1.219  31.052  0.00  0.00     0.084 H 
ENDBRANCH  39  42
ENDBRANCH   1  39
BRANCH   1  53
ATOM     53  C12 ZYE d   1      27.993   3.692  33.070  0.00  0.00     0.078 C 
ATOM     54  H7  ZYE d   1      27.026   3.322  33.442  0.00  0.00     0.088 H 
BRANCH  53  55
ATOM     55  O13 ZYE d   1      27.743   4.603  32.005  0.00  0.00    -0.392 OA
ATOM     56  H8  ZYE d   1      27.268   4.157  31.313  0.00  0.00     0.210 HD
ENDBRANCH  53  55
BRANCH  53  57
ATOM     57  C15 ZYE d   1      28.694   4.470  34.197  0.00  0.00     0.107 C 
ATOM     58  H9  ZYE d   1      29.680   4.788  33.829  0.00  0.00     0.079 H 
ATOM     59  H10 ZYE d   1      28.824   3.789  35.051  0.00  0.00     0.079 H 
BRANCH  57  60
ATOM     60  N16 ZYE d   1      27.974   5.670  34.673  0.00  0.00    -0.069 N 
ATOM     61  H11 ZYE d   1      27.315   5.340  35.360  0.00  0.00     0.277 HD
ATOM     62  H12 ZYE d   1      27.475   6.026  33.873  0.00  0.00     0.277 HD
BRANCH  60  63
ATOM     63  C17 ZYE d   1      28.660   6.871  35.301  0.00  0.00     0.105 C 
ATOM     64  H13 ZYE d   1      29.052   6.587  36.289  0.00  0.00     0.083 H 
ATOM     65  H14 ZYE d   1      27.928   7.684  35.417  0.00  0.00     0.083 H 
BRANCH  63  66
ATOM     66  C38 ZYE d   1      29.811   7.356  34.428  0.00  0.00    -0.030 A 
ATOM     67  C37 ZYE d   1      31.171   7.226  34.901  0.00  0.00    -0.075 A 
ATOM     68  C36 ZYE d   1      32.267   7.675  34.092  0.00  0.00    -0.080 A 
ATOM     69  H35 ZYE d   1      31.364   6.787  35.873  0.00  0.00     0.084 H 
ATOM     70  C35 ZYE d   1      32.023   8.258  32.808  0.00  0.00    -0.051 A 
ATOM     71  H34 ZYE d   1      33.283   7.572  34.454  0.00  0.00     0.083 H 
ATOM     72  C34 ZYE d   1      30.668   8.408  32.295  0.00  0.00     0.068 A 
ATOM     73  H33 ZYE d   1      32.861   8.594  32.207  0.00  0.00     0.087 H 
ATOM     74  C39 ZYE d   1      29.567   7.945  33.134  0.00  0.00    -0.043 A 
ATOM     75  H36 ZYE d   1      28.548   8.046  32.778  0.00  0.00     0.088 H 
BRANCH  72  76
ATOM     76  O40 ZYE d   1      30.339   8.978  31.032  0.00  0.00    -0.356 OA
BRANCH  76  77
ATOM     77  C41 ZYE d   1      28.990   9.108  30.570  0.00  0.00     0.010 C 
ATOM     78  H37 ZYE d   1      28.987   9.574  29.574  0.00  0.00     0.066 H 
ATOM     79  H38 ZYE d   1      28.421   9.737  31.271  0.00  0.00     0.066 H 
ATOM     80  H39 ZYE d   1      28.525   8.113  30.511  0.00  0.00     0.066 H 
ENDBRANCH  76  77
ENDBRANCH  72  76
ENDBRANCH  63  66
ENDBRANCH  60  63
ENDBRANCH  57  60
ENDBRANCH  53  57
ENDBRANCH   1  53
TORSDOF 15
