REMARK  14 active torsions:
REMARK  status: ('A' for Active; 'I' for Inactive)
REMARK    1  A    between atoms: C7_7  and  C3_3 
REMARK    2  A    between atoms: C5_5  and  N27_27 
REMARK       I    between atoms: N8_8  and  C7_7 
REMARK    3  A    between atoms: C10_10  and  N8_8 
REMARK    4  A    between atoms: C10_10  and  C11_11 
REMARK    5  A    between atoms: C12_12  and  C10_10 
REMARK    6  A    between atoms: C11_11  and  C14_14 
REMARK    7  A    between atoms: C12_12  and  O13_13 
REMARK    8  A    between atoms: C15_15  and  C12_12 
REMARK    9  A    between atoms: N16_16  and  C15_15 
REMARK   10  A    between atoms: C17_17  and  N16_16 
REMARK   11  A    between atoms: C38_38  and  C17_17 
REMARK   12  A    between atoms: C9_23  and  C33_33 
REMARK   13  A    between atoms: C33_33  and  C32_32 
REMARK   14  A    between atoms: C34_34  and  C8_40 
ROOT
ATOM      1  C10 ZY0 d   1      28.841   2.482  32.549  0.00  0.00     0.042 C 
ATOM      2  H4  ZY0 d   1      29.818   2.825  32.176  0.00  0.00     0.077 H 
ENDROOT
BRANCH   1   3
ATOM      3  N8  ZY0 d   1      29.053   1.577  33.694  0.00  0.00    -0.349 N 
ATOM      4  C7  ZY0 d   1      30.278   1.409  34.274  0.00  0.00     0.252 C 
ATOM      5  O9  ZY0 d   1      31.176   2.247  34.125  0.00  0.00    -0.268 OA
ATOM      6  H3  ZY0 d   1      28.273   1.069  34.058  0.00  0.00     0.163 HD
BRANCH   4   7
ATOM      7  C3  ZY0 d   1      30.440   0.166  35.033  0.00  0.00     0.035 A 
ATOM      8  C2  ZY0 d   1      29.992  -1.090  34.515  0.00  0.00    -0.055 A 
ATOM      9  C1  ZY0 d   1      30.172  -2.302  35.271  0.00  0.00     0.002 A 
ATOM     10  H1  ZY0 d   1      29.512  -1.130  33.544  0.00  0.00     0.086 H 
ATOM     11  C6  ZY0 d   1      30.824  -2.221  36.571  0.00  0.00     0.094 A 
ATOM     12  C9  ZY0 d   1      29.736  -3.601  34.783  0.00  0.00    -0.044 A 
ATOM     13  C5  ZY0 d   1      31.260  -0.951  37.072  0.00  0.00     0.067 A 
ATOM     14  N1  ZY0 d   1      31.008  -3.392  37.306  0.00  0.00    -0.258 NA
ATOM     15  C4  ZY0 d   1      31.070   0.228  36.308  0.00  0.00    -0.039 A 
ATOM     16  H2  ZY0 d   1      31.406   1.182  36.697  0.00  0.00     0.088 H 
ATOM     17  C30 ZY0 d   1      30.602  -4.598  36.841  0.00  0.00     0.004 A 
ATOM     18  C13 ZY0 d   1      29.964  -4.743  35.592  0.00  0.00    -0.059 A 
ATOM     19  H26 ZY0 d   1      30.773  -5.479  37.448  0.00  0.00     0.114 H 
ATOM     20  H36 ZY0 d   1      29.649  -5.723  35.252  0.00  0.00     0.086 H 
BRANCH  13  21
ATOM     21  N27 ZY0 d   1      31.874  -0.891  38.297  0.00  0.00    -0.316 N 
ATOM     22  C26 ZY0 d   1      31.226  -1.082  39.483  0.00  0.00     0.224 A 
ATOM     23  C25 ZY0 d   1      32.230  -0.943  40.615  0.00  0.00     0.011 A 
ATOM     24  O1  ZY0 d   1      30.035  -1.336  39.672  0.00  0.00    -0.273 OA
ATOM     25  C24 ZY0 d   1      33.566  -0.628  39.931  0.00  0.00    -0.042 A 
ATOM     26  H22 ZY0 d   1      31.940  -0.124  41.290  0.00  0.00     0.047 H 
ATOM     27  H23 ZY0 d   1      32.300  -1.881  41.185  0.00  0.00     0.047 H 
ATOM     28  C28 ZY0 d   1      33.298  -0.611  38.430  0.00  0.00     0.003 A 
ATOM     29  H20 ZY0 d   1      34.308  -1.402  40.175  0.00  0.00     0.036 H 
ATOM     30  H21 ZY0 d   1      33.938   0.353  40.261  0.00  0.00     0.036 H 
ATOM     31  H24 ZY0 d   1      33.893  -1.385  37.922  0.00  0.00     0.065 H 
ATOM     32  H25 ZY0 d   1      33.539   0.375  38.005  0.00  0.00     0.065 H 
ENDBRANCH  13  21
BRANCH  12  33
ATOM     33  C33 ZY0 d   1      29.047  -3.806  33.448  0.00  0.00    -0.043 C 
ATOM     34  H30 ZY0 d   1      29.373  -4.769  33.029  0.00  0.00     0.039 H 
ATOM     35  H31 ZY0 d   1      29.346  -2.992  32.771  0.00  0.00     0.039 H 
BRANCH  33  36
ATOM     36  C32 ZY0 d   1      27.520  -3.814  33.557  0.00  0.00    -0.073 C 
ATOM     37  H27 ZY0 d   1      27.082  -3.966  32.559  0.00  0.00     0.028 H 
ATOM     38  H28 ZY0 d   1      27.177  -2.852  33.966  0.00  0.00     0.028 H 
ATOM     39  H29 ZY0 d   1      27.204  -4.630  34.224  0.00  0.00     0.028 H 
ENDBRANCH  33  36
ENDBRANCH  12  33
ENDBRANCH   4   7
ENDBRANCH   1   3
BRANCH   1  40
ATOM     40  C11 ZY0 d   1      28.135   1.688  31.425  0.00  0.00    -0.020 C 
ATOM     41  H5  ZY0 d   1      28.034   2.345  30.548  0.00  0.00     0.043 H 
ATOM     42  H6  ZY0 d   1      27.136   1.396  31.782  0.00  0.00     0.043 H 
BRANCH  40  43
ATOM     43  C14 ZY0 d   1      28.879   0.428  30.997  0.00  0.00    -0.056 A 
ATOM     44  C18 ZY0 d   1      28.138  -0.743  30.698  0.00  0.00    -0.077 A 
ATOM     45  C19 ZY0 d   1      28.792  -1.938  30.308  0.00  0.00    -0.082 A 
ATOM     46  H15 ZY0 d   1      27.056  -0.724  30.769  0.00  0.00     0.084 H 
ATOM     47  C20 ZY0 d   1      30.204  -1.981  30.221  0.00  0.00    -0.083 A 
ATOM     48  H16 ZY0 d   1      28.209  -2.822  30.076  0.00  0.00     0.083 H 
ATOM     49  C21 ZY0 d   1      30.961  -0.817  30.516  0.00  0.00    -0.082 A 
ATOM     50  H17 ZY0 d   1      30.704  -2.898  29.931  0.00  0.00     0.083 H 
ATOM     51  C22 ZY0 d   1      30.305   0.374  30.901  0.00  0.00    -0.077 A 
ATOM     52  H18 ZY0 d   1      32.042  -0.842  30.446  0.00  0.00     0.083 H 
ATOM     53  H19 ZY0 d   1      30.890   1.258  31.127  0.00  0.00     0.084 H 
ENDBRANCH  40  43
ENDBRANCH   1  40
BRANCH   1  54
ATOM     54  C12 ZY0 d   1      28.030   3.722  32.992  0.00  0.00     0.078 C 
ATOM     55  H7  ZY0 d   1      27.059   3.375  33.376  0.00  0.00     0.088 H 
BRANCH  54  56
ATOM     56  O13 ZY0 d   1      27.812   4.582  31.905  0.00  0.00    -0.392 OA
ATOM     57  H8  ZY0 d   1      27.328   4.121  31.230  0.00  0.00     0.210 HD
ENDBRANCH  54  56
BRANCH  54  58
ATOM     58  C15 ZY0 d   1      28.728   4.526  34.089  0.00  0.00     0.107 C 
ATOM     59  H9  ZY0 d   1      29.709   4.857  33.718  0.00  0.00     0.079 H 
ATOM     60  H10 ZY0 d   1      28.867   3.881  34.969  0.00  0.00     0.079 H 
BRANCH  58  61
ATOM     61  N16 ZY0 d   1      27.944   5.706  34.482  0.00  0.00    -0.069 N 
ATOM     62  H11 ZY0 d   1      27.284   5.415  35.186  0.00  0.00     0.277 HD
ATOM     63  H12 ZY0 d   1      27.446   6.028  33.667  0.00  0.00     0.277 HD
BRANCH  61  64
ATOM     64  C17 ZY0 d   1      28.706   6.853  35.027  0.00  0.00     0.105 C 
ATOM     65  H13 ZY0 d   1      29.209   6.527  35.950  0.00  0.00     0.083 H 
ATOM     66  H14 ZY0 d   1      27.996   7.660  35.261  0.00  0.00     0.083 H 
BRANCH  64  67
ATOM     67  C38 ZY0 d   1      29.756   7.402  34.080  0.00  0.00    -0.032 A 
ATOM     68  C37 ZY0 d   1      31.131   7.375  34.442  0.00  0.00    -0.075 A 
ATOM     69  C36 ZY0 d   1      32.114   7.883  33.563  0.00  0.00    -0.082 A 
ATOM     70  H34 ZY0 d   1      31.427   6.962  35.399  0.00  0.00     0.084 H 
ATOM     71  C35 ZY0 d   1      31.736   8.426  32.313  0.00  0.00    -0.068 A 
ATOM     72  H33 ZY0 d   1      33.160   7.856  33.847  0.00  0.00     0.083 H 
ATOM     73  C34 ZY0 d   1      30.362   8.464  31.924  0.00  0.00     0.048 A 
ATOM     74  H32 ZY0 d   1      32.495   8.816  31.645  0.00  0.00     0.084 H 
ATOM     75  C39 ZY0 d   1      29.385   7.947  32.827  0.00  0.00    -0.061 A 
ATOM     76  H35 ZY0 d   1      28.338   7.972  32.548  0.00  0.00     0.085 H 
BRANCH  73  77
ATOM     77  C8  ZY0 d   1      29.907   9.039  30.587  0.00  0.00     0.417 C 
ATOM     78  F3  ZY0 d   1      29.056  10.015  30.827  0.00  0.00    -0.166 F 
ATOM     79  F1  ZY0 d   1      29.312   8.077  29.911  0.00  0.00    -0.166 F 
ATOM     80  F2  ZY0 d   1      30.934   9.485  29.885  0.00  0.00    -0.166 F 
ENDBRANCH  73  77
ENDBRANCH  64  67
ENDBRANCH  61  64
ENDBRANCH  58  61
ENDBRANCH  54  58
ENDBRANCH   1  54
TORSDOF 14
