REMARK  15 active torsions:
REMARK  status: ('A' for Active; 'I' for Inactive)
REMARK    1  A    between atoms: C68_2  and  C69_1 
REMARK    2  A    between atoms: C58_3  and  C68_2 
REMARK    3  A    between atoms: N59_11  and  C75_12 
REMARK    4  A    between atoms: C1_19  and  C8_15 
REMARK       I    between atoms: N2_21  and  C1_19 
REMARK    5  A    between atoms: C3_22  and  N2_21 
REMARK    6  A    between atoms: C3_22  and  C5_23 
REMARK    7  A    between atoms: C4_31  and  C3_22 
REMARK    8  A    between atoms: C5_23  and  C14_24 
REMARK    9  A    between atoms: O47_30  and  C48_32 
REMARK   10  A    between atoms: C43_39  and  O47_30 
REMARK   11  A    between atoms: C4_31  and  O21_33 
REMARK   12  A    between atoms: C6_34  and  C4_31 
REMARK   13  A    between atoms: N20_35  and  C6_34 
REMARK   14  A    between atoms: C37_36  and  N20_35 
REMARK   15  A    between atoms: C39_37  and  C37_36 
ROOT
ATOM      1  C3  ZY1 d   1      28.743   2.663  32.725  0.00  0.00     0.042 C 
ATOM      2  H17 ZY1 d   1      29.681   3.167  32.448  0.00  0.00     0.077 H 
ENDROOT
BRANCH   1   3
ATOM      3  N2  ZY1 d   1      29.047   1.597  33.704  0.00  0.00    -0.349 N 
ATOM      4  C1  ZY1 d   1      30.200   1.580  34.431  0.00  0.00     0.252 C 
ATOM      5  O7  ZY1 d   1      31.035   2.478  34.307  0.00  0.00    -0.268 OA
ATOM      6  H16 ZY1 d   1      28.382   0.862  33.837  0.00  0.00     0.163 HD
BRANCH   4   7
ATOM      7  C8  ZY1 d   1      30.429   0.407  35.307  0.00  0.00     0.034 A 
ATOM      8  C9  ZY1 d   1      31.105   0.469  36.571  0.00  0.00    -0.044 A 
ATOM      9  C10 ZY1 d   1      31.332  -0.736  37.345  0.00  0.00     0.053 A 
ATOM     10  H14 ZY1 d   1      31.449   1.424  36.950  0.00  0.00     0.087 H 
ATOM     11  N59 ZY1 d   1      32.003  -0.683  38.567  0.00  0.00    -0.178 NA
ATOM     12  C11 ZY1 d   1      30.884  -1.969  36.833  0.00  0.00     0.067 A 
ATOM     13  S60 ZY1 d   1      31.101  -1.221  39.864  0.00  0.00     0.217 S 
ATOM     14  C61 ZY1 d   1      31.292  -2.989  39.943  0.00  0.00     0.057 C 
ATOM     15  O80 ZY1 d   1      29.719  -0.957  39.607  0.00  0.00    -0.211 OA
ATOM     16  O79 ZY1 d   1      31.678  -0.638  41.049  0.00  0.00    -0.211 OA
ATOM     17  C62 ZY1 d   1      31.624  -3.685  38.604  0.00  0.00     0.013 C 
ATOM     18  H9  ZY1 d   1      32.105  -3.210  40.650  0.00  0.00     0.060 H 
ATOM     19  H10 ZY1 d   1      30.351  -3.414  40.321  0.00  0.00     0.060 H 
ATOM     20  N56 ZY1 d   1      30.961  -3.291  37.320  0.00  0.00    -0.353 N 
ATOM     21  H7  ZY1 d   1      32.704  -3.551  38.447  0.00  0.00     0.066 H 
ATOM     22  H8  ZY1 d   1      31.404  -4.753  38.749  0.00  0.00     0.066 H 
ATOM     23  C57 ZY1 d   1      30.358  -4.126  36.428  0.00  0.00    -0.013 A 
ATOM     24  C58 ZY1 d   1      29.866  -3.410  35.334  0.00  0.00    -0.030 A 
ATOM     25  H6  ZY1 d   1      30.271  -5.205  36.551  0.00  0.00     0.112 H 
ATOM     26  C12 ZY1 d   1      30.196  -2.023  35.571  0.00  0.00     0.001 A 
ATOM     27  C13 ZY1 d   1      29.982  -0.862  34.832  0.00  0.00    -0.055 A 
ATOM     28  H15 ZY1 d   1      29.467  -0.923  33.880  0.00  0.00     0.086 H 
BRANCH  11  29
ATOM     29  C75 ZY1 d   1      32.741   0.582  38.821  0.00  0.00    -0.015 C 
ATOM     30  H11 ZY1 d   1      33.306   0.864  37.920  0.00  0.00     0.050 H 
ATOM     31  H12 ZY1 d   1      33.437   0.438  39.661  0.00  0.00     0.050 H 
ATOM     32  H13 ZY1 d   1      32.026   1.380  39.070  0.00  0.00     0.050 H 
ENDBRANCH  11  29
BRANCH  24  33
ATOM     33  C68 ZY1 d   1      29.137  -4.002  34.132  0.00  0.00    -0.042 C 
ATOM     34  H4  ZY1 d   1      29.459  -3.477  33.221  0.00  0.00     0.039 H 
ATOM     35  H5  ZY1 d   1      29.388  -5.070  34.048  0.00  0.00     0.039 H 
BRANCH  33  36
ATOM     36  C69 ZY1 d   1      27.618  -3.854  34.288  0.00  0.00    -0.073 C 
ATOM     37  H1  ZY1 d   1      27.115  -4.287  33.411  0.00  0.00     0.028 H 
ATOM     38  H2  ZY1 d   1      27.360  -2.788  34.369  0.00  0.00     0.028 H 
ATOM     39  H3  ZY1 d   1      27.290  -4.381  35.196  0.00  0.00     0.028 H 
ENDBRANCH  33  36
ENDBRANCH  24  33
ENDBRANCH   4   7
ENDBRANCH   1   3
BRANCH   1  40
ATOM     40  C5  ZY1 d   1      28.198   1.921  31.460  0.00  0.00    -0.020 C 
ATOM     41  H18 ZY1 d   1      28.377   2.563  30.585  0.00  0.00     0.043 H 
ATOM     42  H19 ZY1 d   1      27.116   1.774  31.591  0.00  0.00     0.043 H 
BRANCH  40  43
ATOM     43  C14 ZY1 d   1      28.827   0.563  31.184  0.00  0.00    -0.056 A 
ATOM     44  C15 ZY1 d   1      28.020  -0.610  31.128  0.00  0.00    -0.077 A 
ATOM     45  C16 ZY1 d   1      28.606  -1.878  30.878  0.00  0.00    -0.082 A 
ATOM     46  H20 ZY1 d   1      26.949  -0.533  31.278  0.00  0.00     0.084 H 
ATOM     47  C17 ZY1 d   1      30.003  -1.988  30.684  0.00  0.00    -0.083 A 
ATOM     48  H21 ZY1 d   1      27.982  -2.764  30.836  0.00  0.00     0.083 H 
ATOM     49  C18 ZY1 d   1      30.818  -0.829  30.738  0.00  0.00    -0.082 A 
ATOM     50  H22 ZY1 d   1      30.450  -2.957  30.494  0.00  0.00     0.083 H 
ATOM     51  C19 ZY1 d   1      30.235   0.436  30.984  0.00  0.00    -0.077 A 
ATOM     52  H23 ZY1 d   1      31.889  -0.912  30.591  0.00  0.00     0.083 H 
ATOM     53  H24 ZY1 d   1      30.864   1.318  31.021  0.00  0.00     0.084 H 
ENDBRANCH  40  43
ENDBRANCH   1  40
BRANCH   1  54
ATOM     54  C4  ZY1 d   1      27.810   3.746  33.310  0.00  0.00     0.078 C 
ATOM     55  H25 ZY1 d   1      26.913   3.246  33.703  0.00  0.00     0.088 H 
BRANCH  54  56
ATOM     56  O21 ZY1 d   1      27.446   4.615  32.251  0.00  0.00    -0.392 OA
ATOM     57  H29 ZY1 d   1      26.997   4.119  31.576  0.00  0.00     0.210 HD
ENDBRANCH  54  56
BRANCH  54  58
ATOM     58  C6  ZY1 d   1      28.406   4.602  34.435  0.00  0.00     0.107 C 
ATOM     59  H30 ZY1 d   1      29.458   4.822  34.203  0.00  0.00     0.079 H 
ATOM     60  H31 ZY1 d   1      28.348   4.045  35.382  0.00  0.00     0.079 H 
BRANCH  58  61
ATOM     61  N20 ZY1 d   1      27.666   5.868  34.572  0.00  0.00    -0.069 N 
ATOM     62  H32 ZY1 d   1      26.831   5.687  35.107  0.00  0.00     0.277 HD
ATOM     63  H33 ZY1 d   1      27.412   6.184  33.649  0.00  0.00     0.277 HD
BRANCH  61  64
ATOM     64  C37 ZY1 d   1      28.411   6.952  35.238  0.00  0.00     0.105 C 
ATOM     65  H34 ZY1 d   1      28.862   6.556  36.160  0.00  0.00     0.083 H 
ATOM     66  H35 ZY1 d   1      27.709   7.760  35.490  0.00  0.00     0.083 H 
BRANCH  64  67
ATOM     67  C39 ZY1 d   1      29.509   7.517  34.363  0.00  0.00    -0.030 A 
ATOM     68  C42 ZY1 d   1      29.217   7.951  33.045  0.00  0.00    -0.043 A 
ATOM     69  C43 ZY1 d   1      30.241   8.486  32.201  0.00  0.00     0.068 A 
ATOM     70  H36 ZY1 d   1      28.202   7.876  32.671  0.00  0.00     0.088 H 
ATOM     71  C44 ZY1 d   1      31.560   8.573  32.710  0.00  0.00    -0.051 A 
ATOM     72  C45 ZY1 d   1      31.859   8.143  34.022  0.00  0.00    -0.080 A 
ATOM     73  H37 ZY1 d   1      32.350   8.974  32.085  0.00  0.00     0.087 H 
ATOM     74  C46 ZY1 d   1      30.838   7.617  34.846  0.00  0.00    -0.075 A 
ATOM     75  H38 ZY1 d   1      32.873   8.216  34.398  0.00  0.00     0.083 H 
ATOM     76  H39 ZY1 d   1      31.072   7.288  35.852  0.00  0.00     0.084 H 
BRANCH  69  77
ATOM     77  O47 ZY1 d   1      30.071   8.941  30.883  0.00  0.00    -0.356 OA
BRANCH  77  78
ATOM     78  C48 ZY1 d   1      28.792   9.410  30.482  0.00  0.00     0.010 C 
ATOM     79  H26 ZY1 d   1      28.831   9.726  29.429  0.00  0.00     0.066 H 
ATOM     80  H27 ZY1 d   1      28.501  10.264  31.111  0.00  0.00     0.066 H 
ATOM     81  H28 ZY1 d   1      28.053   8.603  30.595  0.00  0.00     0.066 H 
ENDBRANCH  77  78
ENDBRANCH  69  77
ENDBRANCH  64  67
ENDBRANCH  61  64
ENDBRANCH  58  61
ENDBRANCH  54  58
ENDBRANCH   1  54
TORSDOF 15
