REMARK  15 active torsions:
REMARK  status: ('A' for Active; 'I' for Inactive)
REMARK       I    between atoms: C1_1  and  N2_2 
REMARK    1  A    between atoms: C1_1  and  C8_8 
REMARK    2  A    between atoms: N2_2  and  C3_3 
REMARK    3  A    between atoms: C3_3  and  C4_4 
REMARK    4  A    between atoms: C3_3  and  C5_5 
REMARK    5  A    between atoms: C4_4  and  C6_6 
REMARK    6  A    between atoms: C4_4  and  O21_21 
REMARK    7  A    between atoms: C5_5  and  C14_14 
REMARK    8  A    between atoms: C6_6  and  N20_20 
REMARK    9  A    between atoms: N20_20  and  C37_22 
REMARK   10  A    between atoms: C37_22  and  C39_23 
REMARK   11  A    between atoms: C43_25  and  O47_29 
REMARK   12  A    between atoms: O47_29  and  C48_30 
REMARK   13  A    between atoms: N1_33  and  C68_38 
REMARK   14  A    between atoms: N59_34  and  C75_40 
REMARK   15  A    between atoms: C68_38  and  C69_39 
ROOT
ATOM      1  C3  ZY2 d   1      29.029   2.273  33.040  0.00  0.00     0.042 C 
ATOM      2  H2  ZY2 d   1      29.976   2.699  32.678  0.00  0.00     0.077 H 
ENDROOT
BRANCH   1   3
ATOM      3  N2  ZY2 d   1      29.362   1.303  34.091  0.00  0.00    -0.349 N 
ATOM      4  C1  ZY2 d   1      30.563   1.365  34.732  0.00  0.00     0.252 C 
ATOM      5  O7  ZY2 d   1      31.378   2.262  34.506  0.00  0.00    -0.268 OA
ATOM      6  H1  ZY2 d   1      28.703   0.592  34.338  0.00  0.00     0.163 HD
BRANCH   4   7
ATOM      7  C8  ZY2 d   1      30.899   0.205  35.551  0.00  0.00     0.036 A 
ATOM      8  C9  ZY2 d   1      31.545   0.373  36.784  0.00  0.00    -0.039 A 
ATOM      9  C10 ZY2 d   1      31.917  -0.749  37.569  0.00  0.00     0.074 A 
ATOM     10  H8  ZY2 d   1      31.763   1.373  37.142  0.00  0.00     0.088 H 
ATOM     11  C11 ZY2 d   1      31.639  -2.105  37.102  0.00  0.00     0.085 A 
ATOM     12  N59 ZY2 d   1      32.317  -0.443  38.902  0.00  0.00    -0.278 N 
ATOM     13  C12 ZY2 d   1      30.948  -2.277  35.844  0.00  0.00     0.060 A 
ATOM     14  N56 ZY2 d   1      32.081  -3.274  37.779  0.00  0.00    -0.375 N 
ATOM     15  C13 ZY2 d   1      30.594  -1.097  35.080  0.00  0.00    -0.040 A 
ATOM     16  N1  ZY2 d   1      30.619  -3.562  35.350  0.00  0.00    -0.378 N 
ATOM     17  H9  ZY2 d   1      30.086  -1.212  34.130  0.00  0.00     0.088 H 
ATOM     18  C57 ZY2 d   1      30.922  -4.810  36.107  0.00  0.00     0.010 C 
ATOM     19  C2  ZY2 d   1      31.828  -4.650  37.322  0.00  0.00     0.010 C 
ATOM     20  H27 ZY2 d   1      31.408  -5.514  35.415  0.00  0.00     0.066 H 
ATOM     21  H28 ZY2 d   1      29.968  -5.235  36.452  0.00  0.00     0.066 H 
ATOM     22  H41 ZY2 d   1      31.367  -5.199  38.156  0.00  0.00     0.066 H 
ATOM     23  H42 ZY2 d   1      32.799  -5.104  37.076  0.00  0.00     0.066 H 
ATOM     24  C62 ZY2 d   1      33.003  -3.264  38.937  0.00  0.00     0.009 C 
ATOM     25  C61 ZY2 d   1      32.422  -2.891  40.298  0.00  0.00     0.061 C 
ATOM     26  H31 ZY2 d   1      33.805  -2.545  38.713  0.00  0.00     0.065 H 
ATOM     27  H32 ZY2 d   1      33.430  -4.274  39.027  0.00  0.00     0.065 H 
ATOM     28  S60 ZY2 d   1      31.613  -1.322  40.222  0.00  0.00     0.234 S 
ATOM     29  H29 ZY2 d   1      31.695  -3.658  40.603  0.00  0.00     0.061 H 
ATOM     30  H30 ZY2 d   1      33.235  -2.843  41.037  0.00  0.00     0.061 H 
ATOM     31  O79 ZY2 d   1      30.233  -1.532  39.882  0.00  0.00    -0.205 OA
ATOM     32  O80 ZY2 d   1      31.933  -0.551  41.397  0.00  0.00    -0.205 OA
BRANCH  16  33
ATOM     33  C68 ZY2 d   1      29.919  -3.789  34.073  0.00  0.00    -0.008 C 
ATOM     34  H33 ZY2 d   1      30.305  -4.706  33.603  0.00  0.00     0.063 H 
ATOM     35  H34 ZY2 d   1      30.093  -2.933  33.404  0.00  0.00     0.063 H 
BRANCH  33  36
ATOM     36  C69 ZY2 d   1      28.405  -3.941  34.325  0.00  0.00    -0.061 C 
ATOM     37  H35 ZY2 d   1      27.889  -4.110  33.368  0.00  0.00     0.029 H 
ATOM     38  H36 ZY2 d   1      28.017  -3.024  34.794  0.00  0.00     0.029 H 
ATOM     39  H37 ZY2 d   1      28.229  -4.797  34.993  0.00  0.00     0.029 H 
ENDBRANCH  33  36
ENDBRANCH  16  33
BRANCH  12  40
ATOM     40  C75 ZY2 d   1      33.599   0.312  39.040  0.00  0.00    -0.004 C 
ATOM     41  H38 ZY2 d   1      33.849   0.788  38.080  0.00  0.00     0.058 H 
ATOM     42  H39 ZY2 d   1      34.404  -0.381  39.327  0.00  0.00     0.058 H 
ATOM     43  H40 ZY2 d   1      33.488   1.085  39.815  0.00  0.00     0.058 H 
ENDBRANCH  12  40
ENDBRANCH   4   7
ENDBRANCH   1   3
BRANCH   1  44
ATOM     44  C4  ZY2 d   1      28.171   3.465  33.518  0.00  0.00     0.078 C 
ATOM     45  H3  ZY2 d   1      27.317   3.082  34.096  0.00  0.00     0.088 H 
BRANCH  44  46
ATOM     46  C6  ZY2 d   1      28.983   4.432  34.366  0.00  0.00     0.107 C 
ATOM     47  H6  ZY2 d   1      29.827   4.820  33.776  0.00  0.00     0.079 H 
ATOM     48  H7  ZY2 d   1      29.366   3.910  35.255  0.00  0.00     0.079 H 
BRANCH  46  49
ATOM     49  N20 ZY2 d   1      28.107   5.562  34.789  0.00  0.00    -0.069 N 
ATOM     50  H15 ZY2 d   1      27.365   5.206  35.371  0.00  0.00     0.277 HD
ATOM     51  H16 ZY2 d   1      27.712   5.999  33.971  0.00  0.00     0.277 HD
BRANCH  49  52
ATOM     52  C37 ZY2 d   1      28.885   6.569  35.553  0.00  0.00     0.105 C 
ATOM     53  H18 ZY2 d   1      29.357   6.080  36.418  0.00  0.00     0.083 H 
ATOM     54  H19 ZY2 d   1      28.205   7.359  35.904  0.00  0.00     0.083 H 
BRANCH  52  55
ATOM     55  C39 ZY2 d   1      29.972   7.196  34.678  0.00  0.00    -0.030 A 
ATOM     56  C42 ZY2 d   1      29.647   7.678  33.363  0.00  0.00    -0.043 A 
ATOM     57  C43 ZY2 d   1      30.685   8.248  32.536  0.00  0.00     0.068 A 
ATOM     58  H20 ZY2 d   1      28.630   7.614  32.995  0.00  0.00     0.088 H 
ATOM     59  C44 ZY2 d   1      32.019   8.321  33.046  0.00  0.00    -0.051 A 
ATOM     60  C45 ZY2 d   1      32.346   7.849  34.352  0.00  0.00    -0.080 A 
ATOM     61  H21 ZY2 d   1      32.800   8.745  32.426  0.00  0.00     0.087 H 
ATOM     62  C46 ZY2 d   1      31.313   7.285  35.163  0.00  0.00    -0.075 A 
ATOM     63  H22 ZY2 d   1      33.362   7.917  34.724  0.00  0.00     0.083 H 
ATOM     64  H23 ZY2 d   1      31.549   6.921  36.156  0.00  0.00     0.084 H 
BRANCH  57  65
ATOM     65  O47 ZY2 d   1      30.495   8.747  31.240  0.00  0.00    -0.356 OA
BRANCH  65  66
ATOM     66  C48 ZY2 d   1      29.185   8.711  30.653  0.00  0.00     0.010 C 
ATOM     67  H24 ZY2 d   1      29.225   9.141  29.641  0.00  0.00     0.066 H 
ATOM     68  H25 ZY2 d   1      28.489   9.296  31.273  0.00  0.00     0.066 H 
ATOM     69  H26 ZY2 d   1      28.837   7.669  30.595  0.00  0.00     0.066 H 
ENDBRANCH  65  66
ENDBRANCH  57  65
ENDBRANCH  52  55
ENDBRANCH  49  52
ENDBRANCH  46  49
ENDBRANCH  44  46
BRANCH  44  70
ATOM     70  O21 ZY2 d   1      27.707   4.237  32.405  0.00  0.00    -0.392 OA
ATOM     71  H17 ZY2 d   1      27.188   3.685  31.832  0.00  0.00     0.210 HD
ENDBRANCH  44  70
ENDBRANCH   1  44
BRANCH   1  72
ATOM     72  C5  ZY2 d   1      28.378   1.498  31.854  0.00  0.00    -0.020 C 
ATOM     73  H4  ZY2 d   1      28.292   2.181  30.996  0.00  0.00     0.043 H 
ATOM     74  H5  ZY2 d   1      27.375   1.168  32.162  0.00  0.00     0.043 H 
BRANCH  72  75
ATOM     75  C14 ZY2 d   1      29.184   0.264  31.415  0.00  0.00    -0.056 A 
ATOM     76  C15 ZY2 d   1      28.439  -0.940  31.148  0.00  0.00    -0.077 A 
ATOM     77  C16 ZY2 d   1      29.126  -2.136  30.752  0.00  0.00    -0.082 A 
ATOM     78  H10 ZY2 d   1      27.360  -0.942  31.246  0.00  0.00     0.084 H 
ATOM     79  C17 ZY2 d   1      30.553  -2.117  30.631  0.00  0.00    -0.083 A 
ATOM     80  H11 ZY2 d   1      28.571  -3.044  30.547  0.00  0.00     0.083 H 
ATOM     81  C18 ZY2 d   1      31.310  -0.923  30.895  0.00  0.00    -0.082 A 
ATOM     82  H12 ZY2 d   1      31.073  -3.021  30.334  0.00  0.00     0.083 H 
ATOM     83  C19 ZY2 d   1      30.627   0.272  31.288  0.00  0.00    -0.077 A 
ATOM     84  H13 ZY2 d   1      32.390  -0.928  30.797  0.00  0.00     0.083 H 
ATOM     85  H14 ZY2 d   1      31.187   1.178  31.489  0.00  0.00     0.084 H 
ENDBRANCH  72  75
ENDBRANCH   1  72
TORSDOF 15
