REMARK  16 active torsions:
REMARK  status: ('A' for Active; 'I' for Inactive)
REMARK    1  A    between atoms: C13_2  and  C5_3 
REMARK       I    between atoms: C13_2  and  N3_20 
REMARK    2  A    between atoms: N2_13  and  C8_14 
REMARK    3  A    between atoms: C3_16  and  N1_17 
REMARK    4  A    between atoms: N1_17  and  C2_18 
REMARK    5  A    between atoms: C2_18  and  C1_19 
REMARK    6  A    between atoms: N3_20  and  C14_21 
REMARK    7  A    between atoms: C14_21  and  C15_22 
REMARK    8  A    between atoms: C14_21  and  C22_29 
REMARK    9  A    between atoms: C15_22  and  C16_23 
REMARK   10  A    between atoms: C22_29  and  O4_30 
REMARK   11  A    between atoms: C22_29  and  C23_31 
REMARK   12  A    between atoms: C23_31  and  N4_32 
REMARK   13  A    between atoms: N4_32  and  C24_33 
REMARK   14  A    between atoms: C24_33  and  C25_34 
REMARK   15  A    between atoms: C29_36  and  O5_37 
REMARK   16  A    between atoms: O5_37  and  C30_38 
ROOT
ATOM      1  C14 ZY3 d   1      29.001   2.469  32.744  0.00  0.00     0.042 C 
ATOM      2  H19 ZY3 d   1      29.969   2.893  32.438  0.00  0.00     0.077 H 
ENDROOT
BRANCH   1   3
ATOM      3  N3  ZY3 d   1      29.211   1.508  33.795  0.00  0.00    -0.349 N 
ATOM      4  C13 ZY3 d   1      30.340   1.440  34.504  0.00  0.00     0.252 C 
ATOM      5  O3  ZY3 d   1      31.266   2.258  34.383  0.00  0.00    -0.268 OA
ATOM      6  H18 ZY3 d   1      28.477   0.862  34.004  0.00  0.00     0.163 HD
BRANCH   4   7
ATOM      7  C5  ZY3 d   1      30.546   0.260  35.383  0.00  0.00     0.036 A 
ATOM      8  C6  ZY3 d   1      31.157   0.376  36.608  0.00  0.00    -0.041 A 
ATOM      9  C7  ZY3 d   1      31.388  -0.708  37.436  0.00  0.00     0.053 A 
ATOM     10  H1  ZY3 d   1      31.471   1.359  36.940  0.00  0.00     0.088 H 
ATOM     11  C12 ZY3 d   1      31.010  -1.977  37.034  0.00  0.00    -0.004 A 
ATOM     12  N2  ZY3 d   1      32.022  -0.514  38.702  0.00  0.00    -0.280 N 
ATOM     13  C11 ZY3 d   1      31.245  -3.252  37.851  0.00  0.00    -0.036 C 
ATOM     14  C3  ZY3 d   1      30.366  -2.106  35.825  0.00  0.00     0.037 A 
ATOM     15  C10 ZY3 d   1      32.552  -3.188  38.694  0.00  0.00    -0.047 C 
ATOM     16  H2  ZY3 d   1      31.312  -4.106  37.161  0.00  0.00     0.040 H 
ATOM     17  H3  ZY3 d   1      30.393  -3.397  38.532  0.00  0.00     0.040 H 
ATOM     18  C9  ZY3 d   1      32.245  -2.607  40.096  0.00  0.00     0.047 C 
ATOM     19  H4  ZY3 d   1      33.284  -2.544  38.184  0.00  0.00     0.034 H 
ATOM     20  H5  ZY3 d   1      32.967  -4.201  38.802  0.00  0.00     0.034 H 
ATOM     21  S   ZY3 d   1      31.415  -1.137  39.994  0.00  0.00     0.232 S 
ATOM     22  H6  ZY3 d   1      33.193  -2.445  40.630  0.00  0.00     0.058 H 
ATOM     23  H7  ZY3 d   1      31.628  -3.327  40.653  0.00  0.00     0.058 H 
ATOM     24  O1  ZY3 d   1      30.024  -1.426  39.813  0.00  0.00    -0.205 OA
ATOM     25  O2  ZY3 d   1      31.751  -0.332  41.161  0.00  0.00    -0.205 OA
ATOM     26  C4  ZY3 d   1      30.127  -0.990  34.984  0.00  0.00    -0.042 A 
ATOM     27  H11 ZY3 d   1      29.619  -1.119  34.035  0.00  0.00     0.088 H 
BRANCH  14  28
ATOM     28  N1  ZY3 d   1      29.977  -3.337  35.421  0.00  0.00    -0.390 N 
ATOM     29  H12 ZY3 d   1      30.303  -4.190  35.897  0.00  0.00     0.159 HD
BRANCH  28  30
ATOM     30  C2  ZY3 d   1      29.070  -3.396  34.275  0.00  0.00    -0.011 C 
ATOM     31  H13 ZY3 d   1      29.629  -3.117  33.370  0.00  0.00     0.063 H 
ATOM     32  H14 ZY3 d   1      28.252  -2.679  34.437  0.00  0.00     0.063 H 
BRANCH  30  33
ATOM     33  C1  ZY3 d   1      28.493  -4.726  34.077  0.00  0.00    -0.061 C 
ATOM     34  H15 ZY3 d   1      27.823  -4.709  33.205  0.00  0.00     0.029 H 
ATOM     35  H16 ZY3 d   1      27.923  -5.015  34.972  0.00  0.00     0.029 H 
ATOM     36  H17 ZY3 d   1      29.300  -5.454  33.905  0.00  0.00     0.029 H 
ENDBRANCH  30  33
ENDBRANCH  28  30
ENDBRANCH  14  28
BRANCH  12  37
ATOM     37  C8  ZY3 d   1      33.271   0.220  38.809  0.00  0.00    -0.004 C 
ATOM     38  H8  ZY3 d   1      33.563   0.593  37.816  0.00  0.00     0.058 H 
ATOM     39  H9  ZY3 d   1      34.056  -0.447  39.196  0.00  0.00     0.058 H 
ATOM     40  H10 ZY3 d   1      33.140   1.069  39.496  0.00  0.00     0.058 H 
ENDBRANCH  12  37
ENDBRANCH   4   7
ENDBRANCH   1   3
BRANCH   1  41
ATOM     41  C15 ZY3 d   1      28.402   1.714  31.550  0.00  0.00    -0.020 C 
ATOM     42  H20 ZY3 d   1      28.521   2.340  30.654  0.00  0.00     0.043 H 
ATOM     43  H21 ZY3 d   1      27.331   1.556  31.747  0.00  0.00     0.043 H 
BRANCH  41  44
ATOM     44  C16 ZY3 d   1      29.032   0.374  31.274  0.00  0.00    -0.056 A 
ATOM     45  C21 ZY3 d   1      28.227  -0.780  31.163  0.00  0.00    -0.077 A 
ATOM     46  C20 ZY3 d   1      28.787  -2.010  30.881  0.00  0.00    -0.082 A 
ATOM     47  H22 ZY3 d   1      27.155  -0.700  31.301  0.00  0.00     0.084 H 
ATOM     48  C19 ZY3 d   1      30.173  -2.097  30.706  0.00  0.00    -0.083 A 
ATOM     49  H23 ZY3 d   1      28.164  -2.893  30.797  0.00  0.00     0.083 H 
ATOM     50  C18 ZY3 d   1      30.974  -0.933  30.787  0.00  0.00    -0.082 A 
ATOM     51  H24 ZY3 d   1      30.634  -3.058  30.508  0.00  0.00     0.083 H 
ATOM     52  C17 ZY3 d   1      30.419   0.283  31.078  0.00  0.00    -0.077 A 
ATOM     53  H25 ZY3 d   1      32.042  -1.006  30.616  0.00  0.00     0.083 H 
ATOM     54  H26 ZY3 d   1      31.043   1.166  31.156  0.00  0.00     0.084 H 
ENDBRANCH  41  44
ENDBRANCH   1  41
BRANCH   1  55
ATOM     55  C22 ZY3 d   1      28.135   3.602  33.261  0.00  0.00     0.078 C 
ATOM     56  H27 ZY3 d   1      27.248   3.160  33.739  0.00  0.00     0.088 H 
BRANCH  55  57
ATOM     57  O4  ZY3 d   1      27.704   4.494  32.215  0.00  0.00    -0.392 OA
ATOM     58  H28 ZY3 d   1      27.197   4.008  31.575  0.00  0.00     0.210 HD
ENDBRANCH  55  57
BRANCH  55  59
ATOM     59  C23 ZY3 d   1      28.889   4.457  34.293  0.00  0.00     0.107 C 
ATOM     60  H29 ZY3 d   1      29.830   4.824  33.857  0.00  0.00     0.079 H 
ATOM     61  H30 ZY3 d   1      29.109   3.855  35.187  0.00  0.00     0.079 H 
BRANCH  59  62
ATOM     62  N4  ZY3 d   1      28.025   5.602  34.659  0.00  0.00    -0.069 N 
ATOM     63  H31 ZY3 d   1      27.396   5.254  35.366  0.00  0.00     0.277 HD
ATOM     64  H32 ZY3 d   1      27.503   5.827  33.826  0.00  0.00     0.277 HD
BRANCH  62  65
ATOM     65  C24 ZY3 d   1      28.530   6.894  35.175  0.00  0.00     0.105 C 
ATOM     66  H33 ZY3 d   1      28.881   6.750  36.207  0.00  0.00     0.083 H 
ATOM     67  H34 ZY3 d   1      27.707   7.624  35.166  0.00  0.00     0.083 H 
BRANCH  65  68
ATOM     68  C25 ZY3 d   1      29.682   7.443  34.337  0.00  0.00    -0.030 A 
ATOM     69  C31 ZY3 d   1      29.460   7.907  33.047  0.00  0.00    -0.043 A 
ATOM     70  C29 ZY3 d   1      30.533   8.367  32.286  0.00  0.00     0.068 A 
ATOM     71  H35 ZY3 d   1      28.458   7.911  32.634  0.00  0.00     0.088 H 
ATOM     72  C28 ZY3 d   1      31.811   8.394  32.807  0.00  0.00    -0.051 A 
ATOM     73  C27 ZY3 d   1      32.040   7.945  34.089  0.00  0.00    -0.080 A 
ATOM     74  H39 ZY3 d   1      32.633   8.768  32.208  0.00  0.00     0.087 H 
ATOM     75  C26 ZY3 d   1      30.985   7.440  34.854  0.00  0.00    -0.075 A 
ATOM     76  H40 ZY3 d   1      33.040   7.983  34.505  0.00  0.00     0.083 H 
ATOM     77  H41 ZY3 d   1      31.174   7.046  35.846  0.00  0.00     0.084 H 
BRANCH  70  78
ATOM     78  O5  ZY3 d   1      30.311   8.819  31.017  0.00  0.00    -0.356 OA
BRANCH  78  79
ATOM     79  C30 ZY3 d   1      28.978   8.947  30.592  0.00  0.00     0.010 C 
ATOM     80  H36 ZY3 d   1      28.957   9.319  29.557  0.00  0.00     0.066 H 
ATOM     81  H37 ZY3 d   1      28.451   9.656  31.247  0.00  0.00     0.066 H 
ATOM     82  H38 ZY3 d   1      28.482   7.966  30.639  0.00  0.00     0.066 H 
ENDBRANCH  78  79
ENDBRANCH  70  78
ENDBRANCH  65  68
ENDBRANCH  62  65
ENDBRANCH  59  62
ENDBRANCH  55  59
ENDBRANCH   1  55
TORSDOF 16
