REMARK  13 active torsions:
REMARK  status: ('A' for Active; 'I' for Inactive)
REMARK       I    between atoms: C1_1  and  N2_2 
REMARK    1  A    between atoms: C1_1  and  C8_8 
REMARK    2  A    between atoms: N2_2  and  C3_3 
REMARK    3  A    between atoms: C3_3  and  C4_4 
REMARK    4  A    between atoms: C3_3  and  C5_5 
REMARK    5  A    between atoms: C4_4  and  C6_6 
REMARK    6  A    between atoms: C4_4  and  O21_21 
REMARK    7  A    between atoms: C4_4  and  O2_39 
REMARK    8  A    between atoms: C5_5  and  C14_14 
REMARK    9  A    between atoms: C6_6  and  N20_20 
REMARK   10  A    between atoms: N20_20  and  C39_22 
REMARK   11  A    between atoms: N1_30  and  C68_34 
REMARK   12  A    between atoms: N59_31  and  C2_40 
REMARK   13  A    between atoms: C68_34  and  C69_35 
ROOT
ATOM      1  C3  ZY4 d   1      29.062   2.457  32.559  0.00  0.00     0.071 C 
ATOM      2  H2  ZY4 d   1      30.013   2.840  32.160  0.00  0.00     0.081 H 
ENDROOT
BRANCH   1   3
ATOM      3  N2  ZY4 d   1      29.331   1.583  33.716  0.00  0.00    -0.347 N 
ATOM      4  C1  ZY4 d   1      30.564   1.488  34.270  0.00  0.00     0.252 C 
ATOM      5  O7  ZY4 d   1      31.450   2.337  34.070  0.00  0.00    -0.268 OA
ATOM      6  H1  ZY4 d   1      28.582   1.045  34.103  0.00  0.00     0.163 HD
BRANCH   4   7
ATOM      7  C8  ZY4 d   1      30.772   0.318  35.112  0.00  0.00     0.036 A 
ATOM      8  C9  ZY4 d   1      31.380   0.479  36.377  0.00  0.00    -0.040 A 
ATOM      9  C10 ZY4 d   1      31.619  -0.639  37.243  0.00  0.00     0.058 A 
ATOM     10  H7  ZY4 d   1      31.673   1.471  36.701  0.00  0.00     0.088 H 
ATOM     11  C11 ZY4 d   1      31.226  -1.938  36.800  0.00  0.00     0.026 A 
ATOM     12  N59 ZY4 d   1      32.234  -0.388  38.467  0.00  0.00    -0.279 N 
ATOM     13  C12 ZY4 d   1      30.597  -2.100  35.495  0.00  0.00     0.048 A 
ATOM     14  C7  ZY4 d   1      31.299  -3.295  37.380  0.00  0.00    -0.027 A 
ATOM     15  C13 ZY4 d   1      30.385  -0.978  34.680  0.00  0.00    -0.041 A 
ATOM     16  N1  ZY4 d   1      30.324  -3.463  35.329  0.00  0.00    -0.356 N 
ATOM     17  H8  ZY4 d   1      29.920  -1.102  33.709  0.00  0.00     0.088 H 
ATOM     18  C57 ZY4 d   1      30.734  -4.141  36.426  0.00  0.00    -0.013 A 
ATOM     19  H26 ZY4 d   1      30.635  -5.218  36.549  0.00  0.00     0.112 H 
ATOM     20  C20 ZY4 d   1      31.841  -3.804  38.722  0.00  0.00    -0.025 C 
ATOM     21  C61 ZY4 d   1      32.510  -2.829  39.694  0.00  0.00     0.050 C 
ATOM     22  H34 ZY4 d   1      32.583  -4.582  38.491  0.00  0.00     0.041 H 
ATOM     23  H35 ZY4 d   1      30.992  -4.255  39.257  0.00  0.00     0.041 H 
ATOM     24  S60 ZY4 d   1      31.767  -1.219  39.804  0.00  0.00     0.233 S 
ATOM     25  H27 ZY4 d   1      32.486  -3.281  40.696  0.00  0.00     0.059 H 
ATOM     26  H28 ZY4 d   1      33.555  -2.698  39.376  0.00  0.00     0.059 H 
ATOM     27  O79 ZY4 d   1      30.333  -1.354  39.762  0.00  0.00    -0.205 OA
ATOM     28  O80 ZY4 d   1      32.332  -0.551  40.932  0.00  0.00    -0.205 OA
BRANCH  16  29
ATOM     29  C68 ZY4 d   1      29.680  -4.071  34.138  0.00  0.00    -0.004 C 
ATOM     30  H29 ZY4 d   1      29.922  -5.144  34.126  0.00  0.00     0.064 H 
ATOM     31  H30 ZY4 d   1      30.095  -3.591  33.240  0.00  0.00     0.064 H 
BRANCH  29  32
ATOM     32  C69 ZY4 d   1      28.146  -3.923  34.098  0.00  0.00    -0.061 C 
ATOM     33  H31 ZY4 d   1      27.755  -4.399  33.187  0.00  0.00     0.029 H 
ATOM     34  H32 ZY4 d   1      27.881  -2.856  34.096  0.00  0.00     0.029 H 
ATOM     35  H33 ZY4 d   1      27.708  -4.408  34.982  0.00  0.00     0.029 H 
ENDBRANCH  29  32
ENDBRANCH  16  29
BRANCH  12  36
ATOM     36  C2  ZY4 d   1      33.338   0.583  38.560  0.00  0.00    -0.004 C 
ATOM     37  H37 ZY4 d   1      33.509   1.039  37.574  0.00  0.00     0.058 H 
ATOM     38  H38 ZY4 d   1      34.252   0.068  38.889  0.00  0.00     0.058 H 
ATOM     39  H39 ZY4 d   1      33.077   1.367  39.286  0.00  0.00     0.058 H 
ENDBRANCH  12  36
ENDBRANCH   4   7
ENDBRANCH   1   3
BRANCH   1  40
ATOM     40  C4  ZY4 d   1      28.193   3.647  33.036  0.00  0.00     0.205 C 
BRANCH  40  41
ATOM     41  C6  ZY4 d   1      29.024   4.610  33.873  0.00  0.00     0.135 C 
ATOM     42  H5  ZY4 d   1      29.860   4.963  33.251  0.00  0.00     0.084 H 
ATOM     43  H6  ZY4 d   1      29.418   4.053  34.736  0.00  0.00     0.084 H 
BRANCH  41  44
ATOM     44  N20 ZY4 d   1      28.320   5.779  34.379  0.00  0.00    -0.066 N 
ATOM     45  H14 ZY4 d   1      27.587   5.451  34.989  0.00  0.00     0.277 HD
ATOM     46  H15 ZY4 d   1      27.912   6.253  33.588  0.00  0.00     0.277 HD
BRANCH  44  47
ATOM     47  C39 ZY4 d   1      29.107   6.768  35.128  0.00  0.00     0.106 C 
ATOM     48  C42 ZY4 d   1      29.768   6.163  36.384  0.00  0.00    -0.018 C 
ATOM     49  C43 ZY4 d   1      30.549   7.226  37.189  0.00  0.00     0.021 C 
ATOM     50  H18 ZY4 d   1      30.464   5.370  36.073  0.00  0.00     0.039 H 
ATOM     51  H19 ZY4 d   1      28.985   5.734  37.027  0.00  0.00     0.039 H 
ATOM     52  O1  ZY4 d   1      29.678   8.326  37.494  0.00  0.00    -0.391 OA
ATOM     53  H20 ZY4 d   1      31.400   7.586  36.593  0.00  0.00     0.074 H 
ATOM     54  H21 ZY4 d   1      30.919   6.780  38.124  0.00  0.00     0.074 H 
ATOM     55  C45 ZY4 d   1      29.073   8.983  36.368  0.00  0.00     0.021 C 
ATOM     56  C46 ZY4 d   1      28.232   7.963  35.574  0.00  0.00    -0.018 C 
ATOM     57  H22 ZY4 d   1      29.858   9.397  35.718  0.00  0.00     0.074 H 
ATOM     58  H23 ZY4 d   1      28.424   9.797  36.723  0.00  0.00     0.074 H 
ATOM     59  H24 ZY4 d   1      27.414   7.595  36.211  0.00  0.00     0.039 H 
ATOM     60  H25 ZY4 d   1      27.811   8.455  34.685  0.00  0.00     0.039 H 
ATOM     61  H17 ZY4 d   1      29.900   7.141  34.463  0.00  0.00     0.084 H 
ENDBRANCH  44  47
ENDBRANCH  41  44
ENDBRANCH  40  41
BRANCH  40  62
ATOM     62  O21 ZY4 d   1      27.753   4.399  31.935  0.00  0.00    -0.362 OA
ATOM     63  H16 ZY4 d   1      27.239   3.845  31.359  0.00  0.00     0.213 HD
ENDBRANCH  40  62
BRANCH  40  64
ATOM     64  O2  ZY4 d   1      27.070   3.155  33.722  0.00  0.00    -0.362 OA
ATOM     65  H36 ZY4 d   1      26.538   3.884  34.020  0.00  0.00     0.213 HD
ENDBRANCH  40  64
ENDBRANCH   1  40
BRANCH   1  66
ATOM     66  C5  ZY4 d   1      28.338   1.647  31.447  0.00  0.00    -0.017 C 
ATOM     67  H3  ZY4 d   1      28.295   2.261  30.536  0.00  0.00     0.043 H 
ATOM     68  H4  ZY4 d   1      27.316   1.421  31.785  0.00  0.00     0.043 H 
BRANCH  66  69
ATOM     69  C14 ZY4 d   1      29.044   0.335  31.118  0.00  0.00    -0.056 A 
ATOM     70  C15 ZY4 d   1      28.309  -0.879  31.100  0.00  0.00    -0.077 A 
ATOM     71  C16 ZY4 d   1      28.950  -2.112  30.796  0.00  0.00    -0.082 A 
ATOM     72  H9  ZY4 d   1      27.248  -0.867  31.320  0.00  0.00     0.084 H 
ATOM     73  C17 ZY4 d   1      30.337  -2.144  30.508  0.00  0.00    -0.083 A 
ATOM     74  H10 ZY4 d   1      28.375  -3.031  30.785  0.00  0.00     0.083 H 
ATOM     75  C18 ZY4 d   1      31.087  -0.943  30.521  0.00  0.00    -0.082 A 
ATOM     76  H11 ZY4 d   1      30.823  -3.086  30.278  0.00  0.00     0.083 H 
ATOM     77  C19 ZY4 d   1      30.449   0.290  30.823  0.00  0.00    -0.077 A 
ATOM     78  H12 ZY4 d   1      32.148  -0.964  30.300  0.00  0.00     0.083 H 
ATOM     79  H13 ZY4 d   1      31.029   1.206  30.831  0.00  0.00     0.084 H 
ENDBRANCH  66  69
ENDBRANCH   1  66
TORSDOF 13
