REMARK WARNING: 32 MAX_TORS EXCEEDED!!!
REMARK  40 active torsions:
REMARK  status: ('A' for Active; 'I' for Inactive)
REMARK    1  A    between atoms: N_1  and  CN_2 
REMARK    2  A    between atoms: CA_3  and  CB_6 
REMARK    3  A    between atoms: CB_6  and  OG1_7 
REMARK    4  A    between atoms: CB_6  and  CG2_8 
REMARK    5  A    between atoms: CG2_8  and  CD1_9 
REMARK    6  A    between atoms: CG2_8  and  CD2_10 
REMARK    7  A    between atoms: CD2_10  and  CE_11 
REMARK    8  A    between atoms: CZ_12  and  CH_13 
REMARK    9  A    between atoms: CA_15  and  CB_18 
REMARK   10  A    between atoms: CB_18  and  CG_19 
REMARK   11  A    between atoms: N_20  and  CN_24 
REMARK   12  A    between atoms: N_25  and  CN_26 
REMARK   13  A    between atoms: CA_27  and  CB_28 
REMARK   14  A    between atoms: CB_28  and  CG_29 
REMARK   15  A    between atoms: CG_29  and  CD1_30 
REMARK   16  A    between atoms: CG_29  and  CD2_31 
REMARK   17  A    between atoms: CA_35  and  CB_38 
REMARK   18  A    between atoms: CB_38  and  CG1_39 
REMARK   19  A    between atoms: CB_38  and  CG2_40 
REMARK   20  A    between atoms: N_41  and  CN_42 
REMARK   21  A    between atoms: CA_43  and  CB_44 
REMARK   22  A    between atoms: CB_44  and  CG_45 
REMARK   23  A    between atoms: CG_45  and  CD1_46 
REMARK   24  A    between atoms: CG_45  and  CD2_47 
REMARK   25  A    between atoms: CA_51  and  CB_54 
REMARK   26  A    between atoms: CA_56  and  CB_57 
REMARK   27  A    between atoms: N_60  and  CN_61 
REMARK   28  A    between atoms: CA_62  and  CB_63 
REMARK   29  A    between atoms: CB_63  and  CG_64 
REMARK   30  A    between atoms: CG_64  and  CD1_65 
REMARK   31  A    between atoms: CG_64  and  CD2_66 
REMARK   32  A    between atoms: N_69  and  CN_70 
REMARK   33  A    between atoms: CA_71  and  CB_72 
REMARK   34  A    between atoms: CB_72  and  CG_73 
REMARK   35  A    between atoms: CG_73  and  CD1_74 
REMARK   36  A    between atoms: CG_73  and  CD2_75 
REMARK   37  A    between atoms: N_78  and  CN_79 
REMARK   38  A    between atoms: CA_80  and  CB_81 
REMARK   39  A    between atoms: CB_81  and  CG1_82 
REMARK   40  A    between atoms: CB_81  and  CG2_83 
ROOT
ATOM      1  N   BMT d   1      16.288  62.270   8.044  0.00  0.00    -0.339 N 
ATOM      2  CA  BMT d   1      16.965  62.908   6.915  0.00  0.00     0.116 C 
ATOM      3  C   BMT d   1      18.056  63.845   7.408  0.00  0.00     0.243 C 
ATOM      4  O   BMT d   1      18.241  64.114   8.593  0.00  0.00    -0.271 OA
ATOM      5  H4  BMT d   1      17.466  62.101   6.360  0.00  0.00     0.091 H 
ATOM      6  N   ABA d   1      18.816  64.308   6.395  0.00  0.00    -0.346 N 
ATOM      7  CA  ABA d   1      20.089  65.053   6.609  0.00  0.00     0.089 C 
ATOM      8  C   ABA d   1      19.963  66.386   5.848  0.00  0.00     0.242 C 
ATOM      9  O   ABA d   1      20.409  66.508   4.737  0.00  0.00    -0.271 OA
ATOM     10  H18 ABA d   1      18.511  64.144   5.457  0.00  0.00     0.163 HD
ATOM     11  H19 ABA d   1      20.248  65.243   7.681  0.00  0.00     0.087 H 
ATOM     12  N   SAR d   1      19.300  67.395   6.445  0.00  0.00    -0.346 N 
ATOM     13  CA  SAR d   1      19.220  68.664   5.714  0.00  0.00     0.071 C 
ATOM     14  C   SAR d   1      17.772  69.211   5.801  0.00  0.00     0.238 C 
ATOM     15  O   SAR d   1      17.608  70.297   6.334  0.00  0.00    -0.272 OA
ATOM     16  H25 SAR d   1      19.488  68.499   4.660  0.00  0.00     0.079 H 
ATOM     17  H26 SAR d   1      19.915  69.390   6.160  0.00  0.00     0.079 H 
ATOM     18  N   MLE d   1      16.789  68.558   5.202  0.00  0.00    -0.342 N 
ATOM     19  CA  MLE d   1      15.415  69.025   5.327  0.00  0.00     0.091 C 
ATOM     20  C   MLE d   1      14.628  67.964   6.104  0.00  0.00     0.241 C 
ATOM     21  O   MLE d   1      14.160  66.952   5.531  0.00  0.00    -0.271 OA
ATOM     22  N   MLE d   1      11.563  66.239   7.764  0.00  0.00    -0.341 N 
ATOM     23  CA  MLE d   1      10.139  66.366   7.480  0.00  0.00     0.091 C 
ATOM     24  C   MLE d   1       9.349  65.819   8.644  0.00  0.00     0.241 C 
ATOM     25  O   MLE d   1       9.813  65.275   9.621  0.00  0.00    -0.271 OA
ATOM     26  N   MLE d   1       8.046  60.396  10.916  0.00  0.00    -0.341 N 
ATOM     27  CA  MLE d   1       9.122  59.576  11.490  0.00  0.00     0.091 C 
ATOM     28  C   MLE d   1      10.235  59.365  10.449  0.00  0.00     0.243 C 
ATOM     29  O   MLE d   1      10.500  58.228  10.073  0.00  0.00    -0.271 OA
ATOM     30  N   MLE d   1      10.930  60.439  10.028  0.00  0.00    -0.341 N 
ATOM     31  CA  MLE d   1      11.989  60.197   9.029  0.00  0.00     0.091 C 
ATOM     32  C   MLE d   1      13.379  60.435   9.668  0.00  0.00     0.243 C 
ATOM     33  O   MLE d   1      13.488  61.033  10.721  0.00  0.00    -0.271 OA
ATOM     34  H33 MLE d   1      15.419  69.971   5.888  0.00  0.00     0.087 H 
ATOM     35  H55 MLE d   1       9.905  67.437   7.386  0.00  0.00     0.087 H 
ATOM     36  H78 MLE d   1       9.542  60.103  12.360  0.00  0.00     0.087 H 
ATOM     37  H91 MLE d   1      11.930  59.141   8.728  0.00  0.00     0.087 H 
ATOM     38  N   VAL d   1      14.517  68.118   7.405  0.00  0.00    -0.346 N 
ATOM     39  CA  VAL d   1      13.801  67.159   8.250  0.00  0.00     0.092 C 
ATOM     40  C   VAL d   1      12.290  67.337   7.986  0.00  0.00     0.243 C 
ATOM     41  O   VAL d   1      11.798  68.445   8.029  0.00  0.00    -0.271 OA
ATOM     42  H43 VAL d   1      14.936  68.918   7.833  0.00  0.00     0.163 HD
ATOM     43  H44 VAL d   1      14.098  66.139   7.965  0.00  0.00     0.088 H 
ATOM     44  N   ALA d   1       7.990  65.940   8.532  0.00  0.00    -0.346 N 
ATOM     45  CA  ALA d   1       7.063  65.482   9.543  0.00  0.00     0.086 C 
ATOM     46  C   ALA d   1       7.034  63.983   9.748  0.00  0.00     0.240 C 
ATOM     47  O   ALA d   1       7.410  63.246   8.845  0.00  0.00    -0.271 OA
ATOM     48  H65 ALA d   1       7.619  66.368   7.708  0.00  0.00     0.163 HD
ATOM     49  H66 ALA d   1       7.353  65.953  10.494  0.00  0.00     0.086 H 
ATOM     50  N   DAL d   1       6.525  63.550  10.903  0.00  0.00    -0.346 N 
ATOM     51  CA  DAL d   1       6.312  62.157  11.152  0.00  0.00     0.086 C 
ATOM     52  C   DAL d   1       7.600  61.482  11.600  0.00  0.00     0.242 C 
ATOM     53  O   DAL d   1       8.202  61.915  12.575  0.00  0.00    -0.271 OA
ATOM     54  H70 DAL d   1       6.287  64.215  11.611  0.00  0.00     0.163 HD
ATOM     55  H71 DAL d   1       5.945  61.680  10.231  0.00  0.00     0.086 H 
ATOM     56  N   MVA d   1      14.440  59.990   8.976  0.00  0.00    -0.341 N 
ATOM     57  CA  MVA d   1      15.800  60.302   9.456  0.00  0.00     0.094 C 
ATOM     58  C   MVA d   1      16.573  60.979   8.289  0.00  0.00     0.243 C 
ATOM     59  O   MVA d   1      17.401  60.337   7.637  0.00  0.00    -0.271 OA
ATOM     60 4H10 MVA d   1      15.710  61.024  10.281  0.00  0.00     0.088 H 
ENDROOT
BRANCH   2  61
ATOM     61  CB  BMT d   1      16.023  63.598   5.904  0.00  0.00     0.067 C 
ATOM     62  H5  BMT d   1      16.607  63.854   5.008  0.00  0.00     0.087 H 
BRANCH  61  63
ATOM     63  OG1 BMT d   1      15.572  64.813   6.512  0.00  0.00    -0.393 OA
ATOM     64  H6  BMT d   1      14.988  65.266   5.916  0.00  0.00     0.210 HD
ENDBRANCH  61  63
BRANCH  61  65
ATOM     65  CG2 BMT d   1      14.871  62.704   5.452  0.00  0.00    -0.027 C 
ATOM     66  H7  BMT d   1      14.266  62.458   6.337  0.00  0.00     0.043 H 
BRANCH  65  67
ATOM     67  CD1 BMT d   1      15.395  61.391   4.840  0.00  0.00    -0.070 C 
ATOM     68  H8  BMT d   1      14.545  60.769   4.524  0.00  0.00     0.028 H 
ATOM     69  H9  BMT d   1      15.988  60.848   5.590  0.00  0.00     0.028 H 
ATOM     70  H10 BMT d   1      16.026  61.619   3.968  0.00  0.00     0.028 H 
ENDBRANCH  65  67
BRANCH  65  71
ATOM     71  CD2 BMT d   1      13.957  63.418   4.419  0.00  0.00    -0.045 C 
ATOM     72  H11 BMT d   1      13.540  64.319   4.892  0.00  0.00     0.039 H 
ATOM     73  H12 BMT d   1      13.139  62.733   4.151  0.00  0.00     0.039 H 
BRANCH  71  74
ATOM     74  CE  BMT d   1      14.661  63.833   3.150  0.00  0.00    -0.106 C 
ATOM     75  CZ  BMT d   1      14.696  65.077   2.682  0.00  0.00    -0.110 C 
ATOM     76  H14 BMT d   1      14.236  65.862   3.281  0.00  0.00     0.075 H 
ATOM     77  H13 BMT d   1      15.175  63.061   2.579  0.00  0.00     0.076 H 
BRANCH  75  78
ATOM     78  CH  BMT d   1      15.341  65.472   1.358  0.00  0.00    -0.060 C 
ATOM     79  H15 BMT d   1      15.233  66.556   1.207  0.00  0.00     0.032 H 
ATOM     80  H16 BMT d   1      14.846  64.936   0.535  0.00  0.00     0.032 H 
ATOM     81  H17 BMT d   1      16.409  65.209   1.377  0.00  0.00     0.032 H 
ENDBRANCH  75  78
ENDBRANCH  71  74
ENDBRANCH  65  71
ENDBRANCH  61  65
ENDBRANCH   2  61
BRANCH   1  82
ATOM     82  CN  BMT d   1      15.419  63.089   8.925  0.00  0.00    -0.015 C 
ATOM     83  H1  BMT d   1      15.338  64.107   8.516  0.00  0.00     0.056 H 
ATOM     84  H2  BMT d   1      15.856  63.133   9.933  0.00  0.00     0.056 H 
ATOM     85  H3  BMT d   1      14.419  62.634   8.979  0.00  0.00     0.056 H 
ENDBRANCH   1  82
BRANCH  57  86
ATOM     86  CB  MVA d   1      16.572  59.082   9.996  0.00  0.00    -0.033 C 
ATOM     87 5H10 MVA d   1      16.910  58.458   9.155  0.00  0.00     0.042 H 
BRANCH  86  88
ATOM     88  CG1 MVA d   1      17.781  59.626  10.741  0.00  0.00    -0.071 C 
ATOM     89 6H10 MVA d   1      18.368  58.789  11.148  0.00  0.00     0.028 H 
ATOM     90 7H10 MVA d   1      17.444  60.272  11.565  0.00  0.00     0.028 H 
ATOM     91 8H10 MVA d   1      18.406  60.210  10.049  0.00  0.00     0.028 H 
ENDBRANCH  86  88
BRANCH  86  92
ATOM     92  CG2 MVA d   1      15.688  58.236  10.904  0.00  0.00    -0.071 C 
ATOM     93 9H10 MVA d   1      14.827  57.861  10.332  0.00  0.00     0.028 H 
ATOM     94 0H11 MVA d   1      15.331  58.850  11.744  0.00  0.00     0.028 H 
ATOM     95 1H11 MVA d   1      16.268  57.386  11.292  0.00  0.00     0.028 H 
ENDBRANCH  86  92
ENDBRANCH  57  86
BRANCH   7  96
ATOM     96  CB  ABA d   1      21.248  64.224   6.055  0.00  0.00    -0.041 C 
ATOM     97  H20 ABA d   1      22.183  64.793   6.165  0.00  0.00     0.036 H 
ATOM     98  H21 ABA d   1      21.067  64.019   4.989  0.00  0.00     0.036 H 
BRANCH  96  99
ATOM     99  CG  ABA d   1      21.380  62.884   6.812  0.00  0.00    -0.074 C 
ATOM    100  H22 ABA d   1      22.219  62.308   6.395  0.00  0.00     0.027 H 
ATOM    101  H23 ABA d   1      20.450  62.308   6.702  0.00  0.00     0.027 H 
ATOM    102  H24 ABA d   1      21.565  63.082   7.878  0.00  0.00     0.027 H 
ENDBRANCH  96  99
ENDBRANCH   7  96
BRANCH  56 103
ATOM    103  CN  MVA d   1      14.400  59.071   7.820  0.00  0.00    -0.015 C 
ATOM    104 1H10 MVA d   1      13.354  58.893   7.529  0.00  0.00     0.056 H 
ATOM    105 2H10 MVA d   1      14.872  58.116   8.094  0.00  0.00     0.056 H 
ATOM    106 3H10 MVA d   1      14.944  59.520   6.976  0.00  0.00     0.056 H 
ENDBRANCH  56 103
BRANCH  12 107
ATOM    107  CN  SAR d   1      18.712  67.343   7.777  0.00  0.00    -0.015 C 
ATOM    108  H27 SAR d   1      18.848  66.336   8.198  0.00  0.00     0.056 H 
ATOM    109  H28 SAR d   1      17.638  67.572   7.713  0.00  0.00     0.056 H 
ATOM    110  H29 SAR d   1      19.206  68.081   8.425  0.00  0.00     0.056 H 
ENDBRANCH  12 107
BRANCH  31 111
ATOM    111  CB  MLE d   1      11.813  61.045   7.765  0.00  0.00    -0.035 C 
ATOM    112  H92 MLE d   1      12.666  60.860   7.096  0.00  0.00     0.037 H 
ATOM    113  H93 MLE d   1      11.797  62.106   8.054  0.00  0.00     0.037 H 
BRANCH 111 114
ATOM    114  CG  MLE d   1      10.513  60.723   7.004  0.00  0.00    -0.059 C 
ATOM    115  H94 MLE d   1       9.661  61.024   7.631  0.00  0.00     0.038 H 
BRANCH 114 116
ATOM    116  CD1 MLE d   1      10.520  61.566   5.687  0.00  0.00    -0.073 C 
ATOM    117  H95 MLE d   1       9.603  61.361   5.115  0.00  0.00     0.028 H 
ATOM    118  H96 MLE d   1      11.398  61.294   5.082  0.00  0.00     0.028 H 
ATOM    119  H97 MLE d   1      10.565  62.636   5.937  0.00  0.00     0.028 H 
ENDBRANCH 114 116
BRANCH 114 120
ATOM    120  CD2 MLE d   1      10.338  59.252   6.638  0.00  0.00    -0.073 C 
ATOM    121  H98 MLE d   1      10.331  58.644   7.555  0.00  0.00     0.028 H 
ATOM    122  H99 MLE d   1      11.170  58.933   5.993  0.00  0.00     0.028 H 
ATOM    123 0H10 MLE d   1       9.387  59.118   6.102  0.00  0.00     0.028 H 
ENDBRANCH 114 120
ENDBRANCH 111 114
ENDBRANCH  31 111
BRANCH  30 124
ATOM    124  CN  MLE d   1      10.633  61.815  10.403  0.00  0.00    -0.015 C 
ATOM    125  H88 MLE d   1       9.827  61.825  11.151  0.00  0.00     0.056 H 
ATOM    126  H89 MLE d   1      10.314  62.377   9.513  0.00  0.00     0.056 H 
ATOM    127  H90 MLE d   1      11.534  62.282  10.828  0.00  0.00     0.056 H 
ENDBRANCH  30 124
BRANCH  18 128
ATOM    128  CN  MLE d   1      17.064  67.353   4.444  0.00  0.00    -0.015 C 
ATOM    129  H30 MLE d   1      18.145  67.152   4.455  0.00  0.00     0.056 H 
ATOM    130  H31 MLE d   1      16.727  67.488   3.406  0.00  0.00     0.056 H 
ATOM    131  H32 MLE d   1      16.529  66.505   4.896  0.00  0.00     0.056 H 
ENDBRANCH  18 128
BRANCH  27 132
ATOM    132  CB  MLE d   1       8.587  58.226  11.946  0.00  0.00    -0.035 C 
ATOM    133  H79 MLE d   1       9.430  57.641  12.342  0.00  0.00     0.037 H 
ATOM    134  H80 MLE d   1       8.164  57.713  11.070  0.00  0.00     0.037 H 
BRANCH 132 135
ATOM    135  CG  MLE d   1       7.495  58.292  13.037  0.00  0.00    -0.059 C 
ATOM    136  H81 MLE d   1       6.705  58.988  12.719  0.00  0.00     0.038 H 
BRANCH 135 137
ATOM    137  CD1 MLE d   1       6.891  56.876  13.171  0.00  0.00    -0.073 C 
ATOM    138  H82 MLE d   1       6.106  56.883  13.942  0.00  0.00     0.028 H 
ATOM    139  H83 MLE d   1       7.681  56.166  13.458  0.00  0.00     0.028 H 
ATOM    140  H84 MLE d   1       6.456  56.570  12.208  0.00  0.00     0.028 H 
ENDBRANCH 135 137
BRANCH 135 141
ATOM    141  CD2 MLE d   1       8.076  58.797  14.344  0.00  0.00    -0.073 C 
ATOM    142  H85 MLE d   1       8.492  59.805  14.195  0.00  0.00     0.028 H 
ATOM    143  H86 MLE d   1       8.874  58.117  14.678  0.00  0.00     0.028 H 
ATOM    144  H87 MLE d   1       7.284  58.836  15.107  0.00  0.00     0.028 H 
ENDBRANCH 135 141
ENDBRANCH 132 135
ENDBRANCH  27 132
BRANCH  19 145
ATOM    145  CB  MLE d   1      14.692  69.256   3.990  0.00  0.00    -0.035 C 
ATOM    146  H34 MLE d   1      14.313  68.294   3.615  0.00  0.00     0.037 H 
ATOM    147  H35 MLE d   1      15.403  69.678   3.265  0.00  0.00     0.037 H 
BRANCH 145 148
ATOM    148  CG  MLE d   1      13.517  70.225   4.162  0.00  0.00    -0.059 C 
ATOM    149  H36 MLE d   1      12.994  70.153   3.197  0.00  0.00     0.038 H 
BRANCH 148 150
ATOM    150  CD1 MLE d   1      12.410  70.168   5.154  0.00  0.00    -0.073 C 
ATOM    151  H37 MLE d   1      11.734  71.022   4.999  0.00  0.00     0.028 H 
ATOM    152  H38 MLE d   1      12.827  70.210   6.171  0.00  0.00     0.028 H 
ATOM    153  H39 MLE d   1      11.850  69.230   5.026  0.00  0.00     0.028 H 
ENDBRANCH 148 150
BRANCH 148 154
ATOM    154  CD2 MLE d   1      14.108  71.645   4.265  0.00  0.00    -0.073 C 
ATOM    155  H40 MLE d   1      14.937  71.750   3.550  0.00  0.00     0.028 H 
ATOM    156  H41 MLE d   1      14.481  71.814   5.286  0.00  0.00     0.028 H 
ATOM    157  H42 MLE d   1      13.328  72.385   4.032  0.00  0.00     0.028 H 
ENDBRANCH 148 154
ENDBRANCH 145 148
ENDBRANCH  19 145
BRANCH  26 158
ATOM    158  CN  MLE d   1       7.427  59.965   9.643  0.00  0.00    -0.015 C 
ATOM    159  H75 MLE d   1       6.645  60.683   9.354  0.00  0.00     0.056 H 
ATOM    160  H76 MLE d   1       6.980  58.968   9.772  0.00  0.00     0.056 H 
ATOM    161  H77 MLE d   1       8.195  59.923   8.857  0.00  0.00     0.056 H 
ENDBRANCH  26 158
BRANCH  51 162
ATOM    162  CB  DAL d   1       5.284  61.969  12.282  0.00  0.00    -0.049 C 
ATOM    163  H72 DAL d   1       5.130  60.895  12.463  0.00  0.00     0.030 H 
ATOM    164  H73 DAL d   1       4.330  62.432  11.991  0.00  0.00     0.030 H 
ATOM    165  H74 DAL d   1       5.657  62.445  13.200  0.00  0.00     0.030 H 
ENDBRANCH  51 162
BRANCH  39 166
ATOM    166  CB  VAL d   1      14.126  67.357   9.715  0.00  0.00    -0.033 C 
ATOM    167  H45 VAL d   1      13.840  68.383   9.991  0.00  0.00     0.042 H 
BRANCH 166 168
ATOM    168  CG1 VAL d   1      13.329  66.418  10.582  0.00  0.00    -0.071 C 
ATOM    169  H46 VAL d   1      13.587  66.586  11.638  0.00  0.00     0.028 H 
ATOM    170  H47 VAL d   1      13.563  65.379  10.308  0.00  0.00     0.028 H 
ATOM    171  H48 VAL d   1      12.255  66.604  10.433  0.00  0.00     0.028 H 
ENDBRANCH 166 168
BRANCH 166 172
ATOM    172  CG2 VAL d   1      15.671  67.216   9.938  0.00  0.00    -0.071 C 
ATOM    173  H49 VAL d   1      16.202  67.922   9.282  0.00  0.00     0.028 H 
ATOM    174  H50 VAL d   1      15.984  66.189   9.700  0.00  0.00     0.028 H 
ATOM    175  H51 VAL d   1      15.912  67.439  10.988  0.00  0.00     0.028 H 
ENDBRANCH 166 172
ENDBRANCH  39 166
BRANCH  22 176
ATOM    176  CN  MLE d   1      12.117  64.884   7.751  0.00  0.00    -0.015 C 
ATOM    177  H52 MLE d   1      13.192  64.925   7.979  0.00  0.00     0.056 H 
ATOM    178  H53 MLE d   1      11.970  64.437   6.757  0.00  0.00     0.056 H 
ATOM    179  H54 MLE d   1      11.605  64.271   8.508  0.00  0.00     0.056 H 
ENDBRANCH  22 176
BRANCH  45 180
ATOM    180  CB  ALA d   1       5.614  65.912   9.185  0.00  0.00    -0.049 C 
ATOM    181  H67 ALA d   1       4.923  65.556   9.963  0.00  0.00     0.030 H 
ATOM    182  H68 ALA d   1       5.331  65.475   8.216  0.00  0.00     0.030 H 
ATOM    183  H69 ALA d   1       5.562  67.009   9.122  0.00  0.00     0.030 H 
ENDBRANCH  45 180
BRANCH  23 184
ATOM    184  CB  MLE d   1       9.758  65.692   6.148  0.00  0.00    -0.035 C 
ATOM    185  H56 MLE d   1       8.718  65.962   5.912  0.00  0.00     0.037 H 
ATOM    186  H57 MLE d   1       9.833  64.603   6.280  0.00  0.00     0.037 H 
BRANCH 184 187
ATOM    187  CG  MLE d   1      10.627  66.087   4.975  0.00  0.00    -0.059 C 
ATOM    188  H58 MLE d   1      11.668  65.918   5.289  0.00  0.00     0.038 H 
BRANCH 187 189
ATOM    189  CD1 MLE d   1      10.406  65.240   3.742  0.00  0.00    -0.073 C 
ATOM    190  H59 MLE d   1      11.070  65.586   2.936  0.00  0.00     0.028 H 
ATOM    191  H60 MLE d   1       9.359  65.330   3.418  0.00  0.00     0.028 H 
ATOM    192  H61 MLE d   1      10.629  64.188   3.975  0.00  0.00     0.028 H 
ENDBRANCH 187 189
BRANCH 187 193
ATOM    193  CD2 MLE d   1      10.498  67.564   4.650  0.00  0.00    -0.073 C 
ATOM    194  H62 MLE d   1      10.663  68.156   5.562  0.00  0.00     0.028 H 
ATOM    195  H63 MLE d   1       9.490  67.767   4.259  0.00  0.00     0.028 H 
ATOM    196  H64 MLE d   1      11.247  67.840   3.893  0.00  0.00     0.028 H 
ENDBRANCH 187 193
ENDBRANCH 184 187
ENDBRANCH  23 184
TORSDOF 40
