REMARK  5 active torsions:
REMARK  status: ('A' for Active; 'I' for Inactive)
REMARK    1  A    between atoms: N1_3  and  C4_4 
REMARK    2  A    between atoms: C4_4  and  C3_5 
REMARK    3  A    between atoms: N2_14  and  C7_15 
REMARK    4  A    between atoms: C8_16  and  N3_23 
REMARK    5  A    between atoms: N5_19  and  C14_20 
ROOT
ATOM      1  O1  1AZ d   1     -35.014 -39.249 -25.377  0.00  0.00    -0.265 OA
ATOM      2  C5  1AZ d   1     -35.579 -38.574 -24.477  0.00  0.00     0.282 A 
ATOM      3  N1  1AZ d   1     -36.899 -38.731 -24.235  0.00  0.00    -0.260 N 
ATOM      4  C6  1AZ d   1     -34.850 -37.645 -23.712  0.00  0.00     0.152 A 
ATOM      5  N2  1AZ d   1     -33.548 -37.264 -23.697  0.00  0.00    -0.318 N 
ATOM      6  C8  1AZ d   1     -33.399 -36.324 -22.751  0.00  0.00     0.186 A 
ATOM      7  N4  1AZ d   1     -34.594 -36.110 -22.161  0.00  0.00    -0.199 NA
ATOM      8  C13 1AZ d   1     -35.518 -36.909 -22.726  0.00  0.00     0.169 A 
ATOM      9  N5  1AZ d   1     -36.837 -37.076 -22.495  0.00  0.00    -0.286 N 
ATOM     10  C15 1AZ d   1     -37.535 -37.956 -23.225  0.00  0.00     0.333 A 
ATOM     11  O3  1AZ d   1     -38.756 -38.095 -22.999  0.00  0.00    -0.246 OA
ENDROOT
BRANCH   3  12
ATOM     12  C4  1AZ d   1     -37.699 -39.680 -25.031  0.00  0.00     0.031 C 
ATOM     13  H1  1AZ d   1     -37.239 -39.778 -26.025  0.00  0.00     0.072 H 
ATOM     14  H2  1AZ d   1     -38.718 -39.278 -25.136  0.00  0.00     0.072 H 
BRANCH  12  15
ATOM     15  C3  1AZ d   1     -37.785 -41.049 -24.404  0.00  0.00    -0.038 A 
ATOM     16  C2  1AZ d   1     -36.983 -42.068 -24.902  0.00  0.00    -0.053 A 
ATOM     17  C1  1AZ d   1     -37.076 -43.332 -24.324  0.00  0.00     0.056 A 
ATOM     18  H3  1AZ d   1     -36.299 -41.883 -25.723  0.00  0.00     0.087 H 
ATOM     19 CL1  1AZ d   1     -36.065 -44.701 -24.919  0.00  0.00    -0.083 Cl
ATOM     20  C18 1AZ d   1     -37.957 -43.562 -23.279  0.00  0.00     0.055 A 
ATOM     21  C17 1AZ d   1     -38.772 -42.554 -22.777  0.00  0.00    -0.060 A 
ATOM     22 CL2  1AZ d   1     -38.012 -45.210 -22.601  0.00  0.00    -0.083 Cl
ATOM     23  C16 1AZ d   1     -38.678 -41.288 -23.357  0.00  0.00    -0.074 A 
ATOM     24  H5  1AZ d   1     -39.459 -42.745 -21.961  0.00  0.00     0.086 H 
ATOM     25  H4  1AZ d   1     -39.304 -40.482 -22.991  0.00  0.00     0.084 H 
ENDBRANCH  12  15
ENDBRANCH   3  12
BRANCH   9  26
ATOM     26  C14 1AZ d   1     -37.539 -36.314 -21.459  0.00  0.00    -0.008 C 
ATOM     27  H9  1AZ d   1     -36.830 -35.641 -20.955  0.00  0.00     0.057 H 
ATOM     28  H10 1AZ d   1     -37.972 -37.008 -20.723  0.00  0.00     0.057 H 
ATOM     29  H11 1AZ d   1     -38.342 -35.721 -21.921  0.00  0.00     0.057 H 
ENDBRANCH   9  26
BRANCH   5  30
ATOM     30  C7  1AZ d   1     -32.457 -37.787 -24.573  0.00  0.00    -0.011 C 
ATOM     31  H6  1AZ d   1     -32.866 -38.548 -25.253  0.00  0.00     0.057 H 
ATOM     32  H7  1AZ d   1     -31.670 -38.237 -23.950  0.00  0.00     0.057 H 
ATOM     33  H8  1AZ d   1     -32.031 -36.961 -25.161  0.00  0.00     0.057 H 
ENDBRANCH   5  30
BRANCH   6  34
ATOM     34  N3  1AZ d   1     -32.140 -35.637 -22.377  0.00  0.00    -0.249 NA
ATOM     35  C9  1AZ d   1     -31.705 -34.685 -23.395  0.00  0.00     0.006 C 
ATOM     36  C10 1AZ d   1     -30.264 -34.380 -22.979  0.00  0.00     0.031 C 
ATOM     37  H12 1AZ d   1     -32.324 -33.776 -23.377  0.00  0.00     0.059 H 
ATOM     38  H13 1AZ d   1     -31.741 -35.134 -24.399  0.00  0.00     0.059 H 
ATOM     39  O2  1AZ d   1     -30.234 -33.807 -21.654  0.00  0.00    -0.389 OA
ATOM     40  H14 1AZ d   1     -29.824 -33.667 -23.692  0.00  0.00     0.076 H 
ATOM     41  H15 1AZ d   1     -29.680 -35.312 -22.984  0.00  0.00     0.076 H 
ATOM     42  C11 1AZ d   1     -30.826 -34.626 -20.642  0.00  0.00     0.031 C 
ATOM     43  C12 1AZ d   1     -32.248 -35.000 -21.063  0.00  0.00     0.006 C 
ATOM     44  H16 1AZ d   1     -30.858 -34.072 -19.692  0.00  0.00     0.076 H 
ATOM     45  H17 1AZ d   1     -30.228 -35.541 -20.513  0.00  0.00     0.076 H 
ATOM     46  H18 1AZ d   1     -32.687 -35.700 -20.337  0.00  0.00     0.059 H 
ATOM     47  H19 1AZ d   1     -32.874 -34.098 -21.128  0.00  0.00     0.059 H 
ENDBRANCH   6  34
TORSDOF 5
