REMARK  5 active torsions:
REMARK  status: ('A' for Active; 'I' for Inactive)
REMARK    1  A    between atoms: C13_7  and  N2_8 
REMARK    2  A    between atoms: C6_22  and  N1_23 
REMARK    3  A    between atoms: N1_23  and  C19_24 
REMARK    4  A    between atoms: C19_24  and  C20_25 
REMARK    5  A    between atoms: C20_25  and  O3_26 
ROOT
ATOM      1  N2  VGI d   1      22.926  42.870  79.868  0.00  0.00    -0.244 N 
ATOM      2  C9  VGI d   1      21.859  43.469  79.136  0.00  0.00     0.266 A 
ATOM      3  O1  VGI d   1      21.677  43.234  77.942  0.00  0.00    -0.267 OA
ATOM      4  C12 VGI d   1      23.105  43.173  81.222  0.00  0.00     0.266 A 
ATOM      5  O2  VGI d   1      24.032  42.627  81.812  0.00  0.00    -0.267 OA
ATOM      6  C8  VGI d   1      22.245  44.087  81.852  0.00  0.00     0.045 A 
ATOM      7  C10 VGI d   1      22.404  44.413  83.194  0.00  0.00    -0.067 A 
ATOM      8  C11 VGI d   1      21.536  45.305  83.813  0.00  0.00    -0.081 A 
ATOM      9  C7  VGI d   1      20.504  45.903  83.086  0.00  0.00    -0.070 A 
ATOM     10  C1  VGI d   1      20.330  45.590  81.734  0.00  0.00     0.003 A 
ATOM     11  C2  VGI d   1      21.199  44.680  81.121  0.00  0.00     0.008 A 
ATOM     12  C3  VGI d   1      21.015  44.360  79.771  0.00  0.00     0.045 A 
ATOM     13  C4  VGI d   1      19.995  44.942  79.043  0.00  0.00    -0.065 A 
ATOM     14  C5  VGI d   1      19.135  45.843  79.652  0.00  0.00    -0.056 A 
ATOM     15  C6  VGI d   1      19.295  46.166  80.992  0.00  0.00     0.039 A 
ATOM     16  H5  VGI d   1      23.212  43.968  83.763  0.00  0.00     0.085 H 
ATOM     17  H6  VGI d   1      21.660  45.538  84.864  0.00  0.00     0.083 H 
ATOM     18  H7  VGI d   1      19.838  46.609  83.569  0.00  0.00     0.084 H 
ATOM     19  H8  VGI d   1      19.867  44.694  77.996  0.00  0.00     0.085 H 
ATOM     20  H9  VGI d   1      18.334  46.297  79.079  0.00  0.00     0.087 H 
ENDROOT
BRANCH   1  21
ATOM     21  C13 VGI d   1      23.787  41.932  79.263  0.00  0.00     0.047 A 
ATOM     22  C14 VGI d   1      23.477  40.587  79.435  0.00  0.00    -0.040 A 
ATOM     23  C15 VGI d   1      24.247  39.584  78.880  0.00  0.00     0.013 A 
ATOM     24  H1  VGI d   1      22.606  40.318  80.022  0.00  0.00     0.089 H 
ATOM     25 BR1  VGI d   1      23.766  37.745  79.132  0.00  0.00    -0.051 Br
ATOM     26  C16 VGI d   1      25.365  39.950  78.140  0.00  0.00    -0.066 A 
ATOM     27  C17 VGI d   1      25.695  41.290  77.973  0.00  0.00    -0.080 A 
ATOM     28  H2  VGI d   1      25.985  39.184  77.689  0.00  0.00     0.085 H 
ATOM     29  C18 VGI d   1      24.909  42.294  78.534  0.00  0.00    -0.056 A 
ATOM     30  H3  VGI d   1      26.575  41.557  77.399  0.00  0.00     0.083 H 
ATOM     31  H4  VGI d   1      25.170  43.338  78.403  0.00  0.00     0.086 H 
ENDBRANCH   1  21
BRANCH  15  32
ATOM     32  N1  VGI d   1      18.454  47.032  81.523  0.00  0.00    -0.387 N 
ATOM     33  H10 VGI d   1      18.789  47.964  81.806  0.00  0.00     0.159 HD
BRANCH  32  34
ATOM     34  C19 VGI d   1      17.048  46.675  81.712  0.00  0.00     0.012 C 
ATOM     35  H11 VGI d   1      16.872  46.442  82.772  0.00  0.00     0.067 H 
ATOM     36  H12 VGI d   1      16.812  45.793  81.099  0.00  0.00     0.067 H 
BRANCH  34  37
ATOM     37  C20 VGI d   1      16.149  47.832  81.296  0.00  0.00     0.031 C 
ATOM     38  H13 VGI d   1      16.512  48.264  80.352  0.00  0.00     0.076 H 
ATOM     39  H14 VGI d   1      16.152  48.605  82.078  0.00  0.00     0.076 H 
BRANCH  37  40
ATOM     40  O3  VGI d   1      14.824  47.331  81.119  0.00  0.00    -0.399 OA
ATOM     41  H15 VGI d   1      14.250  48.042  80.859  0.00  0.00     0.209 HD
ENDBRANCH  37  40
ENDBRANCH  34  37
ENDBRANCH  32  34
ENDBRANCH  15  32
TORSDOF 5
