REMARK  7 active torsions:
REMARK  status: ('A' for Active; 'I' for Inactive)
REMARK    1  A    between atoms: N2_1  and  C3_2 
REMARK    2  A    between atoms: C4_4  and  O1_9 
REMARK    3  A    between atoms: C2_6  and  C1_7 
REMARK    4  A    between atoms: O1_9  and  C6_10 
REMARK    5  A    between atoms: C6_10  and  C7_11 
REMARK    6  A    between atoms: C7_11  and  O2_12 
REMARK    7  A    between atoms: O2_12  and  C8_13 
ROOT
ATOM      1  C3  ZZ2 d   1      29.934  10.810  24.230  0.00  0.00     0.722 A 
ATOM      2  N3  ZZ2 d   1      29.757  10.249  25.447  0.00  0.00    -0.039 NA
ATOM      3  C4  ZZ2 d   1      30.816   9.814  26.163  0.00  0.00     0.185 A 
ATOM      4  C5  ZZ2 d   1      32.097   9.945  25.642  0.00  0.00    -0.007 A 
ATOM      5  C2  ZZ2 d   1      32.257  10.523  24.391  0.00  0.00     0.054 A 
ATOM      6  N1  ZZ2 d   1      31.173  10.946  23.706  0.00  0.00    -0.068 NA
ATOM      7  H3  ZZ2 d   1      32.958   9.601  26.204  0.00  0.00     0.093 H 
ENDROOT
BRANCH   3   8
ATOM      8  O1  ZZ2 d   1      30.628   9.247  27.395  0.00  0.00    -0.332 OA
BRANCH   8   9
ATOM      9  C6  ZZ2 d   1      31.441   8.150  27.807  0.00  0.00     0.047 C 
ATOM     10  H7  ZZ2 d   1      30.808   7.375  28.263  0.00  0.00     0.078 H 
ATOM     11  H8  ZZ2 d   1      32.181   8.498  28.542  0.00  0.00     0.078 H 
BRANCH   9  12
ATOM     12  C7  ZZ2 d   1      32.162   7.569  26.596  0.00  0.00     0.039 C 
ATOM     13  H9  ZZ2 d   1      33.144   7.182  26.905  0.00  0.00     0.077 H 
ATOM     14  H10 ZZ2 d   1      32.299   8.355  25.839  0.00  0.00     0.077 H 
BRANCH  12  15
ATOM     15  O2  ZZ2 d   1      31.385   6.508  26.044  0.00  0.00    -0.394 OA
BRANCH  15  16
ATOM     16  C8  ZZ2 d   1      31.292   6.604  24.624  0.00  0.00     0.004 C 
ATOM     17  H11 ZZ2 d   1      30.687   5.770  24.239  0.00  0.00     0.066 H 
ATOM     18  H12 ZZ2 d   1      32.300   6.558  24.186  0.00  0.00     0.066 H 
ATOM     19  H13 ZZ2 d   1      30.817   7.558  24.351  0.00  0.00     0.066 H 
ENDBRANCH  15  16
ENDBRANCH  12  15
ENDBRANCH   9  12
ENDBRANCH   8   9
ENDBRANCH   3   8
BRANCH   1  20
ATOM     20  N2  ZZ2 d   1      28.859  11.240  23.527  0.00  0.00    -0.231 N 
ATOM     21  H1  ZZ2 d   1      27.913  11.139  23.921  0.00  0.00     0.174 HD
ATOM     22  H2  ZZ2 d   1      28.988  11.668  22.599  0.00  0.00     0.174 HD
ENDBRANCH   1  20
BRANCH   5  23
ATOM     23  C1  ZZ2 d   1      33.634  10.678  23.799  0.00  0.00    -0.035 C 
ATOM     24  H4  ZZ2 d   1      33.556  11.153  22.810  0.00  0.00     0.035 H 
ATOM     25  H5  ZZ2 d   1      34.102   9.688  23.694  0.00  0.00     0.035 H 
ATOM     26  H6  ZZ2 d   1      34.249  11.306  24.460  0.00  0.00     0.035 H 
ENDBRANCH   5  23
TORSDOF 7
