REMARK  4 active torsions:
REMARK  status: ('A' for Active; 'I' for Inactive)
REMARK    1  A    between atoms: N5_1  and  C2_2 
REMARK    2  A    between atoms: C3_5  and  C8_6 
REMARK    3  A    between atoms: C4_8  and  S1_9 
REMARK    4  A    between atoms: S1_9  and  C6_10 
ROOT
ATOM      1  C2  ZZ3 d   1      62.498  10.803  49.048  0.00  0.00     0.724 A 
ATOM      2  N4  ZZ3 d   1      62.261  10.105  50.180  0.00  0.00    -0.036 NA
ATOM      3  N1  ZZ3 d   1      63.764  10.960  48.605  0.00  0.00    -0.048 NA
ATOM      4  C3  ZZ3 d   1      64.792  10.420  49.293  0.00  0.00     0.144 A 
ATOM      5  N3  ZZ3 d   1      64.555   9.722  50.424  0.00  0.00    -0.207 NA
ATOM      6  C4  ZZ3 d   1      63.290   9.565  50.868  0.00  0.00     0.208 A 
ENDROOT
BRANCH   6   7
ATOM      7  S1  ZZ3 d   1      62.992   8.690  52.288  0.00  0.00    -0.094 SA
BRANCH   7   8
ATOM      8  C6  ZZ3 d   1      64.412   7.729  52.694  0.00  0.00    -0.027 C 
ATOM      9  H6  ZZ3 d   1      64.219   7.161  53.616  0.00  0.00     0.042 H 
ATOM     10  H7  ZZ3 d   1      65.274   8.395  52.848  0.00  0.00     0.042 H 
ATOM     11  H8  ZZ3 d   1      64.630   7.031  51.872  0.00  0.00     0.042 H 
ENDBRANCH   7   8
ENDBRANCH   6   7
BRANCH   1  12
ATOM     12  N5  ZZ3 d   1      61.466  11.345  48.358  0.00  0.00    -0.231 N 
ATOM     13  H1  ZZ3 d   1      60.501  11.225  48.697  0.00  0.00     0.174 HD
ATOM     14  H2  ZZ3 d   1      61.647  11.877  47.495  0.00  0.00     0.174 HD
ENDBRANCH   1  12
BRANCH   4  15
ATOM     15  C8  ZZ3 d   1      66.204  10.595  48.798  0.00  0.00    -0.019 C 
ATOM     16  H3  ZZ3 d   1      66.197  11.187  47.871  0.00  0.00     0.037 H 
ATOM     17  H4  ZZ3 d   1      66.648   9.608  48.599  0.00  0.00     0.037 H 
ATOM     18  H5  ZZ3 d   1      66.798  11.117  49.562  0.00  0.00     0.037 H 
ENDBRANCH   4  15
TORSDOF 4
