REMARK  4 active torsions:
REMARK  status: ('A' for Active; 'I' for Inactive)
REMARK    1  A    between atoms: N5_1  and  C2_2 
REMARK    2  A    between atoms: C3_4  and  C8_5 
REMARK    3  A    between atoms: C4_7  and  S1_9 
REMARK    4  A    between atoms: S1_9  and  C6_10 
ROOT
ATOM      1  C2  ZZ3 d   1      30.205  11.105  23.949  0.00  0.00     0.724 A 
ATOM      2  N1  ZZ3 d   1      30.194  11.809  22.797  0.00  0.00    -0.048 NA
ATOM      3  C3  ZZ3 d   1      31.357  12.155  22.205  0.00  0.00     0.144 A 
ATOM      4  N4  ZZ3 d   1      31.380  10.747  24.509  0.00  0.00    -0.036 NA
ATOM      5  C4  ZZ3 d   1      32.543  11.092  23.917  0.00  0.00     0.208 A 
ATOM      6  N3  ZZ3 d   1      32.532  11.797  22.766  0.00  0.00    -0.207 NA
ENDROOT
BRANCH   5   7
ATOM      7  S1  ZZ3 d   1      34.018  10.642  24.621  0.00  0.00    -0.094 SA
BRANCH   7   8
ATOM      8  C6  ZZ3 d   1      35.207  10.347  23.354  0.00  0.00    -0.027 C 
ATOM      9  H6  ZZ3 d   1      36.164  10.055  23.810  0.00  0.00     0.042 H 
ATOM     10  H7  ZZ3 d   1      35.347  11.264  22.762  0.00  0.00     0.042 H 
ATOM     11  H8  ZZ3 d   1      34.852   9.538  22.699  0.00  0.00     0.042 H 
ENDBRANCH   7   8
ENDBRANCH   5   7
BRANCH   1  12
ATOM     12  N5  ZZ3 d   1      29.038  10.758  24.543  0.00  0.00    -0.231 N 
ATOM     13  H1  ZZ3 d   1      28.142  11.031  24.116  0.00  0.00     0.174 HD
ATOM     14  H2  ZZ3 d   1      29.047  10.221  25.422  0.00  0.00     0.174 HD
ENDBRANCH   1  12
BRANCH   3  15
ATOM     15  C8  ZZ3 d   1      31.344  12.940  20.921  0.00  0.00    -0.019 C 
ATOM     16  H3  ZZ3 d   1      30.304  13.136  20.622  0.00  0.00     0.037 H 
ATOM     17  H4  ZZ3 d   1      31.849  12.363  20.133  0.00  0.00     0.037 H 
ATOM     18  H5  ZZ3 d   1      31.869  13.895  21.070  0.00  0.00     0.037 H 
ENDBRANCH   3  15
TORSDOF 4
