REMARK  4 active torsions:
REMARK  status: ('A' for Active; 'I' for Inactive)
REMARK    1  A    between atoms: C6_8  and  C7_9 
REMARK    2  A    between atoms: C9_11  and  N4_16 
REMARK    3  A    between atoms: C8_14  and  N2_15 
REMARK    4  A    between atoms: N5_17  and  C13_18 
ROOT
ATOM      1  C7  ZZ4 d   1       0.645  10.805  24.834  0.00  0.00     0.119 A 
ATOM      2  N1  ZZ4 d   1      -0.391  11.301  24.127  0.00  0.00    -0.060 NA
ATOM      3  C9  ZZ4 d   1       0.368  10.187  26.152  0.00  0.00     0.127 A 
ATOM      4  C10 ZZ4 d   1      -0.947  10.149  26.592  0.00  0.00     0.053 A 
ATOM      5  N3  ZZ4 d   1      -1.914  10.666  25.823  0.00  0.00    -0.073 NA
ATOM      6  C8  ZZ4 d   1      -1.650  11.229  24.619  0.00  0.00     0.720 A 
ATOM      7  H4  ZZ4 d   1      -1.190   9.704  27.550  0.00  0.00     0.119 H 
ENDROOT
BRANCH   3   8
ATOM      8  N4  ZZ4 d   1       1.403   9.656  26.930  0.00  0.00    -0.146 NA
ATOM      9  N5  ZZ4 d   1       1.245   8.578  27.522  0.00  0.00    -0.150 NA
BRANCH   9  10
ATOM     10  C13 ZZ4 d   1       2.281   8.048  28.300  0.00  0.00     0.079 A 
ATOM     11  C14 ZZ4 d   1       3.565   8.569  28.194  0.00  0.00    -0.053 A 
ATOM     12  C15 ZZ4 d   1       4.594   8.043  28.967  0.00  0.00    -0.081 A 
ATOM     13  H7  ZZ4 d   1       3.764   9.385  27.509  0.00  0.00     0.087 H 
ATOM     14  C16 ZZ4 d   1       4.339   6.995  29.844  0.00  0.00    -0.083 A 
ATOM     15  H8  ZZ4 d   1       5.595   8.450  28.886  0.00  0.00     0.083 H 
ATOM     16  C11 ZZ4 d   1       3.055   6.474  29.949  0.00  0.00    -0.081 A 
ATOM     17  H9  ZZ4 d   1       5.142   6.584  30.446  0.00  0.00     0.083 H 
ATOM     18  C12 ZZ4 d   1       2.026   7.000  29.177  0.00  0.00    -0.053 A 
ATOM     19  H10 ZZ4 d   1       2.856   5.657  30.633  0.00  0.00     0.083 H 
ATOM     20  H11 ZZ4 d   1       1.025   6.593  29.259  0.00  0.00     0.087 H 
ENDBRANCH   9  10
ENDBRANCH   3   8
BRANCH   1  21
ATOM     21  C6  ZZ4 d   1       2.032  10.878  24.305  0.00  0.00     0.018 A 
ATOM     22  C5  ZZ4 d   1       2.722   9.720  23.973  0.00  0.00    -0.067 A 
ATOM     23  C1  ZZ4 d   1       4.020   9.804  23.478  0.00  0.00    -0.061 A 
ATOM     24  H2  ZZ4 d   1       2.251   8.752  24.099  0.00  0.00     0.085 H 
ATOM     25  C2  ZZ4 d   1       4.649  11.035  23.306  0.00  0.00     0.035 A 
ATOM     26  H1  ZZ4 d   1       4.551   8.895  23.221  0.00  0.00     0.086 H 
ATOM     27 CL1  ZZ4 d   1       6.325  11.090  22.665  0.00  0.00    -0.084 Cl
ATOM     28  C3  ZZ4 d   1       3.997  12.222  23.625  0.00  0.00    -0.040 A 
ATOM     29  C4  ZZ4 d   1       2.701  12.190  24.122  0.00  0.00     0.048 A 
ATOM     30  H3  ZZ4 d   1       4.501  13.172  23.485  0.00  0.00     0.088 H 
ATOM     31 CL2  ZZ4 d   1       1.847  13.713  24.538  0.00  0.00    -0.083 Cl
ENDBRANCH   1  21
BRANCH   6  32
ATOM     32  N2  ZZ4 d   1      -2.674  11.735  23.888  0.00  0.00    -0.231 N 
ATOM     33  H5  ZZ4 d   1      -2.489  12.166  22.971  0.00  0.00     0.174 HD
ATOM     34  H6  ZZ4 d   1      -3.637  11.688  24.250  0.00  0.00     0.174 HD
ENDBRANCH   6  32
TORSDOF 4
