REMARK  5 active torsions:
REMARK  status: ('A' for Active; 'I' for Inactive)
REMARK    1  A    between atoms: C9_9  and  C15_10 
REMARK       I    between atoms: C15_10  and  N20_11 
REMARK    2  A    between atoms: C2_16  and  C5_17 
REMARK    3  A    between atoms: C22_22  and  O23_23 
REMARK    4  A    between atoms: O23_23  and  C24_24 
REMARK    5  A    between atoms: C24_24  and  C25_25 
ROOT
ATOM      1  N19 ZZ5 d   1      31.909  11.866  21.646  0.00  0.00    -0.191 NA
ATOM      2  C14 ZZ5 d   1      31.646  11.375  22.661  0.00  0.00     0.104 C 
ATOM      3  C6  ZZ5 d   1      31.354  10.830  23.788  0.00  0.00     0.102 A 
ATOM      4  C13 ZZ5 d   1      29.994  10.996  24.377  0.00  0.00     0.144 A 
ATOM      5  N18 ZZ5 d   1      29.069  11.729  23.711  0.00  0.00    -0.383 N 
ATOM      6  N8  ZZ5 d   1      29.663  10.430  25.565  0.00  0.00    -0.222 NA
ATOM      7  C3  ZZ5 d   1      30.544   9.685  26.281  0.00  0.00     0.114 A 
ATOM      8  S7  ZZ5 d   1      30.158   8.968  27.765  0.00  0.00    -0.062 SA
ATOM      9  C9  ZZ5 d   1      31.716   8.241  28.013  0.00  0.00     0.101 A 
ATOM     10  C4  ZZ5 d   1      32.589   8.586  26.857  0.00  0.00     0.062 A 
ATOM     11  N10 ZZ5 d   1      33.872   8.163  26.760  0.00  0.00    -0.397 N 
ATOM     12  C1  ZZ5 d   1      31.939   9.437  25.811  0.00  0.00     0.040 A 
ATOM     13  C2  ZZ5 d   1      32.365  10.028  24.519  0.00  0.00     0.014 A 
ATOM     14  H1  ZZ5 d   1      28.126  11.851  24.107  0.00  0.00     0.157 HD
ATOM     15  H2  ZZ5 d   1      29.309  12.164  22.809  0.00  0.00     0.157 HD
ATOM     16  H5  ZZ5 d   1      34.279   7.578  27.504  0.00  0.00     0.156 HD
ATOM     17  H6  ZZ5 d   1      34.441   8.426  25.942  0.00  0.00     0.156 HD
ENDROOT
BRANCH  13  18
ATOM     18  C5  ZZ5 d   1      33.737   9.825  23.983  0.00  0.00    -0.023 A 
ATOM     19  C12 ZZ5 d   1      34.625  10.893  23.925  0.00  0.00    -0.070 A 
ATOM     20  C17 ZZ5 d   1      35.908  10.704  23.425  0.00  0.00    -0.050 A 
ATOM     21  H7  ZZ5 d   1      34.317  11.873  24.270  0.00  0.00     0.085 H 
ATOM     22  C22 ZZ5 d   1      36.303   9.447  22.982  0.00  0.00     0.068 A 
ATOM     23  H8  ZZ5 d   1      36.600  11.537  23.381  0.00  0.00     0.087 H 
ATOM     24  C16 ZZ5 d   1      35.415   8.379  23.040  0.00  0.00    -0.050 A 
ATOM     25  C11 ZZ5 d   1      34.132   8.568  23.541  0.00  0.00    -0.070 A 
ATOM     26  H10 ZZ5 d   1      35.723   7.399  22.695  0.00  0.00     0.087 H 
ATOM     27  H9  ZZ5 d   1      33.440   7.735  23.587  0.00  0.00     0.085 H 
BRANCH  22  28
ATOM     28  O23 ZZ5 d   1      37.567   9.261  22.489  0.00  0.00    -0.352 OA
BRANCH  28  29
ATOM     29  C24 ZZ5 d   1      38.240  10.331  21.829  0.00  0.00     0.023 C 
ATOM     30  H11 ZZ5 d   1      37.739  11.281  22.067  0.00  0.00     0.074 H 
ATOM     31  H12 ZZ5 d   1      38.215  10.165  20.742  0.00  0.00     0.074 H 
BRANCH  29  32
ATOM     32  C25 ZZ5 d   1      39.678  10.387  22.298  0.00  0.00    -0.056 C 
ATOM     33  H13 ZZ5 d   1      40.198  11.212  21.789  0.00  0.00     0.030 H 
ATOM     34  H14 ZZ5 d   1      40.178   9.437  22.061  0.00  0.00     0.030 H 
ATOM     35  H15 ZZ5 d   1      39.703  10.553  23.385  0.00  0.00     0.030 H 
ENDBRANCH  29  32
ENDBRANCH  28  29
ENDBRANCH  22  28
ENDBRANCH  13  18
BRANCH   9  36
ATOM     36  C15 ZZ5 d   1      32.005   7.428  29.228  0.00  0.00     0.258 C 
ATOM     37  N20 ZZ5 d   1      30.991   7.051  30.005  0.00  0.00    -0.365 N 
ATOM     38  H3  ZZ5 d   1      31.165   6.505  30.825  0.00  0.00     0.159 HD
ATOM     39  H4  ZZ5 d   1      30.055   7.314  29.769  0.00  0.00     0.159 HD
ATOM     40  O21 ZZ5 d   1      33.159   7.126  29.485  0.00  0.00    -0.267 OA
ENDBRANCH   9  36
TORSDOF 5
