REMARK  5 active torsions:
REMARK  status: ('A' for Active; 'I' for Inactive)
REMARK    1  A    between atoms: C11_8  and  C2_9 
REMARK    2  A    between atoms: C4_11  and  N10_12 
REMARK    3  A    between atoms: C8_18  and  C12_19 
REMARK       I    between atoms: C12_19  and  N14_21 
REMARK    4  A    between atoms: N14_21  and  C15_22 
REMARK    5  A    between atoms: C15_22  and  C16_23 
ROOT
ATOM      1  C2  ZZ6 d   1      32.009  10.342  24.904  0.00  0.00     0.101 A 
ATOM      2  N1  ZZ6 d   1      30.950  10.879  24.253  0.00  0.00    -0.062 NA
ATOM      3  C4  ZZ6 d   1      29.667  10.702  24.667  0.00  0.00     0.721 A 
ATOM      4  N3  ZZ6 d   1      29.356   9.971  25.767  0.00  0.00    -0.055 NA
ATOM      5  C5  ZZ6 d   1      30.346   9.394  26.484  0.00  0.00     0.130 A 
ATOM      6  S9  ZZ6 d   1      30.190   8.456  27.865  0.00  0.00    -0.063 SA
ATOM      7  C6  ZZ6 d   1      31.765   9.526  26.119  0.00  0.00     0.032 A 
ATOM      8  C7  ZZ6 d   1      32.657   8.827  27.026  0.00  0.00    -0.046 A 
ATOM      9  C8  ZZ6 d   1      31.908   8.195  28.034  0.00  0.00     0.075 A 
ATOM     10  H6  ZZ6 d   1      33.742   8.797  26.939  0.00  0.00     0.087 H 
ENDROOT
BRANCH   1  11
ATOM     11  C11 ZZ6 d   1      33.393  10.567  24.409  0.00  0.00     0.016 A 
ATOM     12  C21 ZZ6 d   1      33.913  11.944  24.223  0.00  0.00     0.048 A 
ATOM     13 CL2  ZZ6 d   1      32.879  13.365  24.591  0.00  0.00    -0.083 Cl
ATOM     14  C20 ZZ6 d   1      35.210  12.118  23.759  0.00  0.00    -0.040 A 
ATOM     15  C19 ZZ6 d   1      36.003  11.009  23.477  0.00  0.00     0.035 A 
ATOM     16  H1  ZZ6 d   1      35.605  13.117  23.616  0.00  0.00     0.088 H 
ATOM     17 CL1  ZZ6 d   1      37.678  11.248  22.879  0.00  0.00    -0.084 Cl
ATOM     18  C18 ZZ6 d   1      35.513   9.717  23.653  0.00  0.00    -0.061 A 
ATOM     19  C17 ZZ6 d   1      34.220   9.491  24.115  0.00  0.00    -0.068 A 
ATOM     20  H2  ZZ6 d   1      36.151   8.871  23.426  0.00  0.00     0.086 H 
ATOM     21  H3  ZZ6 d   1      33.859   8.477  24.245  0.00  0.00     0.085 H 
ENDBRANCH   1  11
BRANCH   3  22
ATOM     22  N10 ZZ6 d   1      28.665  11.274  23.958  0.00  0.00    -0.231 N 
ATOM     23  H4  ZZ6 d   1      28.881  11.833  23.120  0.00  0.00     0.174 HD
ATOM     24  H5  ZZ6 d   1      27.687  11.150  24.257  0.00  0.00     0.174 HD
ENDBRANCH   3  22
BRANCH   9  25
ATOM     25  C12 ZZ6 d   1      32.296   7.358  29.204  0.00  0.00     0.258 C 
ATOM     26  O13 ZZ6 d   1      33.455   6.997  29.323  0.00  0.00    -0.267 OA
ATOM     27  N14 ZZ6 d   1      31.363   7.024  30.091  0.00  0.00    -0.357 N 
ATOM     28  H7  ZZ6 d   1      30.453   7.431  30.019  0.00  0.00     0.162 HD
BRANCH  27  29
ATOM     29  C15 ZZ6 d   1      31.635   6.083  31.160  0.00  0.00    -0.008 C 
ATOM     30  H8  ZZ6 d   1      32.629   5.639  30.998  0.00  0.00     0.063 H 
ATOM     31  H9  ZZ6 d   1      30.872   5.291  31.139  0.00  0.00     0.063 H 
BRANCH  29  32
ATOM     32  C16 ZZ6 d   1      31.612   6.747  32.519  0.00  0.00    -0.061 C 
ATOM     33  H10 ZZ6 d   1      31.823   5.998  33.297  0.00  0.00     0.029 H 
ATOM     34  H11 ZZ6 d   1      30.620   7.189  32.695  0.00  0.00     0.029 H 
ATOM     35  H12 ZZ6 d   1      32.377   7.537  32.554  0.00  0.00     0.029 H 
ENDBRANCH  29  32
ENDBRANCH  27  29
ENDBRANCH   9  25
TORSDOF 5
