REMARK  9 active torsions:
REMARK  status: ('A' for Active; 'I' for Inactive)
REMARK       I    between atoms: C12_2  and  N14_3 
REMARK    1  A    between atoms: C12_2  and  C8_6 
REMARK    2  A    between atoms: N14_3  and  C15_4 
REMARK    3  A    between atoms: C15_4  and  C16_5 
REMARK    4  A    between atoms: C2_12  and  N11_13 
REMARK    5  A    between atoms: C4_15  and  C10_16 
REMARK    6  A    between atoms: C18_23  and  O24_24 
REMARK    7  A    between atoms: O24_24  and  C25_25 
REMARK    8  A    between atoms: C25_25  and  C26_26 
REMARK    9  A    between atoms: C26_26  and  N27_27 
ROOT
ATOM      1  C10 2KL d   1       2.047  10.478  24.385  0.00  0.00     0.019 A 
ATOM      2  C17 2KL d   1       2.653   9.251  24.089  0.00  0.00    -0.035 A 
ATOM      3  C21 2KL d   1       2.831  11.727  24.248  0.00  0.00     0.048 A 
ATOM      4 CL1  2KL d   1       2.143  13.314  24.645  0.00  0.00    -0.083 Cl
ATOM      5  C20 2KL d   1       4.118  11.714  23.816  0.00  0.00    -0.037 A 
ATOM      6  C19 2KL d   1       4.669  10.521  23.512  0.00  0.00     0.069 A 
ATOM      7 CL2  2KL d   1       6.320  10.595  22.930  0.00  0.00    -0.081 Cl
ATOM      8  C18 2KL d   1       3.965   9.244  23.636  0.00  0.00     0.091 A 
ATOM      9  H10 2KL d   1       2.107   8.323  24.212  0.00  0.00     0.089 H 
ATOM     10  H11 2KL d   1       4.685  12.633  23.718  0.00  0.00     0.088 H 
ENDROOT
BRANCH   1  11
ATOM     11  C4  2KL d   1       0.645  10.532  24.890  0.00  0.00     0.101 A 
ATOM     12  C5  2KL d   1       0.350   9.883  26.157  0.00  0.00     0.032 A 
ATOM     13  C9  2KL d   1       1.236   9.163  27.041  0.00  0.00    -0.046 A 
ATOM     14  C6  2KL d   1      -1.046   9.955  26.615  0.00  0.00     0.130 A 
ATOM     15  C8  2KL d   1       0.500   8.703  28.129  0.00  0.00     0.075 A 
ATOM     16  H7  2KL d   1       2.302   9.006  26.883  0.00  0.00     0.087 H 
ATOM     17  S7  2KL d   1      -1.213   9.150  28.088  0.00  0.00    -0.063 SA
ATOM     18  N3  2KL d   1      -1.984  10.599  25.893  0.00  0.00    -0.055 NA
ATOM     19  C2  2KL d   1      -1.612  11.180  24.723  0.00  0.00     0.721 A 
ATOM     20  N1  2KL d   1      -0.339  11.148  24.248  0.00  0.00    -0.062 NA
BRANCH  15  21
ATOM     21  C12 2KL d   1       1.051   7.885  29.243  0.00  0.00     0.258 C 
ATOM     22  O13 2KL d   1       2.059   7.240  28.949  0.00  0.00    -0.267 OA
ATOM     23  N14 2KL d   1       0.489   7.852  30.458  0.00  0.00    -0.357 N 
ATOM     24  H1  2KL d   1      -0.436   8.214  30.575  0.00  0.00     0.162 HD
BRANCH  23  25
ATOM     25  C15 2KL d   1       1.185   7.305  31.614  0.00  0.00    -0.008 C 
ATOM     26  H2  2KL d   1       0.974   7.936  32.490  0.00  0.00     0.063 H 
ATOM     27  H3  2KL d   1       2.267   7.306  31.414  0.00  0.00     0.063 H 
BRANCH  25  28
ATOM     28  C16 2KL d   1       0.738   5.883  31.910  0.00  0.00    -0.061 C 
ATOM     29  H4  2KL d   1       1.283   5.503  32.787  0.00  0.00     0.029 H 
ATOM     30  H5  2KL d   1       0.950   5.243  31.041  0.00  0.00     0.029 H 
ATOM     31  H6  2KL d   1      -0.342   5.874  32.117  0.00  0.00     0.029 H 
ENDBRANCH  25  28
ENDBRANCH  23  25
ENDBRANCH  15  21
BRANCH  19  32
ATOM     32  N11 2KL d   1      -2.563  11.808  23.995  0.00  0.00    -0.231 N 
ATOM     33  H8  2KL d   1      -3.534  11.844  24.337  0.00  0.00     0.174 HD
ATOM     34  H9  2KL d   1      -2.317  12.251  23.098  0.00  0.00     0.174 HD
ENDBRANCH  19  32
ENDBRANCH   1  11
BRANCH   8  35
ATOM     35  O24 2KL d   1       4.623   8.096  23.269  0.00  0.00    -0.348 OA
BRANCH  35  36
ATOM     36  C25 2KL d   1       3.930   6.903  22.883  0.00  0.00     0.049 C 
ATOM     37  H12 2KL d   1       3.414   7.076  21.927  0.00  0.00     0.077 H 
ATOM     38  H13 2KL d   1       3.192   6.645  23.657  0.00  0.00     0.077 H 
BRANCH  36  39
ATOM     39  C26 2KL d   1       4.916   5.748  22.722  0.00  0.00     0.103 C 
ATOM     40  H14 2KL d   1       5.878   6.129  22.349  0.00  0.00     0.079 H 
ATOM     41  H15 2KL d   1       4.513   5.011  22.011  0.00  0.00     0.079 H 
BRANCH  39  42
ATOM     42  N27 2KL d   1       5.107   5.118  24.035  0.00  0.00    -0.069 N 
ATOM     43  C28 2KL d   1       5.034   3.652  24.187  0.00  0.00     0.084 C 
ATOM     44  C29 2KL d   1       4.990   3.455  25.719  0.00  0.00    -0.041 C 
ATOM     45  H17 2KL d   1       5.920   3.166  23.753  0.00  0.00     0.076 H 
ATOM     46  H18 2KL d   1       4.126   3.251  23.712  0.00  0.00     0.076 H 
ATOM     47  C30 2KL d   1       5.101   4.843  26.365  0.00  0.00    -0.041 C 
ATOM     48  H23 2KL d   1       5.830   2.822  26.041  0.00  0.00     0.035 H 
ATOM     49  H24 2KL d   1       4.041   2.980  26.010  0.00  0.00     0.035 H 
ATOM     50  C31 2KL d   1       5.382   5.881  25.264  0.00  0.00     0.084 C 
ATOM     51  H21 2KL d   1       4.158   5.090  26.874  0.00  0.00     0.035 H 
ATOM     52  H22 2KL d   1       5.924   4.846  27.095  0.00  0.00     0.035 H 
ATOM     53  H19 2KL d   1       4.711   6.748  25.353  0.00  0.00     0.076 H 
ATOM     54  H20 2KL d   1       6.427   6.222  25.296  0.00  0.00     0.076 H 
ATOM     55  H16 2KL d   1       4.116   5.198  24.203  0.00  0.00     0.280 HD
ENDBRANCH  39  42
ENDBRANCH  36  39
ENDBRANCH  35  36
ENDBRANCH   8  35
TORSDOF 9
