REMARK  11 active torsions:
REMARK  status: ('A' for Active; 'I' for Inactive)
REMARK    1  A    between atoms: PG_1  and  N3B_5 
REMARK    2  A    between atoms: N3B_5  and  PB_6 
REMARK    3  A    between atoms: PB_6  and  O3A_9 
REMARK    4  A    between atoms: O3A_9  and  PA_10 
REMARK    5  A    between atoms: PA_10  and  O5'_13 
REMARK    6  A    between atoms: O5'_13  and  C5'_14 
REMARK    7  A    between atoms: C5'_14  and  C4'_15 
REMARK    8  A    between atoms: C3'_17  and  O3'_18 
REMARK    9  A    between atoms: C2'_19  and  O2'_20 
REMARK   10  A    between atoms: C1'_21  and  N9_22 
REMARK   11  A    between atoms: C2_29  and  N2_30 
ROOT
ATOM      1  C4' GNP d   1      20.159   8.248  68.685  0.00  0.00     0.089 C 
ATOM      2  O4' GNP d   1      19.017   7.468  68.019  0.00  0.00    -0.353 OA
ATOM      3  C3' GNP d   1      20.322   7.578  70.060  0.00  0.00     0.091 C 
ATOM      4  C2' GNP d   1      19.492   6.310  69.963  0.00  0.00     0.105 C 
ATOM      5  C1' GNP d   1      18.359   6.652  68.886  0.00  0.00     0.139 C 
ATOM      6  H   GNP d   1      19.961   9.308  68.843  0.00  0.00     0.090 H 
ATOM      7  H   GNP d   1      21.388   7.487  70.268  0.00  0.00     0.091 H 
ATOM      8  H   GNP d   1      20.083   5.434  69.694  0.00  0.00     0.093 H 
ATOM      9  H   GNP d   1      17.459   7.036  69.367  0.00  0.00     0.122 H 
ENDROOT
BRANCH   1  10
ATOM     10  C5' GNP d   1      21.359   8.332  67.800  0.00  0.00     0.058 C 
ATOM     11  H   GNP d   1      21.124   8.695  66.799  0.00  0.00     0.079 H 
ATOM     12  H   GNP d   1      22.096   9.054  68.152  0.00  0.00     0.079 H 
BRANCH  10  13
ATOM     13  O5' GNP d   1      21.858   6.967  67.804  0.00  0.00    -0.287 OA
BRANCH  13  14
ATOM     14  PA  GNP d   1      23.278   6.480  67.758  0.00  0.00     0.417 P 
ATOM     15  O1A GNP d   1      23.391   5.029  67.963  0.00  0.00    -0.624 OA
ATOM     16  O2A GNP d   1      24.317   7.330  68.561  0.00  0.00    -0.624 OA
BRANCH  14  17
ATOM     17  O3A GNP d   1      23.670   6.976  66.246  0.00  0.00    -0.186 OA
BRANCH  17  18
ATOM     18  PB  GNP d   1      25.081   6.959  65.360  0.00  0.00     0.379 P 
ATOM     19  O1B GNP d   1      26.022   6.053  66.008  0.00  0.00    -0.629 OA
ATOM     20  O2B GNP d   1      24.352   6.776  63.866  0.00  0.00    -0.629 OA
BRANCH  18  21
ATOM     21  N3B GNP d   1      25.362   8.657  65.178  0.00  0.00    -0.218 N 
ATOM     22  H   GNP d   1      24.565   9.293  65.154  0.00  0.00     0.179 HD
BRANCH  21  23
ATOM     23  PG  GNP d   1      26.881   9.271  65.042  0.00  0.00     0.381 P 
ATOM     24  O1G GNP d   1      27.189   9.391  63.541  0.00  0.00    -0.622 OA
ATOM     25  O2G GNP d   1      27.864   8.229  65.499  0.00  0.00    -0.622 OA
ATOM     26  O3G GNP d   1      26.777  10.736  65.786  0.00  0.00    -0.622 OA
ENDBRANCH  21  23
ENDBRANCH  18  21
ENDBRANCH  17  18
ENDBRANCH  14  17
ENDBRANCH  13  14
ENDBRANCH  10  13
ENDBRANCH   1  10
BRANCH   3  27
ATOM     27  O3' GNP d   1      19.659   8.301  71.145  0.00  0.00    -0.390 OA
ATOM     28  H   GNP d   1      19.798   7.833  71.972  0.00  0.00     0.210 HD
ENDBRANCH   3  27
BRANCH   5  29
ATOM     29  N9  GNP d   1      18.042   5.476  68.070  0.00  0.00    -0.295 N 
ATOM     30  C8  GNP d   1      18.883   4.625  67.452  0.00  0.00     0.071 A 
ATOM     31  N7  GNP d   1      18.160   3.629  66.853  0.00  0.00    -0.234 NA
ATOM     32  H   GNP d   1      19.969   4.715  67.432  0.00  0.00     0.144 H 
ATOM     33  C5  GNP d   1      16.865   3.863  67.076  0.00  0.00     0.171 A 
ATOM     34  C6  GNP d   1      15.673   3.370  66.604  0.00  0.00     0.292 C 
ATOM     35  C4  GNP d   1      16.821   5.082  67.845  0.00  0.00     0.161 A 
ATOM     36  O6  GNP d   1      15.479   2.312  65.968  0.00  0.00    -0.265 OA
ATOM     37  N1  GNP d   1      14.466   4.034  67.055  0.00  0.00    -0.154 N 
ATOM     38  C2  GNP d   1      14.487   5.154  67.876  0.00  0.00     0.680 C 
ATOM     39  H   GNP d   1      13.564   3.663  66.757  0.00  0.00     0.187 HD
ATOM     40  N3  GNP d   1      15.654   5.735  68.189  0.00  0.00    -0.174 N 
ATOM     41  H   GNP d   1      15.679   6.635  68.668  0.00  0.00     0.186 HD
BRANCH  38  42
ATOM     42  N2  GNP d   1      13.275   5.619  68.245  0.00  0.00    -0.234 N 
ATOM     43  H   GNP d   1      12.429   5.151  67.921  0.00  0.00     0.174 HD
ATOM     44  H   GNP d   1      13.205   6.439  68.848  0.00  0.00     0.174 HD
ENDBRANCH  38  42
ENDBRANCH   5  29
BRANCH   4  45
ATOM     45  O2' GNP d   1      18.881   6.097  71.184  0.00  0.00    -0.388 OA
ATOM     46  H   GNP d   1      18.317   6.845  71.393  0.00  0.00     0.210 HD
ENDBRANCH   4  45
TORSDOF 11
