REMARK  5 active torsions:
REMARK  status: ('A' for Active; 'I' for Inactive)
REMARK    1  A    between atoms: C2_1  and  C1_2 
REMARK    2  A    between atoms: C1_2  and  O3_3 
REMARK    3  A    between atoms: O3_3  and  P_4 
REMARK    4  A    between atoms: P_4  and  N_6 
REMARK    5  A    between atoms: N_6  and  C3_7 
ROOT
ATOM      1  O3  TC3 d   1     -14.837 -37.324 -22.259  0.00  0.00    -0.322 OA
ENDROOT
BRANCH   1   2
ATOM      2  C1  TC3 d   1     -14.573 -38.313 -21.334  0.00  0.00     0.025 C 
ATOM      3  H   TC3 d   1     -14.097 -37.926 -20.433  0.00  0.00     0.074 H 
ATOM      4  H   TC3 d   1     -15.480 -38.788 -20.960  0.00  0.00     0.074 H 
BRANCH   2   5
ATOM      5  C2  TC3 d   1     -13.675 -39.287 -22.098  0.00  0.00    -0.056 C 
ATOM      6  H   TC3 d   1     -14.210 -39.665 -22.969  0.00  0.00     0.030 H 
ATOM      7  H   TC3 d   1     -12.772 -38.769 -22.421  0.00  0.00     0.030 H 
ATOM      8  H   TC3 d   1     -13.405 -40.118 -21.446  0.00  0.00     0.030 H 
ENDBRANCH   2   5
ENDBRANCH   1   2
BRANCH   1   9
ATOM      9  P   TC3 d   1     -16.264 -36.823 -22.716  0.00  0.00     0.315 P 
ATOM     10  O2  TC3 d   1     -16.208 -36.660 -24.158  0.00  0.00    -0.152 OA
BRANCH   9  11
ATOM     11  N   TC3 d   1     -17.373 -37.790 -22.018  0.00  0.00    -0.357 N 
ATOM     12  H   TC3 d   1     -17.730 -37.601 -21.081  0.00  0.00     0.161 HD
BRANCH  11  13
ATOM     13  C3  TC3 d   1     -17.845 -38.964 -22.807  0.00  0.00    -0.018 C 
ATOM     14  H   TC3 d   1     -18.302 -38.617 -23.734  0.00  0.00     0.056 H 
ATOM     15  H   TC3 d   1     -16.998 -39.610 -23.037  0.00  0.00     0.056 H 
ATOM     16  H   TC3 d   1     -18.579 -39.520 -22.224  0.00  0.00     0.056 H 
ENDBRANCH  11  13
ENDBRANCH   9  11
ENDBRANCH   1   9
TORSDOF 5
