REMARK  9 active torsions:
REMARK  status: ('A' for Active; 'I' for Inactive)
REMARK       I    between atoms: C2_2  and  N3_3 
REMARK    1  A    between atoms: C2_2  and  C5_5 
REMARK    2  A    between atoms: N3_3  and  C4_4 
REMARK    3  A    between atoms: N7_7  and  C8_8 
REMARK    4  A    between atoms: C14_14  and  C15_15 
REMARK    5  A    between atoms: C14_14  and  C16_16 
REMARK    6  A    between atoms: C18_18  and  N21_21 
REMARK    7  A    between atoms: N21_21  and  C22_22 
REMARK    8  A    between atoms: C25_25  and  N28_28 
REMARK    9  A    between atoms: N31_31  and  C32_32 
ROOT
ATOM      1  C5  P48 d   1     -14.083 202.257 114.174  0.00  0.00     0.154 A 
ATOM      2  N6  P48 d   1     -12.981 202.598 114.812  0.00  0.00    -0.166 NA
ATOM      3  N7  P48 d   1     -12.113 203.185 113.923  0.00  0.00    -0.271 N 
ATOM      4  C9  P48 d   1     -12.614 203.234 112.696  0.00  0.00     0.092 A 
ATOM      5  C10 P48 d   1     -13.967 202.633 112.735  0.00  0.00     0.017 A 
ATOM      6  C11 P48 d   1     -12.041 203.802 111.451  0.00  0.00     0.112 A 
ATOM      7  C12 P48 d   1     -12.861 203.855 110.305  0.00  0.00    -0.007 A 
ATOM      8  C13 P48 d   1     -14.324 203.373 110.298  0.00  0.00    -0.027 C 
ATOM      9  C14 P48 d   1     -14.833 202.514 111.466  0.00  0.00    -0.012 C 
ATOM     10  N17 P48 d   1     -10.765 204.270 111.425  0.00  0.00    -0.060 NA
ATOM     11  C18 P48 d   1     -10.207 204.807 110.317  0.00  0.00     0.727 A 
ATOM     12  N19 P48 d   1     -10.973 204.860 109.175  0.00  0.00    -0.074 NA
ATOM     13  C20 P48 d   1     -12.269 204.411 109.154  0.00  0.00     0.029 A 
ATOM     14  H8  P48 d   1     -14.464 202.784 109.380  0.00  0.00     0.042 H 
ATOM     15  H9  P48 d   1     -14.959 204.271 110.258  0.00  0.00     0.042 H 
ATOM     16  H16 P48 d   1     -12.846 204.485 108.239  0.00  0.00     0.116 H 
ENDROOT
BRANCH  11  17
ATOM     17  N21 P48 d   1      -8.941 205.289 110.321  0.00  0.00    -0.188 N 
ATOM     18  H17 P48 d   1      -8.619 205.655 109.414  0.00  0.00     0.184 HD
BRANCH  17  19
ATOM     19  C22 P48 d   1      -8.009 205.372 111.339  0.00  0.00     0.049 A 
ATOM     20  C23 P48 d   1      -8.370 205.686 112.693  0.00  0.00    -0.054 A 
ATOM     21  C24 P48 d   1      -7.407 205.787 113.701  0.00  0.00    -0.055 A 
ATOM     22  H18 P48 d   1      -9.413 205.848 112.939  0.00  0.00     0.087 H 
ATOM     23  C25 P48 d   1      -6.040 205.579 113.384  0.00  0.00     0.030 A 
ATOM     24  H19 P48 d   1      -7.702 206.022 114.717  0.00  0.00     0.087 H 
ATOM     25  C26 P48 d   1      -5.654 205.263 112.033  0.00  0.00    -0.055 A 
ATOM     26  C27 P48 d   1      -6.636 205.161 111.023  0.00  0.00    -0.054 A 
ATOM     27  H20 P48 d   1      -4.609 205.103 111.791  0.00  0.00     0.087 H 
ATOM     28  H21 P48 d   1      -6.345 204.922 110.007  0.00  0.00     0.087 H 
BRANCH  23  29
ATOM     29  N28 P48 d   1      -5.056 205.687 114.379  0.00  0.00    -0.378 N 
ATOM     30  C29 P48 d   1      -4.983 206.879 115.235  0.00  0.00     0.018 C 
ATOM     31  C30 P48 d   1      -5.072 206.283 116.634  0.00  0.00     0.098 C 
ATOM     32  H22 P48 d   1      -5.823 207.562 115.039  0.00  0.00     0.066 H 
ATOM     33  H23 P48 d   1      -4.033 207.415 115.091  0.00  0.00     0.066 H 
ATOM     34  N31 P48 d   1      -4.011 205.268 116.662  0.00  0.00    -0.072 N 
ATOM     35  H24 P48 d   1      -6.057 205.822 116.800  0.00  0.00     0.078 H 
ATOM     36  H25 P48 d   1      -4.894 207.054 117.398  0.00  0.00     0.078 H 
ATOM     37  C33 P48 d   1      -4.157 204.036 115.897  0.00  0.00     0.098 C 
ATOM     38  H26 P48 d   1      -4.442 204.833 117.463  0.00  0.00     0.279 HD
ATOM     39  C34 P48 d   1      -4.087 204.565 114.465  0.00  0.00     0.018 C 
ATOM     40  H30 P48 d   1      -5.122 203.548 116.100  0.00  0.00     0.078 H 
ATOM     41  H31 P48 d   1      -3.338 203.332 116.107  0.00  0.00     0.078 H 
ATOM     42  H32 P48 d   1      -3.071 204.923 114.242  0.00  0.00     0.066 H 
ATOM     43  H33 P48 d   1      -4.361 203.772 113.754  0.00  0.00     0.066 H 
BRANCH  34  44
ATOM     44  C32 P48 d   1      -2.790 205.489 117.426  0.00  0.00     0.066 C 
ATOM     45  H27 P48 d   1      -2.127 204.618 117.318  0.00  0.00     0.068 H 
ATOM     46  H28 P48 d   1      -3.042 205.629 118.487  0.00  0.00     0.068 H 
ATOM     47  H29 P48 d   1      -2.279 206.387 117.049  0.00  0.00     0.068 H 
ENDBRANCH  34  44
ENDBRANCH  23  29
ENDBRANCH  17  19
ENDBRANCH  11  17
BRANCH   3  48
ATOM     48  C8  P48 d   1     -10.834 203.606 114.543  0.00  0.00     0.003 C 
ATOM     49  H5  P48 d   1     -10.190 204.066 113.779  0.00  0.00     0.059 H 
ATOM     50  H6  P48 d   1     -10.327 202.728 114.970  0.00  0.00     0.059 H 
ATOM     51  H7  P48 d   1     -11.036 204.337 115.340  0.00  0.00     0.059 H 
ENDBRANCH   3  48
BRANCH   1  52
ATOM     52  C2  P48 d   1     -15.211 201.613 114.839  0.00  0.00     0.272 C 
ATOM     53  O1  P48 d   1     -15.913 200.902 114.166  0.00  0.00    -0.266 OA
ATOM     54  N3  P48 d   1     -15.364 201.867 116.143  0.00  0.00    -0.360 N 
ATOM     55  H1  P48 d   1     -14.689 202.484 116.546  0.00  0.00     0.162 HD
BRANCH  54  56
ATOM     56  C4  P48 d   1     -16.381 201.365 117.052  0.00  0.00    -0.018 C 
ATOM     57  H2  P48 d   1     -16.209 201.777 118.058  0.00  0.00     0.056 H 
ATOM     58  H3  P48 d   1     -16.328 200.267 117.091  0.00  0.00     0.056 H 
ATOM     59  H4  P48 d   1     -17.375 201.671 116.695  0.00  0.00     0.056 H 
ENDBRANCH  54  56
ENDBRANCH   1  52
BRANCH   9  60
ATOM     60  C15 P48 d   1     -16.302 202.857 111.702  0.00  0.00    -0.065 C 
ATOM     61  H10 P48 d   1     -16.690 202.253 112.536  0.00  0.00     0.028 H 
ATOM     62  H11 P48 d   1     -16.880 202.640 110.792  0.00  0.00     0.028 H 
ATOM     63  H12 P48 d   1     -16.394 203.925 111.949  0.00  0.00     0.028 H 
ENDBRANCH   9  60
BRANCH   9  64
ATOM     64  C16 P48 d   1     -14.732 201.074 111.044  0.00  0.00    -0.065 C 
ATOM     65  H13 P48 d   1     -13.677 200.816 110.871  0.00  0.00     0.028 H 
ATOM     66  H14 P48 d   1     -15.303 200.923 110.116  0.00  0.00     0.028 H 
ATOM     67  H15 P48 d   1     -15.142 200.430 111.836  0.00  0.00     0.028 H 
ENDBRANCH   9  64
TORSDOF 9
