REMARK  6 active torsions:
REMARK  status: ('A' for Active; 'I' for Inactive)
REMARK    1  A    between atoms: C2_1  and  C1_2 
REMARK    2  A    between atoms: C1_2  and  O3_3 
REMARK    3  A    between atoms: O3_3  and  P_4 
REMARK    4  A    between atoms: P_4  and  N_6 
REMARK    5  A    between atoms: N_6  and  C3_7 
REMARK    6  A    between atoms: C3_7  and  C4_8 
ROOT
ATOM      1  P   TN7 d   1     -16.187 -36.783 -22.704  0.00  0.00     0.315 P 
ATOM      2  O2  TN7 d   1     -16.060 -36.621 -24.161  0.00  0.00    -0.152 OA
ENDROOT
BRANCH   1   3
ATOM      3  O3  TN7 d   1     -17.436 -37.515 -22.205  0.00  0.00    -0.322 OA
BRANCH   3   4
ATOM      4  C1  TN7 d   1     -18.081 -38.496 -23.045  0.00  0.00     0.025 C 
ATOM      5  H   TN7 d   1     -19.154 -38.489 -22.854  0.00  0.00     0.074 H 
ATOM      6  H   TN7 d   1     -17.897 -38.255 -24.092  0.00  0.00     0.074 H 
BRANCH   4   7
ATOM      7  C2  TN7 d   1     -17.518 -39.882 -22.735  0.00  0.00    -0.056 C 
ATOM      8  H   TN7 d   1     -16.445 -39.888 -22.927  0.00  0.00     0.030 H 
ATOM      9  H   TN7 d   1     -17.703 -40.122 -21.688  0.00  0.00     0.030 H 
ATOM     10  H   TN7 d   1     -18.006 -40.621 -23.370  0.00  0.00     0.030 H 
ENDBRANCH   4   7
ENDBRANCH   3   4
ENDBRANCH   1   3
BRANCH   1  11
ATOM     11  N   TN7 d   1     -14.781 -37.521 -21.855  0.00  0.00    -0.353 N 
ATOM     12  H   TN7 d   1     -14.059 -37.004 -21.354  0.00  0.00     0.162 HD
BRANCH  11  13
ATOM     13  C3  TN7 d   1     -14.832 -38.955 -21.992  0.00  0.00    -0.008 C 
ATOM     14  H   TN7 d   1     -15.407 -39.201 -22.885  0.00  0.00     0.063 H 
ATOM     15  H   TN7 d   1     -15.297 -39.375 -21.100  0.00  0.00     0.063 H 
BRANCH  13  16
ATOM     16  C4  TN7 d   1     -13.435 -39.539 -22.135  0.00  0.00    -0.061 C 
ATOM     17  H   TN7 d   1     -12.956 -39.120 -23.020  0.00  0.00     0.029 H 
ATOM     18  H   TN7 d   1     -12.847 -39.292 -21.251  0.00  0.00     0.029 H 
ATOM     19  H   TN7 d   1     -13.504 -40.622 -22.237  0.00  0.00     0.029 H 
ENDBRANCH  13  16
ENDBRANCH  11  13
ENDBRANCH   1  11
TORSDOF 6
