REMARK  7 active torsions:
REMARK  status: ('A' for Active; 'I' for Inactive)
REMARK    1  A    between atoms: C5_1  and  C4_2 
REMARK    2  A    between atoms: C4_2  and  C3_3 
REMARK    3  A    between atoms: C3_3  and  N_4 
REMARK    4  A    between atoms: N_4  and  P_5 
REMARK    5  A    between atoms: P_5  and  O3_7 
REMARK    6  A    between atoms: O3_7  and  C1_8 
REMARK    7  A    between atoms: C1_8  and  C2_9 
ROOT
ATOM      1  N   TC5 d   1     -14.807 -37.705 -22.217  0.00  0.00    -0.353 N 
ATOM      2  H   TC5 d   1     -13.903 -37.255 -22.358  0.00  0.00     0.162 HD
ENDROOT
BRANCH   1   3
ATOM      3  C3  TC5 d   1     -14.846 -38.941 -21.500  0.00  0.00    -0.005 C 
ATOM      4  H   TC5 d   1     -14.932 -38.816 -20.421  0.00  0.00     0.064 H 
ATOM      5  H   TC5 d   1     -15.726 -39.545 -21.721  0.00  0.00     0.064 H 
BRANCH   3   6
ATOM      6  C4  TC5 d   1     -13.510 -39.601 -21.945  0.00  0.00    -0.054 C 
ATOM      7  H   TC5 d   1     -13.066 -39.060 -22.780  0.00  0.00     0.034 H 
ATOM      8  H   TC5 d   1     -12.776 -39.580 -21.140  0.00  0.00     0.034 H 
BRANCH   6   9
ATOM      9  C5  TC5 d   1     -13.843 -41.010 -22.333  0.00  0.00    -0.075 C 
ATOM     10  H   TC5 d   1     -14.270 -41.530 -21.476  0.00  0.00     0.027 H 
ATOM     11  H   TC5 d   1     -14.565 -41.000 -23.149  0.00  0.00     0.027 H 
ATOM     12  H   TC5 d   1     -12.936 -41.521 -22.655  0.00  0.00     0.027 H 
ENDBRANCH   6   9
ENDBRANCH   3   6
ENDBRANCH   1   3
BRANCH   1  13
ATOM     13  P   TC5 d   1     -16.324 -36.876 -22.906  0.00  0.00     0.315 P 
ATOM     14  O2  TC5 d   1     -16.237 -36.558 -24.385  0.00  0.00    -0.152 OA
BRANCH  13  15
ATOM     15  O3  TC5 d   1     -17.787 -37.837 -22.579  0.00  0.00    -0.322 OA
BRANCH  15  16
ATOM     16  C1  TC5 d   1     -17.775 -39.295 -22.580  0.00  0.00     0.025 C 
ATOM     17  H   TC5 d   1     -17.044 -39.652 -21.854  0.00  0.00     0.074 H 
ATOM     18  H   TC5 d   1     -17.508 -39.655 -23.574  0.00  0.00     0.074 H 
BRANCH  16  19
ATOM     19  C2  TC5 d   1     -19.197 -39.832 -22.196  0.00  0.00    -0.056 C 
ATOM     20  H   TC5 d   1     -19.464 -39.472 -21.203  0.00  0.00     0.030 H 
ATOM     21  H   TC5 d   1     -19.927 -39.474 -22.922  0.00  0.00     0.030 H 
ATOM     22  H   TC5 d   1     -19.185 -40.922 -22.198  0.00  0.00     0.030 H 
ENDBRANCH  16  19
ENDBRANCH  15  16
ENDBRANCH  13  15
ENDBRANCH   1  13
TORSDOF 7
