REMARK  10 active torsions:
REMARK  status: ('A' for Active; 'I' for Inactive)
REMARK    1  A    between atoms: CAV_6  and  CAQ_7 
REMARK    2  A    between atoms: CAQ_7  and  CAO_8 
REMARK    3  A    between atoms: CAO_8  and  CAM_9 
REMARK    4  A    between atoms: CAM_9  and  CAN_10 
REMARK    5  A    between atoms: CAN_10  and  CAP_11 
REMARK    6  A    between atoms: CAP_11  and  CAR_12 
REMARK    7  A    between atoms: CAR_12  and  CAZ_13 
REMARK    8  A    between atoms: CAZ_13  and  OAA_14 
REMARK    9  A    between atoms: CAZ_13  and  CAY_15 
REMARK   10  A    between atoms: CAX_19  and  CAW_20 
ROOT
ATOM      1  CAP S99 d   1       5.355 -38.956   8.040  0.00  0.00    -0.062 C 
ATOM      2  H14 S99 d   1       5.284 -39.380   7.027  0.00  0.00     0.033 H 
ATOM      3  H15 S99 d   1       6.325 -39.226   8.483  0.00  0.00     0.033 H 
ENDROOT
BRANCH   1   4
ATOM      4  CAN S99 d   1       4.214 -39.527   8.917  0.00  0.00    -0.065 C 
ATOM      5  H12 S99 d   1       3.351 -38.846   8.889  0.00  0.00     0.033 H 
ATOM      6  H13 S99 d   1       3.914 -40.514   8.536  0.00  0.00     0.033 H 
BRANCH   4   7
ATOM      7  CAM S99 d   1       4.717 -39.662  10.357  0.00  0.00    -0.065 C 
ATOM      8  H10 S99 d   1       5.365 -40.549  10.420  0.00  0.00     0.033 H 
ATOM      9  H11 S99 d   1       5.299 -38.764  10.611  0.00  0.00     0.033 H 
BRANCH   7  10
ATOM     10  CAO S99 d   1       3.569 -39.814  11.387  0.00  0.00    -0.061 C 
ATOM     11  H8  S99 d   1       2.906 -38.938  11.342  0.00  0.00     0.033 H 
ATOM     12  H9  S99 d   1       2.990 -40.724  11.171  0.00  0.00     0.033 H 
BRANCH  10  13
ATOM     13  CAQ S99 d   1       4.213 -39.918  12.795  0.00  0.00    -0.041 C 
ATOM     14  H6  S99 d   1       4.845 -40.818  12.818  0.00  0.00     0.040 H 
ATOM     15  H7  S99 d   1       4.839 -39.027  12.953  0.00  0.00     0.040 H 
BRANCH  13  16
ATOM     16  CAV S99 d   1       3.202 -40.009  13.959  0.00  0.00    -0.058 A 
ATOM     17  CAI S99 d   1       1.824 -40.169  13.718  0.00  0.00    -0.077 A 
ATOM     18  CAE S99 d   1       0.950 -40.233  14.815  0.00  0.00    -0.082 A 
ATOM     19  H1  S99 d   1       1.445 -40.241  12.705  0.00  0.00     0.084 H 
ATOM     20  CAC S99 d   1       1.431 -40.133  16.116  0.00  0.00    -0.083 A 
ATOM     21  H2  S99 d   1      -0.113 -40.362  14.646  0.00  0.00     0.083 H 
ATOM     22  CAF S99 d   1       2.805 -39.955  16.346  0.00  0.00    -0.082 A 
ATOM     23  H3  S99 d   1       0.745 -40.193  16.953  0.00  0.00     0.083 H 
ATOM     24  CAJ S99 d   1       3.697 -39.901  15.275  0.00  0.00    -0.077 A 
ATOM     25  H4  S99 d   1       3.174 -39.859  17.361  0.00  0.00     0.083 H 
ATOM     26  H5  S99 d   1       4.759 -39.777  15.452  0.00  0.00     0.084 H 
ENDBRANCH  13  16
ENDBRANCH  10  13
ENDBRANCH   7  10
ENDBRANCH   4   7
ENDBRANCH   1   4
BRANCH   1  27
ATOM     27  CAR S99 d   1       5.238 -37.411   7.960  0.00  0.00    -0.034 C 
ATOM     28  H16 S99 d   1       5.322 -36.993   8.974  0.00  0.00     0.037 H 
ATOM     29  H17 S99 d   1       4.258 -37.148   7.535  0.00  0.00     0.037 H 
BRANCH  27  30
ATOM     30  CAZ S99 d   1       6.342 -36.806   7.079  0.00  0.00     0.099 C 
ATOM     31  H18 S99 d   1       6.247 -37.185   6.051  0.00  0.00     0.096 H 
BRANCH  30  32
ATOM     32  OAA S99 d   1       7.592 -37.147   7.610  0.00  0.00    -0.387 OA
ATOM     33  H19 S99 d   1       7.680 -38.093   7.628  0.00  0.00     0.210 HD
ENDBRANCH  30  32
BRANCH  30  34
ATOM     34  CAY S99 d   1       6.250 -35.284   7.087  0.00  0.00     0.174 A 
ATOM     35  NAT S99 d   1       5.385 -34.535   7.766  0.00  0.00    -0.222 NA
ATOM     36  CAX S99 d   1       5.654 -33.239   7.493  0.00  0.00     0.110 A 
ATOM     37  CAL S99 d   1       6.704 -33.185   6.673  0.00  0.00     0.051 A 
ATOM     38  OAU S99 d   1       7.115 -34.478   6.409  0.00  0.00    -0.303 OA
ATOM     39  H20 S99 d   1       7.160 -32.278   6.279  0.00  0.00     0.127 H 
BRANCH  36  40
ATOM     40  CAW S99 d   1       4.971 -32.141   8.010  0.00  0.00     0.087 A 
ATOM     41  CAK S99 d   1       3.748 -32.327   8.664  0.00  0.00    -0.053 A 
ATOM     42  CAG S99 d   1       3.066 -31.219   9.201  0.00  0.00    -0.079 A 
ATOM     43  H21 S99 d   1       3.327 -33.322   8.757  0.00  0.00     0.087 H 
ATOM     44  CAD S99 d   1       3.661 -29.959   9.075  0.00  0.00    -0.066 A 
ATOM     45  H22 S99 d   1       2.109 -31.338   9.697  0.00  0.00     0.083 H 
ATOM     46  CAH S99 d   1       4.899 -29.825   8.432  0.00  0.00     0.003 A 
ATOM     47  H23 S99 d   1       3.163 -29.084   9.476  0.00  0.00     0.085 H 
ATOM     48  NAS S99 d   1       5.507 -30.901   7.936  0.00  0.00    -0.259 NA
ATOM     49  H24 S99 d   1       5.360 -28.849   8.339  0.00  0.00     0.114 H 
ENDBRANCH  36  40
ENDBRANCH  30  34
ENDBRANCH  27  30
ENDBRANCH   1  27
TORSDOF 10
