REMARK  11 active torsions:
REMARK  status: ('A' for Active; 'I' for Inactive)
REMARK    1  A    between atoms: PG_1  and  N3B_5 
REMARK    2  A    between atoms: N3B_5  and  PB_6 
REMARK    3  A    between atoms: PB_6  and  O3A_9 
REMARK    4  A    between atoms: O3A_9  and  PA_10 
REMARK    5  A    between atoms: PA_10  and  O5'_13 
REMARK    6  A    between atoms: O5'_13  and  C5'_14 
REMARK    7  A    between atoms: C5'_14  and  C4'_15 
REMARK    8  A    between atoms: C3'_17  and  O3'_18 
REMARK    9  A    between atoms: C2'_19  and  O2'_20 
REMARK   10  A    between atoms: C1'_21  and  N9_22 
REMARK   11  A    between atoms: C2_29  and  N2_30 
ROOT
ATOM      1  C4' GNP d   1       2.780   1.184  27.697  0.00  0.00     0.089 C 
ATOM      2  O4' GNP d   1       2.332  -0.039  28.340  0.00  0.00    -0.353 OA
ATOM      3  C3' GNP d   1       1.837   2.285  28.171  0.00  0.00     0.091 C 
ATOM      4  C2' GNP d   1       1.355   1.746  29.502  0.00  0.00     0.105 C 
ATOM      5  C1' GNP d   1       1.246   0.264  29.180  0.00  0.00     0.139 C 
ATOM      6  H4  GNP d   1       2.673   1.080  26.607  0.00  0.00     0.090 H 
ATOM      7  H5  GNP d   1       2.348   3.253  28.277  0.00  0.00     0.091 H 
ATOM      8  H7  GNP d   1       2.071   1.950  30.312  0.00  0.00     0.093 H 
ATOM      9  H9  GNP d   1       0.299   0.066  28.656  0.00  0.00     0.122 H 
ENDROOT
BRANCH   1  10
ATOM     10  C5' GNP d   1       4.247   1.437  27.991  0.00  0.00     0.058 C 
ATOM     11  H2  GNP d   1       4.806   0.494  27.899  0.00  0.00     0.079 H 
ATOM     12  H3  GNP d   1       4.643   2.170  27.272  0.00  0.00     0.079 H 
BRANCH  10  13
ATOM     13  O5' GNP d   1       4.391   1.945  29.311  0.00  0.00    -0.287 OA
BRANCH  13  14
ATOM     14  PA  GNP d   1       5.801   2.403  29.816  0.00  0.00     0.417 P 
ATOM     15  O1A GNP d   1       5.835   2.124  31.275  0.00  0.00    -0.624 OA
ATOM     16  O2A GNP d   1       5.984   3.815  29.410  0.00  0.00    -0.624 OA
BRANCH  14  17
ATOM     17  O3A GNP d   1       6.795   1.459  29.097  0.00  0.00    -0.186 OA
BRANCH  17  18
ATOM     18  PB  GNP d   1       8.317   1.631  28.959  0.00  0.00     0.379 P 
ATOM     19  O1B GNP d   1       8.923   0.299  29.152  0.00  0.00    -0.629 OA
ATOM     20  O2B GNP d   1       8.739   2.662  29.907  0.00  0.00    -0.629 OA
BRANCH  18  21
ATOM     21  N3B GNP d   1       8.633   2.151  27.477  0.00  0.00    -0.218 N 
ATOM     22  H1  GNP d   1       7.864   2.153  26.838  0.00  0.00     0.179 HD
BRANCH  21  23
ATOM     23  PG  GNP d   1      10.036   2.669  26.896  0.00  0.00     0.381 P 
ATOM     24  O1G GNP d   1      10.772   3.467  27.924  0.00  0.00    -0.622 OA
ATOM     25  O2G GNP d   1      10.815   1.469  26.389  0.00  0.00    -0.622 OA
ATOM     26  O3G GNP d   1       9.743   3.707  25.840  0.00  0.00    -0.622 OA
ENDBRANCH  21  23
ENDBRANCH  18  21
ENDBRANCH  17  18
ENDBRANCH  14  17
ENDBRANCH  13  14
ENDBRANCH  10  13
ENDBRANCH   1  10
BRANCH   3  27
ATOM     27  O3' GNP d   1       0.744   2.389  27.267  0.00  0.00    -0.390 OA
ATOM     28  H6  GNP d   1       1.070   2.600  26.400  0.00  0.00     0.210 HD
ENDBRANCH   3  27
BRANCH   5  29
ATOM     29  N9  GNP d   1       1.296  -0.544  30.387  0.00  0.00    -0.295 N 
ATOM     30  C8  GNP d   1       2.214  -0.445  31.407  0.00  0.00     0.071 A 
ATOM     31  N7  GNP d   1       1.992  -1.297  32.371  0.00  0.00    -0.234 NA
ATOM     32  H10 GNP d   1       3.038   0.268  31.410  0.00  0.00     0.144 H 
ATOM     33  C5  GNP d   1       0.850  -1.991  31.971  0.00  0.00     0.171 A 
ATOM     34  C6  GNP d   1       0.135  -3.035  32.608  0.00  0.00     0.292 A 
ATOM     35  C4  GNP d   1       0.406  -1.532  30.751  0.00  0.00     0.161 A 
ATOM     36  O6  GNP d   1       0.373  -3.574  33.701  0.00  0.00    -0.265 OA
ATOM     37  N1  GNP d   1      -0.968  -3.454  31.859  0.00  0.00    -0.154 N 
ATOM     38  C2  GNP d   1      -1.335  -2.927  30.640  0.00  0.00     0.680 A 
ATOM     39  H11 GNP d   1      -1.532  -4.189  32.235  0.00  0.00     0.187 HD
ATOM     40  N3  GNP d   1      -0.668  -1.951  30.032  0.00  0.00    -0.174 N 
ATOM     41  H14 GNP d   1      -0.935  -1.557  29.119  0.00  0.00     0.186 HD
BRANCH  38  42
ATOM     42  N2  GNP d   1      -2.430  -3.458  30.065  0.00  0.00    -0.234 N 
ATOM     43  H12 GNP d   1      -2.755  -3.106  29.153  0.00  0.00     0.174 HD
ATOM     44  H13 GNP d   1      -2.943  -4.216  30.537  0.00  0.00     0.174 HD
ENDBRANCH  38  42
ENDBRANCH   5  29
BRANCH   4  45
ATOM     45  O2' GNP d   1       0.078   2.242  29.841  0.00  0.00    -0.388 OA
ATOM     46  H8  GNP d   1      -0.547   1.987  29.173  0.00  0.00     0.210 HD
ENDBRANCH   4  45
TORSDOF 11
