REMARK  21 active torsions:
REMARK  status: ('A' for Active; 'I' for Inactive)
REMARK    1  A    between atoms: O4_26  and  C1_1 
REMARK    2  A    between atoms: C2_3  and  N2_10 
REMARK    3  A    between atoms: C3_4  and  O3_11 
REMARK    4  A    between atoms: C4_5  and  O4_12 
REMARK    5  A    between atoms: C5_6  and  C6_7 
REMARK    6  A    between atoms: C6_7  and  O6_14 
REMARK    7  A    between atoms: C7_8  and  C8_9 
REMARK    8  A    between atoms: N2_10  and  C7_8 
REMARK    9  A    between atoms: O4_40  and  C1_15 
REMARK   10  A    between atoms: C2_17  and  N2_24 
REMARK   11  A    between atoms: C3_18  and  O3_25 
REMARK   12  A    between atoms: C4_19  and  O4_26 
REMARK   13  A    between atoms: C5_20  and  C6_21 
REMARK   14  A    between atoms: C6_21  and  O6_28 
REMARK   15  A    between atoms: C7_22  and  C8_23 
REMARK   16  A    between atoms: N2_24  and  C7_22 
REMARK   17  A    between atoms: C3_31  and  O3_39 
REMARK   18  A    between atoms: C4_32  and  O4_40 
REMARK   19  A    between atoms: C5_33  and  C6_34 
REMARK   20  A    between atoms: C6_34  and  O6_42 
REMARK   21  A    between atoms: C7_35  and  C8_36 
ROOT
ATOM      1  C1  SN5 d   1      28.805  73.212  -4.081  0.00  0.00     0.154 C 
ATOM      2  C2  SN5 d   1      29.167  74.008  -5.327  0.00  0.00     0.085 C 
ATOM      3  C3  SN5 d   1      29.359  73.139  -6.564  0.00  0.00     0.087 C 
ATOM      4  C4  SN5 d   1      30.142  71.850  -6.296  0.00  0.00     0.095 C 
ATOM      5  C5  SN5 d   1      29.560  71.166  -5.079  0.00  0.00     0.089 C 
ATOM      6  O5  SN5 d   1      29.644  72.089  -4.041  0.00  0.00    -0.349 OA
ATOM      7  H15 SN5 d   1      27.763  72.881  -4.203  0.00  0.00     0.132 H 
ATOM      8  H16 SN5 d   1      30.094  74.568  -5.133  0.00  0.00     0.084 H 
ATOM      9  H17 SN5 d   1      28.364  72.849  -6.933  0.00  0.00     0.090 H 
ATOM     10  H18 SN5 d   1      31.164  72.149  -6.019  0.00  0.00     0.091 H 
ATOM     11  H19 SN5 d   1      28.514  70.884  -5.270  0.00  0.00     0.090 H 
ENDROOT
BRANCH   4  12
ATOM     12  O4  SN5 d   1      30.286  71.048  -7.463  0.00  0.00    -0.348 OA
BRANCH  12  13
ATOM     13  C1  SN5 d   1      31.041  70.960  -8.334  0.00  0.00     0.154 C 
ATOM     14  C2  SN5 d   1      31.729  69.720  -8.899  0.00  0.00     0.085 C 
ATOM     15  C3  SN5 d   1      32.748  70.058  -9.958  0.00  0.00     0.086 C 
ATOM     16  H2  SN5 d   1      30.978  69.028  -9.307  0.00  0.00     0.084 H 
ATOM     17  C4  SN5 d   1      32.104  70.918 -11.017  0.00  0.00     0.089 C 
ATOM     18  H3  SN5 d   1      33.569  70.619  -9.488  0.00  0.00     0.090 H 
ATOM     19  C5  SN5 d   1      31.497  72.164 -10.414  0.00  0.00     0.089 C 
ATOM     20  H4  SN5 d   1      31.284  70.331 -11.457  0.00  0.00     0.091 H 
ATOM     21  O5  SN5 d   1      30.590  71.797  -9.387  0.00  0.00    -0.349 OA
ATOM     22  H5  SN5 d   1      32.291  72.786  -9.976  0.00  0.00     0.090 H 
ATOM     23  H1  SN5 d   1      31.907  71.490  -7.910  0.00  0.00     0.132 H 
BRANCH  14  24
ATOM     24  N2  SN5 d   1      32.463  69.110  -7.797  0.00  0.00    -0.373 N 
ATOM     25  H11 SN5 d   1      33.209  69.622  -7.370  0.00  0.00     0.160 HD
BRANCH  24  26
ATOM     26  C7  SN5 d   1      32.171  67.889  -7.340  0.00  0.00     0.070 C 
ATOM     27  S7  SN5 d   1      31.055  67.022  -7.937  0.00  0.00    -0.066 SA
BRANCH  26  28
ATOM     28  C8  SN5 d   1      32.979  67.335  -6.192  0.00  0.00    -0.028 C 
ATOM     29  H8  SN5 d   1      33.732  68.075  -5.883  0.00  0.00     0.036 H 
ATOM     30  H9  SN5 d   1      33.483  66.410  -6.511  0.00  0.00     0.036 H 
ATOM     31  H10 SN5 d   1      32.311  67.116  -5.346  0.00  0.00     0.036 H 
ENDBRANCH  26  28
ENDBRANCH  24  26
ENDBRANCH  14  24
BRANCH  15  32
ATOM     32  O3  SN5 d   1      33.278  68.907 -10.559  0.00  0.00    -0.391 OA
ATOM     33  H12 SN5 d   1      33.928  69.159 -11.205  0.00  0.00     0.210 HD
ENDBRANCH  15  32
BRANCH  17  34
ATOM     34  O4  SN5 d   1      32.997  71.247 -12.070  0.00  0.00    -0.390 OA
ATOM     35  H13 SN5 d   1      33.696  71.794 -11.732  0.00  0.00     0.210 HD
ENDBRANCH  17  34
BRANCH  19  36
ATOM     36  C6  SN5 d   1      30.821  72.941 -11.534  0.00  0.00     0.043 C 
ATOM     37  H6  SN5 d   1      29.963  72.350 -11.889  0.00  0.00     0.078 H 
ATOM     38  H7  SN5 d   1      31.547  73.061 -12.352  0.00  0.00     0.078 H 
BRANCH  36  39
ATOM     39  O6  SN5 d   1      30.342  74.246 -11.168  0.00  0.00    -0.398 OA
ATOM     40  H14 SN5 d   1      29.703  74.163 -10.470  0.00  0.00     0.209 HD
ENDBRANCH  36  39
ENDBRANCH  19  36
ENDBRANCH  12  13
ENDBRANCH   4  12
BRANCH   3  41
ATOM     41  O3  SN5 d   1      29.989  73.911  -7.545  0.00  0.00    -0.391 OA
ATOM     42  H26 SN5 d   1      30.043  73.413  -8.352  0.00  0.00     0.210 HD
ENDBRANCH   3  41
BRANCH   5  43
ATOM     43  C6  SN5 d   1      30.351  69.942  -4.673  0.00  0.00     0.043 C 
ATOM     44  H20 SN5 d   1      31.404  70.228  -4.534  0.00  0.00     0.078 H 
ATOM     45  H21 SN5 d   1      30.278  69.189  -5.471  0.00  0.00     0.078 H 
BRANCH  43  46
ATOM     46  O6  SN5 d   1      29.877  69.397  -3.499  0.00  0.00    -0.398 OA
ATOM     47  H27 SN5 d   1      30.395  68.633  -3.274  0.00  0.00     0.209 HD
ENDBRANCH  43  46
ENDBRANCH   5  43
BRANCH   2  48
ATOM     48  N2  SN5 d   1      28.089  74.919  -5.616  0.00  0.00    -0.373 N 
ATOM     49  H25 SN5 d   1      27.177  74.535  -5.758  0.00  0.00     0.160 HD
BRANCH  48  50
ATOM     50  C7  SN5 d   1      28.230  76.232  -5.706  0.00  0.00     0.070 C 
ATOM     51  S7  SN5 d   1      29.541  77.014  -5.510  0.00  0.00    -0.066 SA
BRANCH  50  52
ATOM     52  C8  SN5 d   1      27.009  77.028  -6.036  0.00  0.00    -0.028 C 
ATOM     53  H22 SN5 d   1      26.149  76.351  -6.149  0.00  0.00     0.036 H 
ATOM     54  H23 SN5 d   1      27.171  77.575  -6.977  0.00  0.00     0.036 H 
ATOM     55  H24 SN5 d   1      26.808  77.744  -5.226  0.00  0.00     0.036 H 
ENDBRANCH  50  52
ENDBRANCH  48  50
ENDBRANCH   2  48
BRANCH   1  56
ATOM     56  O4  NGT d   1      28.871  73.714  -3.096  0.00  0.00    -0.348 OA
BRANCH  56  57
ATOM     57  C4  NGT d   1      28.287  73.722  -1.788  0.00  0.00     0.095 C 
ATOM     58  C3  NGT d   1      28.985  72.770  -0.792  0.00  0.00     0.087 C 
ATOM     59  C2  NGT d   1      28.446  72.837   0.648  0.00  0.00     0.094 C 
ATOM     60  H30 SN5 d   1      30.018  73.139  -0.717  0.00  0.00     0.090 H 
ATOM     61  C1  NGT d   1      28.289  74.319   1.001  0.00  0.00     0.112 C 
ATOM     62  N2  NGT d   1      29.565  72.425   1.444  0.00  0.00    -0.276 NA
ATOM     63  H29 SN5 d   1      27.532  72.245   0.806  0.00  0.00     0.085 H 
ATOM     64  S1  NGT d   1      29.676  74.864   1.924  0.00  0.00    -0.081 SA
ATOM     65  O5  NGT d   1      27.756  75.161   0.026  0.00  0.00    -0.363 OA
ATOM     66  H28 SN5 d   1      27.483  74.314   1.749  0.00  0.00     0.104 H 
ATOM     67  C7  NGT d   1      30.208  73.312   2.051  0.00  0.00     0.064 C 
ATOM     68  C5  NGT d   1      28.399  75.117  -1.205  0.00  0.00     0.087 C 
ATOM     69  H32 SN5 d   1      29.467  75.351  -1.082  0.00  0.00     0.090 H 
ATOM     70  H31 SN5 d   1      27.229  73.436  -1.876  0.00  0.00     0.091 H 
BRANCH  58  71
ATOM     71  O3  NGT d   1      29.096  71.467  -1.319  0.00  0.00    -0.391 OA
ATOM     72  H38 SN5 d   1      29.606  71.493  -2.120  0.00  0.00     0.210 HD
ENDBRANCH  58  71
BRANCH  67  73
ATOM     73  C8  NGT d   1      31.422  72.923   2.843  0.00  0.00    -0.030 C 
ATOM     74  H35 SN5 d   1      31.571  71.835   2.775  0.00  0.00     0.036 H 
ATOM     75  H36 SN5 d   1      31.280  73.208   3.896  0.00  0.00     0.036 H 
ATOM     76  H37 SN5 d   1      32.305  73.440   2.439  0.00  0.00     0.036 H 
ENDBRANCH  67  73
BRANCH  68  77
ATOM     77  C6  NGT d   1      27.745  76.212  -2.032  0.00  0.00     0.043 C 
ATOM     78  H33 SN5 d   1      27.929  76.020  -3.099  0.00  0.00     0.078 H 
ATOM     79  H34 SN5 d   1      28.178  77.184  -1.755  0.00  0.00     0.078 H 
BRANCH  77  80
ATOM     80  O6  NGT d   1      26.375  76.236  -1.799  0.00  0.00    -0.398 OA
ATOM     81  H39 SN5 d   1      26.215  76.403  -0.878  0.00  0.00     0.209 HD
ENDBRANCH  77  80
ENDBRANCH  68  77
ENDBRANCH  56  57
ENDBRANCH   1  56
TORSDOF 21
