REMARK  8 active torsions:
REMARK  status: ('A' for Active; 'I' for Inactive)
REMARK    1  A    between atoms: CAH_4  and  CAA_24 
REMARK    2  A    between atoms: CAS_9  and  CAL_10 
REMARK    3  A    between atoms: CAL_10  and  OAN_11 
REMARK    4  A    between atoms: OAN_11  and  CAQ_12 
REMARK    5  A    between atoms: CAX_14  and  CAP_15 
REMARK    6  A    between atoms: CAX_14  and  OAF_18 
REMARK    7  A    between atoms: CAV_20  and  OAD_21 
REMARK    8  A    between atoms: CAW_22  and  OAE_23 
ROOT
ATOM      1  OAN CB6 d   1       2.199  14.969 -22.175  0.00  0.00    -0.348 OA
ENDROOT
BRANCH   1   2
ATOM      2  CAL CB6 d   1       2.638  15.577 -23.392  0.00  0.00     0.055 C 
ATOM      3  H5  CB6 d   1       2.851  14.770 -24.108  0.00  0.00     0.083 H 
ATOM      4  H6  CB6 d   1       1.811  16.195 -23.771  0.00  0.00     0.083 H 
BRANCH   2   5
ATOM      5  CAS CB6 d   1       3.756  16.377 -23.324  0.00  0.00     0.008 A 
ATOM      6  CAK CB6 d   1       4.427  16.649 -22.201  0.00  0.00    -0.057 A 
ATOM      7  CAT CB6 d   1       5.508  17.454 -22.356  0.00  0.00    -0.018 A 
ATOM      8  H1  CB6 d   1       4.128  16.253 -21.232  0.00  0.00     0.086 H 
ATOM      9  CAI CB6 d   1       6.396  17.898 -21.363  0.00  0.00    -0.066 A 
ATOM     10  CAU CB6 d   1       5.741  17.860 -23.697  0.00  0.00     0.015 A 
ATOM     11  CAH CB6 d   1       7.481  18.723 -21.668  0.00  0.00    -0.061 A 
ATOM     12  H2  CB6 d   1       6.236  17.593 -20.335  0.00  0.00     0.085 H 
ATOM     13  CAR CB6 d   1       7.694  19.121 -23.003  0.00  0.00    -0.076 A 
ATOM     14  CAJ CB6 d   1       6.826  18.694 -24.024  0.00  0.00    -0.065 A 
ATOM     15  H3  CB6 d   1       8.534  19.762 -23.245  0.00  0.00     0.084 H 
ATOM     16  H4  CB6 d   1       6.991  19.003 -25.050  0.00  0.00     0.085 H 
ATOM     17  SAO CB6 d   1       4.493  17.150 -24.608  0.00  0.00    -0.092 SA
BRANCH  11  18
ATOM     18  CAA CB6 d   1       8.401  19.155 -20.519  0.00  0.00    -0.051 C 
ATOM     19  H15 CB6 d   1       8.036  18.723 -19.575  0.00  0.00     0.033 H 
ATOM     20  H16 CB6 d   1       8.403  20.252 -20.444  0.00  0.00     0.033 H 
ATOM     21  H17 CB6 d   1       9.423  18.799 -20.714  0.00  0.00     0.033 H 
ENDBRANCH  11  18
ENDBRANCH   2   5
ENDBRANCH   1   2
BRANCH   1  22
ATOM     22  CAQ CB6 d   1       2.216  13.607 -22.068  0.00  0.00     0.077 C 
ATOM     23  CAG CB6 d   1       1.963  12.736 -23.144  0.00  0.00    -0.029 C 
ATOM     24  CAX CB6 d   1       1.939  11.332 -23.072  0.00  0.00     0.168 C 
ATOM     25  H7  CB6 d   1       1.769  13.188 -24.116  0.00  0.00     0.086 H 
ATOM     26  CAM CB6 d   1       2.476  10.805 -21.730  0.00  0.00     0.004 C 
ATOM     27  CAV CB6 d   1       1.891  11.628 -20.570  0.00  0.00     0.069 C 
ATOM     28  H9  CB6 d   1       3.573  10.888 -21.719  0.00  0.00     0.042 H 
ATOM     29  H10 CB6 d   1       2.187   9.751 -21.611  0.00  0.00     0.042 H 
ATOM     30  CAW CB6 d   1       2.415  13.065 -20.654  0.00  0.00     0.106 C 
ATOM     31  H11 CB6 d   1       0.793  11.631 -20.638  0.00  0.00     0.087 H 
ATOM     32  H13 CB6 d   1       3.489  13.060 -20.415  0.00  0.00     0.097 H 
BRANCH  24  33
ATOM     33  CAP CB6 d   1       2.745  10.803 -24.263  0.00  0.00     0.213 C 
ATOM     34  OAC CB6 d   1       2.278  11.100 -25.402  0.00  0.00    -0.645 OA
ATOM     35  OAB CB6 d   1       3.777  10.119 -24.037  0.00  0.00    -0.645 OA
ENDBRANCH  24  33
BRANCH  24  36
ATOM     36  OAF CB6 d   1       0.599  10.853 -23.214  0.00  0.00    -0.375 OA
ATOM     37  H8  CB6 d   1       0.602   9.903 -23.218  0.00  0.00     0.211 HD
ENDBRANCH  24  36
BRANCH  27  38
ATOM     38  OAD CB6 d   1       2.287  11.058 -19.339  0.00  0.00    -0.392 OA
ATOM     39  H12 CB6 d   1       1.966  10.165 -19.287  0.00  0.00     0.210 HD
ENDBRANCH  27  38
BRANCH  30  40
ATOM     40  OAE CB6 d   1       1.741  13.939 -19.739  0.00  0.00    -0.386 OA
ATOM     41  H14 CB6 d   1       2.094  14.817 -19.823  0.00  0.00     0.210 HD
ENDBRANCH  30  40
ENDBRANCH   1  22
TORSDOF 8
