REMARK  24 active torsions:
REMARK  status: ('A' for Active; 'I' for Inactive)
REMARK    1  A    between atoms: C6A_6  and  N6A_7 
REMARK    2  A    between atoms: C1B_11  and  N9A_10 
REMARK    3  A    between atoms: C2B_12  and  O2B_13 
REMARK    4  A    between atoms: C3B_14  and  O3B_15 
REMARK    5  A    between atoms: O3B_15  and  P3B_16 
REMARK    6  A    between atoms: C5B_22  and  C4B_20 
REMARK    7  A    between atoms: O5B_23  and  C5B_22 
REMARK    8  A    between atoms: P1A_24  and  O5B_23 
REMARK    9  A    between atoms: O3A_27  and  P1A_24 
REMARK   10  A    between atoms: P2A_28  and  O3A_27 
REMARK   11  A    between atoms: O6A_31  and  P2A_28 
REMARK   12  A    between atoms: CCP_33  and  O6A_31 
REMARK   13  A    between atoms: CBP_32  and  CAP_36 
REMARK   14  A    between atoms: CBP_32  and  CEP_35 
REMARK   15  A    between atoms: CBP_32  and  CDP_34 
REMARK   16  A    between atoms: CCP_33  and  CBP_32 
REMARK   17  A    between atoms: CAP_36  and  OAP_37 
REMARK   18  A    between atoms: CAP_36  and  C9P_38 
REMARK       I    between atoms: C9P_38  and  N8P_40 
REMARK   19  A    between atoms: N8P_40  and  C7P_41 
REMARK   20  A    between atoms: C7P_41  and  C6P_42 
REMARK   21  A    between atoms: C6P_42  and  C5P_43 
REMARK       I    between atoms: C5P_43  and  N4P_45 
REMARK   22  A    between atoms: N4P_45  and  C3P_46 
REMARK   23  A    between atoms: C3P_46  and  C2P_47 
REMARK   24  A    between atoms: C2P_47  and  S1P_48 
ROOT
ATOM      1  P2A NON d   1      29.966 -19.500  24.562  0.00  0.00     0.417 P 
ATOM      2  O4A NON d   1      30.678 -18.247  25.027  0.00  0.00    -0.624 OA
ATOM      3  O5A NON d   1      28.842 -20.038  25.615  0.00  0.00    -0.624 OA
ENDROOT
BRANCH   1   4
ATOM      4  O3A NON d   1      30.988 -20.771  24.296  0.00  0.00    -0.180 OA
BRANCH   4   5
ATOM      5  P1A NON d   1      32.606 -20.647  24.570  0.00  0.00     0.417 P 
ATOM      6  O1A NON d   1      32.950 -19.672  25.848  0.00  0.00    -0.624 OA
ATOM      7  O2A NON d   1      33.331 -20.197  23.326  0.00  0.00    -0.624 OA
BRANCH   5   8
ATOM      8  O5B NON d   1      33.030 -22.188  24.959  0.00  0.00    -0.287 OA
BRANCH   8   9
ATOM      9  C5B NON d   1      32.190 -22.863  25.874  0.00  0.00     0.058 C 
ATOM     10  H   NON d   1      32.064 -22.245  26.775  0.00  0.00     0.079 H 
ATOM     11  H   NON d   1      31.209 -23.035  25.407  0.00  0.00     0.079 H 
BRANCH   9  12
ATOM     12  C4B NON d   1      32.805 -24.206  26.265  0.00  0.00     0.090 C 
ATOM     13  C3B NON d   1      34.210 -24.168  26.869  0.00  0.00     0.107 C 
ATOM     14  C2B NON d   1      35.148 -24.502  25.776  0.00  0.00     0.106 C 
ATOM     15  H   NON d   1      34.389 -23.101  27.065  0.00  0.00     0.092 H 
ATOM     16  C1B NON d   1      34.277 -24.860  24.625  0.00  0.00     0.140 C 
ATOM     17  H   NON d   1      35.601 -25.456  26.081  0.00  0.00     0.093 H 
ATOM     18  O4B NON d   1      32.937 -25.146  25.124  0.00  0.00    -0.353 OA
ATOM     19  H   NON d   1      34.097 -23.806  24.367  0.00  0.00     0.122 H 
ATOM     20  H   NON d   1      32.127 -24.648  27.010  0.00  0.00     0.090 H 
BRANCH  13  21
ATOM     21  O3B NON d   1      34.426 -24.728  28.117  0.00  0.00    -0.272 OA
BRANCH  21  22
ATOM     22  P3B NON d   1      34.689 -23.727  29.384  0.00  0.00     0.422 P 
ATOM     23  O7A NON d   1      36.199 -24.006  29.993  0.00  0.00    -0.617 OA
ATOM     24  O8A NON d   1      33.539 -24.029  30.518  0.00  0.00    -0.617 OA
ATOM     25  O9A NON d   1      34.607 -22.300  28.906  0.00  0.00    -0.617 OA
ENDBRANCH  21  22
ENDBRANCH  13  21
BRANCH  14  26
ATOM     26  O2B NON d   1      36.287 -23.694  25.583  0.00  0.00    -0.388 OA
ATOM     27  H   NON d   1      36.021 -22.853  25.229  0.00  0.00     0.210 HD
ENDBRANCH  14  26
BRANCH  16  28
ATOM     28  N9A NON d   1      34.502 -25.200  23.241  0.00  0.00    -0.294 N 
ATOM     29  C4A NON d   1      35.306 -26.308  22.784  0.00  0.00     0.167 A 
ATOM     30  N3A NON d   1      36.011 -27.256  23.440  0.00  0.00    -0.222 NA
ATOM     31  C5A NON d   1      35.269 -26.284  21.462  0.00  0.00     0.149 A 
ATOM     32  C2A NON d   1      36.701 -28.206  22.714  0.00  0.00     0.091 A 
ATOM     33  N1A NON d   1      36.662 -28.184  21.363  0.00  0.00    -0.222 NA
ATOM     34  H   NON d   1      37.274 -28.970  23.227  0.00  0.00     0.146 H 
ATOM     35  C6A NON d   1      35.958 -27.244  20.737  0.00  0.00     0.155 A 
ATOM     36  N7A NON d   1      34.480 -25.216  21.058  0.00  0.00    -0.236 NA
ATOM     37  C8A NON d   1      34.008 -24.555  22.213  0.00  0.00     0.071 A 
ATOM     38  H   NON d   1      33.360 -23.680  22.243  0.00  0.00     0.144 H 
BRANCH  35  39
ATOM     39  N6A NON d   1      35.895 -27.199  19.295  0.00  0.00    -0.382 N 
ATOM     40  H   NON d   1      35.346 -26.465  18.826  0.00  0.00     0.157 HD
ATOM     41  H   NON d   1      36.400 -27.901  18.735  0.00  0.00     0.157 HD
ENDBRANCH  35  39
ENDBRANCH  16  28
ENDBRANCH   9  12
ENDBRANCH   8   9
ENDBRANCH   5   8
ENDBRANCH   4   5
ENDBRANCH   1   4
BRANCH   1  42
ATOM     42  O6A NON d   1      29.203 -19.256  23.118  0.00  0.00    -0.289 OA
BRANCH  42  43
ATOM     43  CCP NON d   1      28.397 -20.330  22.726  0.00  0.00     0.041 C 
ATOM     44  H   NON d   1      27.953 -20.775  23.629  0.00  0.00     0.076 H 
ATOM     45  H   NON d   1      29.034 -21.074  22.226  0.00  0.00     0.076 H 
BRANCH  43  46
ATOM     46  CBP NON d   1      27.265 -19.953  21.773  0.00  0.00     0.009 C 
BRANCH  46  47
ATOM     47  CAP NON d   1      27.758 -18.757  20.961  0.00  0.00     0.120 C 
ATOM     48  H   NON d   1      27.815 -17.908  21.658  0.00  0.00     0.099 H 
BRANCH  47  49
ATOM     49  OAP NON d   1      29.050 -18.899  20.417  0.00  0.00    -0.385 OA
ATOM     50  H   NON d   1      29.661 -19.122  21.109  0.00  0.00     0.210 HD
ENDBRANCH  47  49
BRANCH  47  51
ATOM     51  C9P NON d   1      26.717 -18.397  19.902  0.00  0.00     0.247 C 
ATOM     52  O9P NON d   1      25.652 -17.954  20.215  0.00  0.00    -0.271 OA
ATOM     53  N8P NON d   1      27.035 -18.796  18.532  0.00  0.00    -0.358 N 
ATOM     54  H   NON d   1      27.929 -19.189  18.314  0.00  0.00     0.162 HD
BRANCH  53  55
ATOM     55  C7P NON d   1      26.039 -18.616  17.492  0.00  0.00     0.003 C 
ATOM     56  H   NON d   1      25.059 -18.902  17.901  0.00  0.00     0.064 H 
ATOM     57  H   NON d   1      26.294 -19.280  16.653  0.00  0.00     0.064 H 
BRANCH  55  58
ATOM     58  C6P NON d   1      25.933 -17.185  16.954  0.00  0.00     0.024 C 
ATOM     59  H   NON d   1      26.942 -16.859  16.663  0.00  0.00     0.049 H 
ATOM     60  H   NON d   1      25.562 -16.546  17.769  0.00  0.00     0.049 H 
BRANCH  58  61
ATOM     61  C5P NON d   1      25.015 -16.990  15.753  0.00  0.00     0.219 C 
ATOM     62  O5P NON d   1      23.903 -17.382  15.805  0.00  0.00    -0.274 OA
ATOM     63  N4P NON d   1      25.449 -16.074  14.716  0.00  0.00    -0.360 N 
ATOM     64  H   NON d   1      26.299 -15.564  14.845  0.00  0.00     0.162 HD
BRANCH  63  65
ATOM     65  C3P NON d   1      24.688 -15.874  13.497  0.00  0.00     0.003 C 
ATOM     66  H   NON d   1      25.400 -15.560  12.720  0.00  0.00     0.065 H 
ATOM     67  H   NON d   1      23.975 -15.060  13.691  0.00  0.00     0.065 H 
BRANCH  65  68
ATOM     68  C2P NON d   1      23.886 -17.048  12.925  0.00  0.00    -0.011 C 
ATOM     69  H   NON d   1      23.298 -17.500  13.737  0.00  0.00     0.051 H 
ATOM     70  H   NON d   1      24.590 -17.792  12.525  0.00  0.00     0.051 H 
BRANCH  68  71
ATOM     71  S1P NON d   1      22.749 -16.549  11.593  0.00  0.00    -0.181 SA
ATOM     72  H   NON d   1      22.092 -15.873  11.949  0.00  0.00     0.101 HD
ENDBRANCH  68  71
ENDBRANCH  65  68
ENDBRANCH  63  65
ENDBRANCH  58  61
ENDBRANCH  55  58
ENDBRANCH  53  55
ENDBRANCH  47  51
ENDBRANCH  46  47
BRANCH  46  73
ATOM     73  CEP NON d   1      26.932 -21.142  20.873  0.00  0.00    -0.065 C 
ATOM     74  H   NON d   1      26.116 -20.866  20.188  0.00  0.00     0.028 H 
ATOM     75  H   NON d   1      26.618 -21.995  21.493  0.00  0.00     0.028 H 
ATOM     76  H   NON d   1      27.822 -21.421  20.290  0.00  0.00     0.028 H 
ENDBRANCH  46  73
BRANCH  46  77
ATOM     77  CDP NON d   1      26.068 -19.525  22.614  0.00  0.00    -0.065 C 
ATOM     78  H   NON d   1      25.235 -19.247  21.951  0.00  0.00     0.028 H 
ATOM     79  H   NON d   1      26.346 -18.661  23.235  0.00  0.00     0.028 H 
ATOM     80  H   NON d   1      25.759 -20.358  23.262  0.00  0.00     0.028 H 
ENDBRANCH  46  77
ENDBRANCH  43  46
ENDBRANCH  42  43
ENDBRANCH   1  42
TORSDOF 24
