REMARK  23 active torsions:
REMARK  status: ('A' for Active; 'I' for Inactive)
REMARK    1  A    between atoms: N9A_10  and  C1B_11 
REMARK    2  A    between atoms: C2B_12  and  O2B_13 
REMARK    3  A    between atoms: C3B_14  and  O3B_15 
REMARK    4  A    between atoms: O3B_15  and  P3B_16 
REMARK    5  A    between atoms: C4B_20  and  C5B_22 
REMARK    6  A    between atoms: C5B_22  and  O5B_23 
REMARK    7  A    between atoms: O5B_23  and  P1A_24 
REMARK    8  A    between atoms: P1A_24  and  O3A_27 
REMARK    9  A    between atoms: O3A_27  and  P2A_28 
REMARK   10  A    between atoms: P2A_28  and  O6A_31 
REMARK   11  A    between atoms: O6A_31  and  CCP_33 
REMARK   12  A    between atoms: CCP_33  and  CBP_32 
REMARK   13  A    between atoms: CBP_32  and  CDP_34 
REMARK   14  A    between atoms: CBP_32  and  CEP_35 
REMARK   15  A    between atoms: CBP_32  and  CAP_36 
REMARK   16  A    between atoms: CAP_36  and  OAP_37 
REMARK   17  A    between atoms: CAP_36  and  C9P_38 
REMARK       I    between atoms: C9P_38  and  N8P_40 
REMARK   18  A    between atoms: N8P_40  and  C7P_41 
REMARK   19  A    between atoms: C7P_41  and  C6P_42 
REMARK   20  A    between atoms: C6P_42  and  C5P_43 
REMARK       I    between atoms: C5P_43  and  N4P_45 
REMARK   21  A    between atoms: N4P_45  and  C3P_46 
REMARK   22  A    between atoms: C3P_46  and  C2P_47 
REMARK   23  A    between atoms: C2P_47  and  S1P_48 
ROOT
ATOM      1  P2A NON d   1      28.783 -20.189  25.092  0.00  0.00     0.417 P 
ATOM      2  O4A NON d   1      27.529 -20.692  25.766  0.00  0.00    -0.624 OA
ATOM      3  O5A NON d   1      29.507 -18.923  25.959  0.00  0.00    -0.624 OA
ENDROOT
BRANCH   1   4
ATOM      4  O3A NON d   1      29.842 -21.379  24.886  0.00  0.00    -0.180 OA
BRANCH   4   5
ATOM      5  P1A NON d   1      31.433 -21.150  24.977  0.00  0.00     0.417 P 
ATOM      6  O1A NON d   1      31.854 -20.515  26.282  0.00  0.00    -0.624 OA
ATOM      7  O2A NON d   1      32.011 -20.316  23.626  0.00  0.00    -0.624 OA
BRANCH   5   8
ATOM      8  O5B NON d   1      31.920 -22.681  24.960  0.00  0.00    -0.287 OA
BRANCH   8   9
ATOM      9  C5B NON d   1      31.622 -23.468  26.109  0.00  0.00     0.058 C 
ATOM     10  H   NON d   1      31.564 -22.835  26.994  0.00  0.00     0.079 H 
ATOM     11  H   NON d   1      30.660 -23.965  25.986  0.00  0.00     0.079 H 
BRANCH   9  12
ATOM     12  C4B NON d   1      32.721 -24.493  26.272  0.00  0.00     0.090 C 
ATOM     13  C3B NON d   1      34.054 -23.783  26.413  0.00  0.00     0.107 C 
ATOM     14  C2B NON d   1      34.749 -24.044  25.101  0.00  0.00     0.106 C 
ATOM     15  H   NON d   1      33.919 -22.730  26.660  0.00  0.00     0.092 H 
ATOM     16  C1B NON d   1      34.146 -25.372  24.705  0.00  0.00     0.140 C 
ATOM     17  H   NON d   1      34.622 -23.266  24.349  0.00  0.00     0.093 H 
ATOM     18  O4B NON d   1      32.777 -25.259  25.071  0.00  0.00    -0.353 OA
ATOM     19  H   NON d   1      34.635 -26.211  25.200  0.00  0.00     0.122 H 
ATOM     20  H   NON d   1      32.526 -25.114  27.146  0.00  0.00     0.090 H 
BRANCH  13  21
ATOM     21  O3B NON d   1      34.843 -24.392  27.426  0.00  0.00    -0.272 OA
BRANCH  21  22
ATOM     22  P3B NON d   1      34.787 -23.801  28.919  0.00  0.00     0.422 P 
ATOM     23  O7A NON d   1      35.889 -24.650  29.896  0.00  0.00    -0.617 OA
ATOM     24  O8A NON d   1      33.206 -23.974  29.510  0.00  0.00    -0.617 OA
ATOM     25  O9A NON d   1      35.193 -22.346  28.881  0.00  0.00    -0.617 OA
ENDBRANCH  21  22
ENDBRANCH  13  21
BRANCH  14  26
ATOM     26  O2B NON d   1      36.155 -24.147  25.306  0.00  0.00    -0.388 OA
ATOM     27  H   NON d   1      36.505 -23.288  25.555  0.00  0.00     0.210 HD
ENDBRANCH  14  26
BRANCH  16  28
ATOM     28  N9A NON d   1      34.311 -25.642  23.258  0.00  0.00    -0.294 N 
ATOM     29  C4A NON d   1      35.031 -26.660  22.789  0.00  0.00     0.167 A 
ATOM     30  N3A NON d   1      35.749 -27.666  23.305  0.00  0.00    -0.222 NA
ATOM     31  C5A NON d   1      34.922 -26.546  21.349  0.00  0.00     0.149 A 
ATOM     32  C2A NON d   1      36.358 -28.545  22.485  0.00  0.00     0.091 A 
ATOM     33  N1A NON d   1      36.293 -28.482  21.137  0.00  0.00    -0.222 NA
ATOM     34  H   NON d   1      36.936 -29.352  22.935  0.00  0.00     0.146 H 
ATOM     35  C6A NON d   1      35.606 -27.531  20.494  0.00  0.00     0.155 A 
ATOM     36  N6A NON d   1      35.539 -27.467  19.142  0.00  0.00    -0.382 N 
ATOM     37  H   NON d   1      35.005 -26.723  18.692  0.00  0.00     0.157 HD
ATOM     38  H   NON d   1      36.023 -28.163  18.574  0.00  0.00     0.157 HD
ATOM     39  N7A NON d   1      34.161 -25.488  21.044  0.00  0.00    -0.236 NA
ATOM     40  C8A NON d   1      33.796 -24.938  22.221  0.00  0.00     0.071 A 
ATOM     41  H   NON d   1      33.173 -24.050  22.323  0.00  0.00     0.144 H 
ENDBRANCH  16  28
ENDBRANCH   9  12
ENDBRANCH   8   9
ENDBRANCH   5   8
ENDBRANCH   4   5
ENDBRANCH   1   4
BRANCH   1  42
ATOM     42  O6A NON d   1      28.454 -19.766  23.572  0.00  0.00    -0.289 OA
BRANCH  42  43
ATOM     43  CCP NON d   1      28.106 -20.759  22.618  0.00  0.00     0.041 C 
ATOM     44  H   NON d   1      27.680 -21.616  23.140  0.00  0.00     0.076 H 
ATOM     45  H   NON d   1      29.001 -21.050  22.069  0.00  0.00     0.076 H 
BRANCH  43  46
ATOM     46  CBP NON d   1      27.078 -20.221  21.635  0.00  0.00     0.009 C 
BRANCH  46  47
ATOM     47  CDP NON d   1      26.798 -21.309  20.605  0.00  0.00    -0.065 C 
ATOM     48  H   NON d   1      27.722 -21.561  20.084  0.00  0.00     0.028 H 
ATOM     49  H   NON d   1      26.410 -22.194  21.110  0.00  0.00     0.028 H 
ATOM     50  H   NON d   1      26.062 -20.947  19.887  0.00  0.00     0.028 H 
ENDBRANCH  46  47
BRANCH  46  51
ATOM     51  CEP NON d   1      25.795 -19.843  22.372  0.00  0.00    -0.065 C 
ATOM     52  H   NON d   1      25.389 -20.725  22.868  0.00  0.00     0.028 H 
ATOM     53  H   NON d   1      26.016 -19.076  23.114  0.00  0.00     0.028 H 
ATOM     54  H   NON d   1      25.067 -19.459  21.658  0.00  0.00     0.028 H 
ENDBRANCH  46  51
BRANCH  46  55
ATOM     55  CAP NON d   1      27.621 -18.980  20.927  0.00  0.00     0.120 C 
ATOM     56  H   NON d   1      27.721 -18.155  21.632  0.00  0.00     0.099 H 
BRANCH  55  57
ATOM     57  OAP NON d   1      28.941 -19.203  20.392  0.00  0.00    -0.385 OA
ATOM     58  H   NON d   1      29.541 -19.429  21.107  0.00  0.00     0.210 HD
ENDBRANCH  55  57
BRANCH  55  59
ATOM     59  C9P NON d   1      26.643 -18.640  19.837  0.00  0.00     0.247 C 
ATOM     60  O9P NON d   1      25.529 -18.221  20.151  0.00  0.00    -0.271 OA
ATOM     61  N8P NON d   1      27.012 -18.797  18.555  0.00  0.00    -0.358 N 
ATOM     62  H   NON d   1      27.946 -19.125  18.307  0.00  0.00     0.162 HD
BRANCH  61  63
ATOM     63  C7P NON d   1      26.023 -18.480  17.534  0.00  0.00     0.003 C 
ATOM     64  H   NON d   1      25.342 -17.765  17.994  0.00  0.00     0.064 H 
ATOM     65  H   NON d   1      25.604 -19.436  17.221  0.00  0.00     0.064 H 
BRANCH  63  66
ATOM     66  C6P NON d   1      26.527 -17.811  16.259  0.00  0.00     0.024 C 
ATOM     67  H   NON d   1      27.145 -18.505  15.689  0.00  0.00     0.049 H 
ATOM     68  H   NON d   1      27.137 -16.942  16.506  0.00  0.00     0.049 H 
BRANCH  66  69
ATOM     69  C5P NON d   1      25.318 -17.389  15.440  0.00  0.00     0.219 C 
ATOM     70  O5P NON d   1      24.190 -17.699  15.779  0.00  0.00    -0.274 OA
ATOM     71  N4P NON d   1      25.554 -16.680  14.341  0.00  0.00    -0.360 N 
ATOM     72  H   NON d   1      26.521 -16.460  14.101  0.00  0.00     0.162 HD
BRANCH  71  73
ATOM     73  C3P NON d   1      24.495 -16.204  13.465  0.00  0.00     0.003 C 
ATOM     74  H   NON d   1      24.965 -15.886  12.534  0.00  0.00     0.065 H 
ATOM     75  H   NON d   1      23.972 -15.408  13.994  0.00  0.00     0.065 H 
BRANCH  73  76
ATOM     76  C2P NON d   1      23.459 -17.264  13.108  0.00  0.00    -0.011 C 
ATOM     77  H   NON d   1      22.759 -17.362  13.938  0.00  0.00     0.051 H 
ATOM     78  H   NON d   1      23.974 -18.205  12.917  0.00  0.00     0.051 H 
BRANCH  76  79
ATOM     79  S1P NON d   1      22.535 -16.796  11.623  0.00  0.00    -0.181 SA
ATOM     80  H   NON d   1      21.909 -15.643  11.838  0.00  0.00     0.101 HD
ENDBRANCH  76  79
ENDBRANCH  73  76
ENDBRANCH  71  73
ENDBRANCH  66  69
ENDBRANCH  63  66
ENDBRANCH  61  63
ENDBRANCH  55  59
ENDBRANCH  46  55
ENDBRANCH  43  46
ENDBRANCH  42  43
ENDBRANCH   1  42
TORSDOF 23
