REMARK  24 active torsions:
REMARK  status: ('A' for Active; 'I' for Inactive)
REMARK    1  A    between atoms: C6A_6  and  N6A_7 
REMARK    2  A    between atoms: N9A_10  and  C1B_11 
REMARK    3  A    between atoms: C2B_12  and  O2B_13 
REMARK    4  A    between atoms: C3B_14  and  O3B_15 
REMARK    5  A    between atoms: O3B_15  and  P3B_16 
REMARK    6  A    between atoms: C4B_20  and  C5B_22 
REMARK    7  A    between atoms: C5B_22  and  O5B_23 
REMARK    8  A    between atoms: O5B_23  and  P1A_24 
REMARK    9  A    between atoms: P1A_24  and  O3A_27 
REMARK   10  A    between atoms: O3A_27  and  P2A_28 
REMARK   11  A    between atoms: P2A_28  and  O6A_31 
REMARK   12  A    between atoms: O6A_31  and  CCP_33 
REMARK   13  A    between atoms: CCP_33  and  CBP_32 
REMARK   14  A    between atoms: CBP_32  and  CDP_34 
REMARK   15  A    between atoms: CBP_32  and  CEP_35 
REMARK   16  A    between atoms: CBP_32  and  CAP_36 
REMARK   17  A    between atoms: CAP_36  and  OAP_37 
REMARK   18  A    between atoms: CAP_36  and  C9P_38 
REMARK       I    between atoms: C9P_38  and  N8P_40 
REMARK   19  A    between atoms: N8P_40  and  C7P_41 
REMARK   20  A    between atoms: C7P_41  and  C6P_42 
REMARK   21  A    between atoms: C6P_42  and  C5P_43 
REMARK       I    between atoms: C5P_43  and  N4P_45 
REMARK   22  A    between atoms: N4P_45  and  C3P_46 
REMARK   23  A    between atoms: C3P_46  and  C2P_47 
REMARK   24  A    between atoms: C2P_47  and  S1P_48 
ROOT
ATOM      1  P2A NON d   1      13.145  19.338  25.050  0.00  0.00     0.417 P 
ATOM      2  O4A NON d   1      14.371  19.078  26.123  0.00  0.00    -0.624 OA
ATOM      3  O5A NON d   1      12.034  18.328  25.227  0.00  0.00    -0.624 OA
ENDROOT
BRANCH   1   4
ATOM      4  O3A NON d   1      12.499  20.841  25.319  0.00  0.00    -0.180 OA
BRANCH   4   5
ATOM      5  P1A NON d   1      10.891  20.957  24.894  0.00  0.00     0.417 P 
ATOM      6  O1A NON d   1       9.996  20.232  26.080  0.00  0.00    -0.624 OA
ATOM      7  O2A NON d   1      10.681  20.267  23.572  0.00  0.00    -0.624 OA
BRANCH   5   8
ATOM      8  O5B NON d   1      10.548  22.585  24.856  0.00  0.00    -0.287 OA
BRANCH   8   9
ATOM      9  C5B NON d   1      10.588  23.234  26.116  0.00  0.00     0.058 C 
ATOM     10  H   NON d   1      10.378  22.485  26.879  0.00  0.00     0.079 H 
ATOM     11  H   NON d   1      11.572  23.691  26.220  0.00  0.00     0.079 H 
BRANCH   9  12
ATOM     12  C4B NON d   1       9.539  24.351  26.260  0.00  0.00     0.090 C 
ATOM     13  C3B NON d   1       8.090  23.941  26.589  0.00  0.00     0.107 C 
ATOM     14  C2B NON d   1       7.404  23.924  25.275  0.00  0.00     0.106 C 
ATOM     15  H   NON d   1       8.124  22.970  27.082  0.00  0.00     0.092 H 
ATOM     16  C1B NON d   1       8.069  25.037  24.543  0.00  0.00     0.140 C 
ATOM     17  H   NON d   1       7.527  22.971  24.761  0.00  0.00     0.093 H 
ATOM     18  O4B NON d   1       9.447  25.146  25.014  0.00  0.00    -0.353 OA
ATOM     19  H   NON d   1       7.411  25.861  24.819  0.00  0.00     0.122 H 
ATOM     20  H   NON d   1       9.922  24.895  27.123  0.00  0.00     0.090 H 
BRANCH  13  21
ATOM     21  O3B NON d   1       7.391  24.427  27.704  0.00  0.00    -0.272 OA
BRANCH  21  22
ATOM     22  P3B NON d   1       7.537  23.670  29.151  0.00  0.00     0.422 P 
ATOM     23  O7A NON d   1       6.828  24.599  30.322  0.00  0.00    -0.617 OA
ATOM     24  O8A NON d   1       9.140  23.495  29.493  0.00  0.00    -0.617 OA
ATOM     25  O9A NON d   1       6.863  22.319  29.077  0.00  0.00    -0.617 OA
ENDBRANCH  21  22
ENDBRANCH  13  21
BRANCH  14  26
ATOM     26  O2B NON d   1       6.010  23.761  25.207  0.00  0.00    -0.388 OA
ATOM     27  H   NON d   1       5.580  24.549  25.548  0.00  0.00     0.210 HD
ENDBRANCH  14  26
BRANCH  16  28
ATOM     28  N9A NON d   1       7.858  25.374  23.150  0.00  0.00    -0.294 N 
ATOM     29  C4A NON d   1       7.072  26.477  22.650  0.00  0.00     0.167 A 
ATOM     30  N3A NON d   1       6.400  27.451  23.258  0.00  0.00    -0.222 NA
ATOM     31  C5A NON d   1       7.108  26.398  21.308  0.00  0.00     0.149 A 
ATOM     32  C2A NON d   1       5.725  28.408  22.504  0.00  0.00     0.091 A 
ATOM     33  N1A NON d   1       5.762  28.327  21.149  0.00  0.00    -0.222 NA
ATOM     34  H   NON d   1       5.175  29.211  22.995  0.00  0.00     0.146 H 
ATOM     35  C6A NON d   1       6.429  27.356  20.558  0.00  0.00     0.155 A 
ATOM     36  N7A NON d   1       7.878  25.290  20.937  0.00  0.00    -0.236 NA
ATOM     37  C8A NON d   1       8.340  24.667  22.124  0.00  0.00     0.071 A 
ATOM     38  H   NON d   1       8.969  23.779  22.187  0.00  0.00     0.144 H 
BRANCH  35  39
ATOM     39  N6A NON d   1       6.432  27.235  19.116  0.00  0.00    -0.382 N 
ATOM     40  H   NON d   1       6.924  26.461  18.670  0.00  0.00     0.157 HD
ATOM     41  H   NON d   1       5.942  27.924  18.545  0.00  0.00     0.157 HD
ENDBRANCH  35  39
ENDBRANCH  16  28
ENDBRANCH   9  12
ENDBRANCH   8   9
ENDBRANCH   5   8
ENDBRANCH   4   5
ENDBRANCH   1   4
BRANCH   1  42
ATOM     42  O6A NON d   1      13.647  19.297  23.457  0.00  0.00    -0.289 OA
BRANCH  42  43
ATOM     43  CCP NON d   1      14.005  20.518  22.813  0.00  0.00     0.041 C 
ATOM     44  H   NON d   1      14.384  21.210  23.565  0.00  0.00     0.076 H 
ATOM     45  H   NON d   1      13.123  20.921  22.316  0.00  0.00     0.076 H 
BRANCH  43  46
ATOM     46  CBP NON d   1      15.102  20.290  21.759  0.00  0.00     0.009 C 
BRANCH  46  47
ATOM     47  CDP NON d   1      15.240  21.469  20.791  0.00  0.00    -0.065 C 
ATOM     48  H   NON d   1      14.296  21.619  20.267  0.00  0.00     0.028 H 
ATOM     49  H   NON d   1      15.494  22.369  21.351  0.00  0.00     0.028 H 
ATOM     50  H   NON d   1      16.028  21.254  20.069  0.00  0.00     0.028 H 
ENDBRANCH  46  47
BRANCH  46  51
ATOM     51  CEP NON d   1      16.411  20.046  22.513  0.00  0.00    -0.065 C 
ATOM     52  H   NON d   1      16.643  20.917  23.127  0.00  0.00     0.028 H 
ATOM     53  H   NON d   1      16.303  19.169  23.151  0.00  0.00     0.028 H 
ATOM     54  H   NON d   1      17.216  19.880  21.797  0.00  0.00     0.028 H 
ENDBRANCH  46  51
BRANCH  46  55
ATOM     55  CAP NON d   1      14.670  18.993  21.037  0.00  0.00     0.120 C 
ATOM     56  H   NON d   1      14.748  18.226  21.808  0.00  0.00     0.099 H 
BRANCH  55  57
ATOM     57  OAP NON d   1      13.342  18.974  20.609  0.00  0.00    -0.385 OA
ATOM     58  H   NON d   1      12.761  19.075  21.367  0.00  0.00     0.210 HD
ENDBRANCH  55  57
BRANCH  55  59
ATOM     59  C9P NON d   1      15.614  18.634  19.872  0.00  0.00     0.247 C 
ATOM     60  O9P NON d   1      16.698  18.187  20.093  0.00  0.00    -0.271 OA
ATOM     61  N8P NON d   1      15.173  19.070  18.533  0.00  0.00    -0.358 N 
ATOM     62  H   NON d   1      14.261  19.508  18.406  0.00  0.00     0.162 HD
BRANCH  61  63
ATOM     63  C7P NON d   1      16.067  18.864  17.384  0.00  0.00     0.003 C 
ATOM     64  H   NON d   1      17.030  19.312  17.627  0.00  0.00     0.064 H 
ATOM     65  H   NON d   1      15.597  19.317  16.511  0.00  0.00     0.064 H 
BRANCH  63  66
ATOM     66  C6P NON d   1      16.306  17.373  17.070  0.00  0.00     0.024 C 
ATOM     67  H   NON d   1      15.341  16.973  16.758  0.00  0.00     0.049 H 
ATOM     68  H   NON d   1      16.746  16.943  17.970  0.00  0.00     0.049 H 
BRANCH  66  69
ATOM     69  C5P NON d   1      17.284  17.057  15.928  0.00  0.00     0.219 C 
ATOM     70  O5P NON d   1      18.303  17.659  15.828  0.00  0.00    -0.274 OA
ATOM     71  N4P NON d   1      16.859  16.127  14.879  0.00  0.00    -0.360 N 
ATOM     72  H   NON d   1      15.995  15.595  14.985  0.00  0.00     0.162 HD
BRANCH  71  73
ATOM     73  C3P NON d   1      17.673  15.967  13.689  0.00  0.00     0.003 C 
ATOM     74  H   NON d   1      17.104  15.341  13.002  0.00  0.00     0.065 H 
ATOM     75  H   NON d   1      18.626  15.551  14.016  0.00  0.00     0.065 H 
BRANCH  73  76
ATOM     76  C2P NON d   1      17.992  17.257  12.942  0.00  0.00    -0.011 C 
ATOM     77  H   NON d   1      17.975  18.064  13.674  0.00  0.00     0.051 H 
ATOM     78  H   NON d   1      17.254  17.358  12.146  0.00  0.00     0.051 H 
BRANCH  76  79
ATOM     79  S1P NON d   1      19.631  17.280  12.157  0.00  0.00    -0.181 SA
ATOM     80  H   NON d   1      19.807  18.443  11.536  0.00  0.00     0.101 HD
ENDBRANCH  76  79
ENDBRANCH  73  76
ENDBRANCH  71  73
ENDBRANCH  66  69
ENDBRANCH  63  66
ENDBRANCH  61  63
ENDBRANCH  55  59
ENDBRANCH  46  55
ENDBRANCH  43  46
ENDBRANCH  42  43
ENDBRANCH   1  42
TORSDOF 24
