REMARK  0 active torsions:
REMARK  status: ('A' for Active; 'I' for Inactive)
ROOT
ATOM      1  OAA ZYR d   1      13.001   0.190   6.113  0.00  0.00    -0.267 OA
ATOM      2  CAL ZYR d   1      12.062  -0.306   6.729  0.00  0.00     0.260 A 
ATOM      3  CAN ZYR d   1      12.251  -1.427   7.523  0.00  0.00     0.075 A 
ATOM      4  CAK ZYR d   1      13.430  -2.130   7.820  0.00  0.00    -0.026 C 
ATOM      5  CAF ZYR d   1      14.802  -1.961   7.226  0.00  0.00    -0.039 C 
ATOM      6  CAD ZYR d   1      16.081  -2.524   7.916  0.00  0.00    -0.061 C 
ATOM      7  CAC ZYR d   1      15.759  -4.017   8.006  0.00  0.00    -0.061 C 
ATOM      8  CAE ZYR d   1      14.506  -4.016   8.927  0.00  0.00    -0.034 C 
ATOM      9  CAJ ZYR d   1      13.259  -3.260   8.566  0.00  0.00    -0.008 C 
ATOM     10  SAI ZYR d   1      11.673  -3.276   9.063  0.00  0.00    -0.073 SA
ATOM     11  CAM ZYR d   1      11.142  -1.942   8.199  0.00  0.00     0.115 A 
ATOM     12  NAG ZYR d   1       9.933  -1.378   8.091  0.00  0.00    -0.236 NA
ATOM     13  CAB ZYR d   1       9.738  -0.314   7.343  0.00  0.00     0.068 A 
ATOM     14  NAH ZYR d   1      10.795   0.257   6.637  0.00  0.00    -0.317 N 
ATOM     15  H   ZYR d   1      14.957  -0.882   7.245  0.00  0.00     0.040 H 
ATOM     16  H   ZYR d   1      14.747  -2.524   6.294  0.00  0.00     0.040 H 
ATOM     17  H   ZYR d   1      16.288  -2.067   8.884  0.00  0.00     0.033 H 
ATOM     18  H   ZYR d   1      16.998  -2.311   7.367  0.00  0.00     0.033 H 
ATOM     19  H   ZYR d   1      16.583  -4.616   8.395  0.00  0.00     0.033 H 
ATOM     20  H   ZYR d   1      15.584  -4.482   7.036  0.00  0.00     0.033 H 
ATOM     21  H   ZYR d   1      14.853  -3.522   9.835  0.00  0.00     0.040 H 
ATOM     22  H   ZYR d   1      14.185  -5.058   8.927  0.00  0.00     0.040 H 
ATOM     23  H   ZYR d   1       8.742   0.124   7.275  0.00  0.00     0.143 H 
ATOM     24  H   ZYR d   1      10.640   1.082   6.057  0.00  0.00     0.169 HD
ENDROOT
TORSDOF 0
