REMARK  1 active torsions:
REMARK  status: ('A' for Active; 'I' for Inactive)
REMARK    1  A    between atoms: C6_6  and  N6_15 
ROOT
ATOM      1  CAO ZYU d   1      14.536  -3.319   9.033  0.00  0.00     0.016 C 
ATOM      2  CAN ZYU d   1      14.377  -4.829   8.991  0.00  0.00     0.034 C 
ATOM      3  OAL ZYU d   1      13.339  -5.346   9.841  0.00  0.00    -0.388 OA
ATOM      4  CAK ZYU d   1      12.142  -4.729   9.333  0.00  0.00     0.034 C 
ATOM      5  CAP ZYU d   1      12.156  -3.209   9.402  0.00  0.00     0.016 C 
ATOM      6  N6  ZYU d   1      13.283  -2.698   8.627  0.00  0.00    -0.360 N 
ATOM      7  H   ZYU d   1      15.333  -3.015   8.355  0.00  0.00     0.067 H 
ATOM      8  H   ZYU d   1      14.791  -3.005  10.045  0.00  0.00     0.067 H 
ATOM      9  H   ZYU d   1      15.316  -5.257   9.340  0.00  0.00     0.076 H 
ATOM     10  H   ZYU d   1      14.110  -5.092   7.967  0.00  0.00     0.076 H 
ATOM     11  H   ZYU d   1      11.312  -5.074   9.950  0.00  0.00     0.076 H 
ATOM     12  H   ZYU d   1      12.055  -5.005   8.282  0.00  0.00     0.076 H 
ATOM     13  H   ZYU d   1      12.256  -2.893  10.440  0.00  0.00     0.067 H 
ATOM     14  H   ZYU d   1      11.225  -2.818   8.992  0.00  0.00     0.067 H 
ENDROOT
BRANCH   6  15
ATOM     15  C6  ZYU d   1      13.172  -1.605   7.792  0.00  0.00     0.158 A 
ATOM     16  N1  ZYU d   1      14.245  -1.008   7.269  0.00  0.00    -0.222 NA
ATOM     17  C2  ZYU d   1      14.099   0.054   6.503  0.00  0.00     0.091 A 
ATOM     18  N3  ZYU d   1      12.916   0.584   6.273  0.00  0.00    -0.220 NA
ATOM     19  H   ZYU d   1      14.980   0.505   6.048  0.00  0.00     0.146 H 
ATOM     20  C4  ZYU d   1      11.814   0.053   6.801  0.00  0.00     0.182 A 
ATOM     21  C5  ZYU d   1      11.924  -1.059   7.590  0.00  0.00     0.128 A 
ATOM     22  N9  ZYU d   1      10.528   0.362   6.747  0.00  0.00    -0.222 NA
ATOM     23  N7  ZYU d   1      10.710  -1.391   7.990  0.00  0.00    -0.345 N 
ATOM     24  C8  ZYU d   1       9.856  -0.522   7.473  0.00  0.00     0.067 A 
ATOM     25  H   ZYU d   1      10.472  -2.179   8.592  0.00  0.00     0.167 HD
ATOM     26  H   ZYU d   1       8.776  -0.531   7.620  0.00  0.00     0.143 H 
ENDBRANCH   6  15
TORSDOF 1
