REMARK  3 active torsions:
REMARK  status: ('A' for Active; 'I' for Inactive)
REMARK    1  A    between atoms: C6_9  and  N6_10 
REMARK    2  A    between atoms: CAP_15  and  CAD_16 
REMARK    3  A    between atoms: CAD_16  and  NAA_17 
ROOT
ATOM      1  N6  ZYV d   1      13.630  -3.465   8.239  0.00  0.00    -0.359 N 
ATOM      2  CAG ZYV d   1      12.546  -4.253   8.843  0.00  0.00     0.022 C 
ATOM      3  CAF ZYV d   1      14.933  -4.131   8.213  0.00  0.00     0.016 C 
ATOM      4  CAE ZYV d   1      15.290  -4.658   9.594  0.00  0.00     0.035 C 
ATOM      5  OAL ZYV d   1      14.315  -5.598  10.063  0.00  0.00    -0.381 OA
ATOM      6  CAP ZYV d   1      13.058  -4.902  10.135  0.00  0.00     0.076 C 
ATOM      7  H   ZYV d   1      12.223  -5.027   8.147  0.00  0.00     0.068 H 
ATOM      8  H   ZYV d   1      11.701  -3.602   9.069  0.00  0.00     0.068 H 
ATOM      9  H   ZYV d   1      15.691  -3.413   7.901  0.00  0.00     0.067 H 
ATOM     10  H   ZYV d   1      14.889  -4.967   7.515  0.00  0.00     0.067 H 
ATOM     11  H   ZYV d   1      15.322  -3.818  10.287  0.00  0.00     0.076 H 
ATOM     12  H   ZYV d   1      16.255  -5.161   9.534  0.00  0.00     0.076 H 
ATOM     13  H   ZYV d   1      12.214  -5.548  10.379  0.00  0.00     0.088 H 
ENDROOT
BRANCH   1  14
ATOM     14  C6  ZYV d   1      13.410  -2.265   7.555  0.00  0.00     0.160 A 
ATOM     15  C5  ZYV d   1      12.179  -1.635   7.578  0.00  0.00     0.149 A 
ATOM     16  N7  ZYV d   1      11.022  -1.905   8.159  0.00  0.00    -0.236 NA
ATOM     17  C4  ZYV d   1      12.023  -0.458   6.876  0.00  0.00     0.162 A 
ATOM     18  C8  ZYV d   1      10.169  -0.935   7.840  0.00  0.00     0.066 A 
ATOM     19  N9  ZYV d   1      10.777  -0.050   7.058  0.00  0.00    -0.333 N 
ATOM     20  H   ZYV d   1       9.132  -0.876   8.169  0.00  0.00     0.143 H 
ATOM     21  H   ZYV d   1      10.358   0.794   6.667  0.00  0.00     0.168 HD
ATOM     22  N3  ZYV d   1      13.057   0.041   6.189  0.00  0.00    -0.222 NA
ATOM     23  C2  ZYV d   1      14.219  -0.583   6.183  0.00  0.00     0.091 A 
ATOM     24  N1  ZYV d   1      14.400  -1.712   6.844  0.00  0.00    -0.222 NA
ATOM     25  H   ZYV d   1      15.049  -0.157   5.620  0.00  0.00     0.146 H 
ENDBRANCH   1  14
BRANCH   6  26
ATOM     26  CAD ZYV d   1      13.506  -3.839  11.124  0.00  0.00     0.105 C 
ATOM     27  H   ZYV d   1      12.667  -3.188  11.370  0.00  0.00     0.079 H 
ATOM     28  H   ZYV d   1      14.302  -3.239  10.684  0.00  0.00     0.079 H 
BRANCH  26  29
ATOM     29  NAA ZYV d   1      13.996  -4.498  12.341  0.00  0.00    -0.077 N 
ATOM     30  H   ZYV d   1      14.299  -3.791  13.011  0.00  0.00     0.274 HD
ATOM     31  H   ZYV d   1      13.246  -5.056  12.750  0.00  0.00     0.274 HD
ATOM     32  H   ZYV d   1      14.782  -5.104  12.105  0.00  0.00     0.274 HD
ENDBRANCH  26  29
ENDBRANCH   6  26
TORSDOF 3
