REMARK  3 active torsions:
REMARK  status: ('A' for Active; 'I' for Inactive)
REMARK    1  A    between atoms: CAN_10  and  NAQ_11 
REMARK    2  A    between atoms: CAR_16  and  CAE_17 
REMARK    3  A    between atoms: CAE_17  and  NAA_18 
ROOT
ATOM      1  NAQ ZYW d   1      17.015  -3.424  10.959  0.00  0.00    -0.374 N 
ATOM      2  CAH ZYW d   1      18.054  -3.609  12.000  0.00  0.00     0.021 C 
ATOM      3  CAG ZYW d   1      16.082  -4.536  10.704  0.00  0.00     0.015 C 
ATOM      4  CAF ZYW d   1      15.763  -5.309  11.982  0.00  0.00     0.035 C 
ATOM      5  OAL ZYW d   1      16.953  -5.535  12.721  0.00  0.00    -0.381 OA
ATOM      6  CAR ZYW d   1      17.383  -4.283  13.218  0.00  0.00     0.076 C 
ATOM      7  H   ZYW d   1      18.481  -2.647  12.286  0.00  0.00     0.068 H 
ATOM      8  H   ZYW d   1      18.865  -4.231  11.621  0.00  0.00     0.068 H 
ATOM      9  H   ZYW d   1      16.549  -5.221   9.996  0.00  0.00     0.067 H 
ATOM     10  H   ZYW d   1      15.153  -4.122  10.312  0.00  0.00     0.067 H 
ATOM     11  H   ZYW d   1      15.316  -6.268  11.720  0.00  0.00     0.076 H 
ATOM     12  H   ZYW d   1      15.068  -4.728  12.589  0.00  0.00     0.076 H 
ATOM     13  H   ZYW d   1      16.644  -3.557  13.556  0.00  0.00     0.088 H 
ENDROOT
BRANCH   1  14
ATOM     14  CAN ZYW d   1      16.853  -2.235  10.235  0.00  0.00     0.065 A 
ATOM     15  CAM ZYW d   1      17.908  -1.617   9.588  0.00  0.00     0.056 A 
ATOM     16 BR   ZYW d   1      19.646  -2.334   9.656  0.00  0.00    -0.047 Br
ATOM     17  CAC ZYW d   1      17.689  -0.445   8.880  0.00  0.00     0.024 A 
ATOM     18  NAJ ZYW d   1      16.490   0.096   8.804  0.00  0.00    -0.240 NA
ATOM     19  H   ZYW d   1      18.526   0.039   8.376  0.00  0.00     0.117 H 
ATOM     20  CAP ZYW d   1      15.449  -0.475   9.414  0.00  0.00     0.157 A 
ATOM     21  NAK ZYW d   1      14.173  -0.146   9.498  0.00  0.00    -0.261 N 
ATOM     22  CAO ZYW d   1      15.608  -1.640  10.129  0.00  0.00     0.058 A 
ATOM     23  NAI ZYW d   1      13.577  -0.980  10.175  0.00  0.00    -0.184 NA
ATOM     24  H   ZYW d   1      13.748   0.675   9.067  0.00  0.00     0.191 HD
ATOM     25  CAD ZYW d   1      14.408  -1.927  10.593  0.00  0.00     0.037 A 
ATOM     26  H   ZYW d   1      14.145  -2.787  11.209  0.00  0.00     0.119 H 
ENDBRANCH   1  14
BRANCH   6  27
ATOM     27  CAE ZYW d   1      18.148  -4.535  14.546  0.00  0.00     0.105 C 
ATOM     28  H   ZYW d   1      17.850  -5.513  14.923  0.00  0.00     0.079 H 
ATOM     29  H   ZYW d   1      17.901  -3.726  15.233  0.00  0.00     0.079 H 
BRANCH  27  30
ATOM     30  NAA ZYW d   1      19.607  -4.545  14.367  0.00  0.00    -0.077 N 
ATOM     31  H   ZYW d   1      20.058  -4.714  15.266  0.00  0.00     0.274 HD
ATOM     32  H   ZYW d   1      19.863  -5.285  13.713  0.00  0.00     0.274 HD
ATOM     33  H   ZYW d   1      19.909  -3.643  13.998  0.00  0.00     0.274 HD
ENDBRANCH  27  30
ENDBRANCH   6  27
TORSDOF 3
