REMARK  4 active torsions:
REMARK  status: ('A' for Active; 'I' for Inactive)
REMARK    1  A    between atoms: CAQ_6  and  CAR_7 
REMARK    2  A    between atoms: CAS_15  and  NAV_16 
REMARK    3  A    between atoms: CAW_21  and  CAI_22 
REMARK    4  A    between atoms: CAI_22  and  NAA_23 
ROOT
ATOM      1  CAR ZY6 d   1      18.095  -1.350   9.632  0.00  0.00     0.019 A 
ATOM      2  CAG ZY6 d   1      17.929  -0.102   9.057  0.00  0.00     0.017 A 
ATOM      3  NAN ZY6 d   1      16.757   0.492   9.017  0.00  0.00    -0.240 NA
ATOM      4  CAU ZY6 d   1      15.676  -0.087   9.546  0.00  0.00     0.157 A 
ATOM      5  NAO ZY6 d   1      14.412   0.309   9.652  0.00  0.00    -0.261 N 
ATOM      6  NAM ZY6 d   1      13.771  -0.581  10.216  0.00  0.00    -0.184 NA
ATOM      7  CAH ZY6 d   1      14.553  -1.606  10.549  0.00  0.00     0.037 A 
ATOM      8  CAT ZY6 d   1      15.777  -1.328  10.139  0.00  0.00     0.058 A 
ATOM      9  CAS ZY6 d   1      17.003  -1.987  10.200  0.00  0.00     0.058 A 
ATOM     10  H   ZY6 d   1      18.794   0.402   8.626  0.00  0.00     0.116 H 
ATOM     11  H   ZY6 d   1      14.036   1.198   9.323  0.00  0.00     0.191 HD
ATOM     12  H   ZY6 d   1      14.239  -2.512  11.067  0.00  0.00     0.119 H 
ENDROOT
BRANCH   9  13
ATOM     13  NAV ZY6 d   1      17.119  -3.250  10.807  0.00  0.00    -0.375 N 
ATOM     14  CAL ZY6 d   1      18.341  -3.673  11.519  0.00  0.00     0.021 C 
ATOM     15  CAW ZY6 d   1      17.956  -4.362  12.835  0.00  0.00     0.076 C 
ATOM     16  H   ZY6 d   1      18.956  -2.799  11.734  0.00  0.00     0.068 H 
ATOM     17  H   ZY6 d   1      18.901  -4.370  10.895  0.00  0.00     0.068 H 
ATOM     18  OAP ZY6 d   1      17.127  -5.446  12.477  0.00  0.00    -0.381 OA
ATOM     19  H   ZY6 d   1      17.498  -3.607  13.474  0.00  0.00     0.088 H 
ATOM     20  CAJ ZY6 d   1      15.858  -4.928  12.106  0.00  0.00     0.035 C 
ATOM     21  CAK ZY6 d   1      15.988  -4.189  10.775  0.00  0.00     0.015 C 
ATOM     22  H   ZY6 d   1      15.145  -5.746  12.003  0.00  0.00     0.076 H 
ATOM     23  H   ZY6 d   1      15.505  -4.240  12.874  0.00  0.00     0.076 H 
ATOM     24  H   ZY6 d   1      16.159  -4.918   9.983  0.00  0.00     0.067 H 
ATOM     25  H   ZY6 d   1      15.071  -3.628  10.593  0.00  0.00     0.067 H 
BRANCH  15  26
ATOM     26  CAI ZY6 d   1      19.135  -4.960  13.622  0.00  0.00     0.105 C 
ATOM     27  H   ZY6 d   1      19.852  -5.366  12.909  0.00  0.00     0.079 H 
ATOM     28  H   ZY6 d   1      18.747  -5.731  14.288  0.00  0.00     0.079 H 
BRANCH  26  29
ATOM     29  NAA ZY6 d   1      19.818  -3.943  14.438  0.00  0.00    -0.077 N 
ATOM     30  H   ZY6 d   1      20.591  -4.377  14.943  0.00  0.00     0.274 HD
ATOM     31  H   ZY6 d   1      20.178  -3.207  13.831  0.00  0.00     0.274 HD
ATOM     32  H   ZY6 d   1      19.157  -3.543  15.104  0.00  0.00     0.274 HD
ENDBRANCH  26  29
ENDBRANCH  15  26
ENDBRANCH   9  13
BRANCH   1  33
ATOM     33  CAQ ZY6 d   1      19.376  -1.878   9.640  0.00  0.00    -0.022 A 
ATOM     34  CAE ZY6 d   1      19.978  -2.209  10.843  0.00  0.00    -0.072 A 
ATOM     35  CAC ZY6 d   1      21.269  -2.710  10.881  0.00  0.00    -0.082 A 
ATOM     36  H   ZY6 d   1      19.427  -2.073  11.774  0.00  0.00     0.084 H 
ATOM     37  CAB ZY6 d   1      21.979  -2.864   9.705  0.00  0.00    -0.083 A 
ATOM     38  H   ZY6 d   1      21.723  -2.982  11.834  0.00  0.00     0.083 H 
ATOM     39  CAD ZY6 d   1      21.391  -2.516   8.501  0.00  0.00    -0.082 A 
ATOM     40  H   ZY6 d   1      22.995  -3.257   9.726  0.00  0.00     0.083 H 
ATOM     41  CAF ZY6 d   1      20.097  -2.017   8.468  0.00  0.00    -0.072 A 
ATOM     42  H   ZY6 d   1      21.949  -2.635   7.572  0.00  0.00     0.083 H 
ATOM     43  H   ZY6 d   1      19.648  -1.734   7.516  0.00  0.00     0.084 H 
ENDBRANCH   1  33
TORSDOF 4
