REMARK  6 active torsions:
REMARK  status: ('A' for Active; 'I' for Inactive)
REMARK    1  A    between atoms: C16_7  and  C15_6 
REMARK    2  A    between atoms: C17_8  and  C16_7 
REMARK    3  A    between atoms: C18_9  and  C17_8 
REMARK    4  A    between atoms: C1_13  and  C18_9 
REMARK    5  A    between atoms: C10_11  and  N12_12 
REMARK    6  A    between atoms: C10_11  and  C1_13 
ROOT
ATOM      1  C17 AN5 d   1      48.881  23.672  51.950  0.00  0.00    -0.005 C 
ATOM      2  H5  AN5 d   1      48.824  24.158  50.965  0.00  0.00     0.044 H 
ATOM      3  H6  AN5 d   1      48.366  22.701  51.910  0.00  0.00     0.044 H 
ENDROOT
BRANCH   1   4
ATOM      4  C16 AN5 d   1      48.208  24.558  52.991  0.00  0.00     0.161 C 
ATOM      5  O11 AN5 d   1      48.689  24.532  54.109  0.00  0.00    -0.292 OA
BRANCH   4   6
ATOM      6  C15 AN5 d   1      47.009  25.472  52.785  0.00  0.00     0.027 A 
ATOM      7  C11 AN5 d   1      45.690  25.029  52.788  0.00  0.00    -0.067 A 
ATOM      8  C12 AN5 d   1      44.658  25.958  52.638  0.00  0.00    -0.065 A 
ATOM      9  H1  AN5 d   1      45.466  23.975  52.905  0.00  0.00     0.085 H 
ATOM     10  C13 AN5 d   1      44.943  27.313  52.495  0.00  0.00     0.002 A 
ATOM     11  H2  AN5 d   1      43.628  25.621  52.633  0.00  0.00     0.085 H 
ATOM     12  N11 AN5 d   1      46.208  27.735  52.510  0.00  0.00    -0.272 NA
ATOM     13  H3  AN5 d   1      44.136  28.026  52.371  0.00  0.00     0.114 H 
ATOM     14  C14 AN5 d   1      47.206  26.842  52.663  0.00  0.00     0.015 A 
ATOM     15  H4  AN5 d   1      48.223  27.215  52.693  0.00  0.00     0.116 H 
ENDBRANCH   4   6
ENDBRANCH   1   4
BRANCH   1  16
ATOM     16  C18 AN5 d   1      50.367  23.451  52.329  0.00  0.00    -0.057 C 
ATOM     17  H7  AN5 d   1      50.578  24.039  53.234  0.00  0.00     0.033 H 
ATOM     18  H8  AN5 d   1      50.988  23.820  51.499  0.00  0.00     0.033 H 
BRANCH  16  19
ATOM     19  C1  AN5 d   1      50.761  21.995  52.606  0.00  0.00    -0.042 C 
ATOM     20  H14 AN5 d   1      49.850  21.415  52.814  0.00  0.00     0.035 H 
ATOM     21  H15 AN5 d   1      51.421  21.968  53.486  0.00  0.00     0.035 H 
BRANCH  19  22
ATOM     22  C10 AN5 d   1      51.493  21.355  51.421  0.00  0.00     0.080 C 
ATOM     23  H9  AN5 d   1      50.767  21.147  50.621  0.00  0.00     0.075 H 
ATOM     24  H10 AN5 d   1      52.256  22.055  51.050  0.00  0.00     0.075 H 
BRANCH  22  25
ATOM     25  N12 AN5 d   1      52.138  20.114  51.809  0.00  0.00    -0.079 N 
ATOM     26  H11 AN5 d   1      52.610  19.717  51.012  0.00  0.00     0.274 HD
ATOM     27  H12 AN5 d   1      51.444  19.465  52.146  0.00  0.00     0.274 HD
ATOM     28  H13 AN5 d   1      52.808  20.298  52.539  0.00  0.00     0.274 HD
ENDBRANCH  22  25
ENDBRANCH  19  22
ENDBRANCH  16  19
ENDBRANCH   1  16
TORSDOF 6
