REMARK  7 active torsions:
REMARK  status: ('A' for Active; 'I' for Inactive)
REMARK    1  A    between atoms: C8_7  and  C6_6 
REMARK    2  A    between atoms: C20_12  and  O1_8 
REMARK    3  A    between atoms: C12_11  and  C20_12 
REMARK    4  A    between atoms: C16_16  and  C12_11 
REMARK    5  A    between atoms: C20_12  and  C17_17 
REMARK    6  A    between atoms: C13_13  and  C16_16 
REMARK    7  A    between atoms: C17_17  and  C18_18 
ROOT
ATOM      1  C8  077 d   1      19.864  27.655  -3.967  0.00  0.00    -0.026 A 
ATOM      2  C10 077 d   1      18.671  28.209  -3.532  0.00  0.00    -0.072 A 
ATOM      3  C11 077 d   1      19.939  26.276  -1.972  0.00  0.00    -0.076 A 
ATOM      4  C13 077 d   1      18.735  26.873  -1.519  0.00  0.00    -0.058 A 
ATOM      5  C14 077 d   1      20.467  26.661  -3.178  0.00  0.00    -0.072 A 
ATOM      6  C60 077 d   1      18.111  27.843  -2.321  0.00  0.00    -0.076 A 
ATOM      7  H7  077 d   1      18.167  28.942  -4.152  0.00  0.00     0.084 H 
ATOM      8  H8  077 d   1      20.437  25.523  -1.371  0.00  0.00     0.084 H 
ATOM      9  H12 077 d   1      21.374  26.185  -3.532  0.00  0.00     0.084 H 
ATOM     10  H13 077 d   1      17.188  28.306  -1.990  0.00  0.00     0.084 H 
ENDROOT
BRANCH   4  11
ATOM     11  C16 077 d   1      18.212  26.426  -0.214  0.00  0.00    -0.039 C 
ATOM     12  H14 077 d   1      17.755  25.438  -0.371  0.00  0.00     0.040 H 
ATOM     13  H15 077 d   1      19.074  26.328   0.462  0.00  0.00     0.040 H 
BRANCH  11  14
ATOM     14  C12 077 d   1      17.172  27.293   0.507  0.00  0.00    -0.037 C 
ATOM     15  H9  077 d   1      17.507  28.341   0.510  0.00  0.00     0.037 H 
ATOM     16  H10 077 d   1      16.207  27.218  -0.015  0.00  0.00     0.037 H 
BRANCH  14  17
ATOM     17  C20 077 d   1      17.010  26.800   1.962  0.00  0.00     0.045 C 
ATOM     18  H11 077 d   1      17.969  26.377   2.294  0.00  0.00     0.083 H 
BRANCH  17  19
ATOM     19  O1  077 d   1      16.033  25.721   1.846  0.00  0.00    -0.395 OA
ATOM     20  H6  077 d   1      15.868  25.351   2.705  0.00  0.00     0.210 HD
ENDBRANCH  17  19
BRANCH  17  21
ATOM     21  C17 077 d   1      16.627  27.871   2.993  0.00  0.00     0.039 C 
ATOM     22  H16 077 d   1      17.194  27.678   3.916  0.00  0.00     0.052 H 
ATOM     23  H17 077 d   1      15.550  27.781   3.199  0.00  0.00     0.052 H 
BRANCH  21  24
ATOM     24  C18 077 d   1      16.908  29.295   2.552  0.00  0.00     0.175 C 
ATOM     25  O3  077 d   1      16.125  29.866   1.799  0.00  0.00    -0.648 OA
ATOM     26  O4  077 d   1      17.911  29.851   2.977  0.00  0.00    -0.648 OA
ENDBRANCH  21  24
ENDBRANCH  17  21
ENDBRANCH  14  17
ENDBRANCH  11  14
ENDBRANCH   4  11
BRANCH   1  27
ATOM     27  C6  077 d   1      20.466  27.940  -5.317  0.00  0.00    -0.026 A 
ATOM     28  C2  077 d   1      21.313  26.990  -5.885  0.00  0.00    -0.072 A 
ATOM     29  C5  077 d   1      21.922  27.149  -7.135  0.00  0.00    -0.082 A 
ATOM     30  H2  077 d   1      21.510  26.080  -5.330  0.00  0.00     0.084 H 
ATOM     31  C4  077 d   1      21.695  28.305  -7.885  0.00  0.00    -0.083 A 
ATOM     32  H5  077 d   1      22.572  26.373  -7.522  0.00  0.00     0.083 H 
ATOM     33  C1  077 d   1      20.854  29.250  -7.327  0.00  0.00    -0.082 A 
ATOM     34  H4  077 d   1      22.155  28.454  -8.855  0.00  0.00     0.083 H 
ATOM     35  C3  077 d   1      20.238  29.083  -6.059  0.00  0.00    -0.072 A 
ATOM     36  H1  077 d   1      20.656  30.159  -7.883  0.00  0.00     0.083 H 
ATOM     37  H3  077 d   1      19.585  29.856  -5.671  0.00  0.00     0.084 H 
ENDBRANCH   1  27
TORSDOF 7
