REMARK  9 active torsions:
REMARK  status: ('A' for Active; 'I' for Inactive)
REMARK    1  A    between atoms: C19_1  and  C1_2 
REMARK    2  A    between atoms: C1_2  and  C14_4 
REMARK    3  A    between atoms: C11_9  and  C8_10 
REMARK    4  A    between atoms: C5_15  and  C4_16 
REMARK    5  A    between atoms: C4_16  and  C3_17 
REMARK    6  A    between atoms: C3_17  and  C2_18 
REMARK    7  A    between atoms: C2_18  and  O1_19 
REMARK    8  A    between atoms: C2_18  and  C17_20 
REMARK    9  A    between atoms: C17_20  and  C18_21 
ROOT
ATOM      1  C8  068 d   1      19.914  27.774  -3.857  0.00  0.00    -0.026 A 
ATOM      2  C9  068 d   1      20.475  26.740  -3.095  0.00  0.00    -0.072 A 
ATOM      3  C10 068 d   1      19.921  26.299  -1.913  0.00  0.00    -0.076 A 
ATOM      4  C7  068 d   1      18.714  28.296  -3.401  0.00  0.00    -0.072 A 
ATOM      5  C6  068 d   1      18.126  27.865  -2.226  0.00  0.00    -0.076 A 
ATOM      6  C5  068 d   1      18.708  26.848  -1.462  0.00  0.00    -0.058 A 
ATOM      7  H8  068 d   1      21.383  26.267  -3.451  0.00  0.00     0.084 H 
ATOM      8  H9  068 d   1      20.419  25.531  -1.333  0.00  0.00     0.084 H 
ATOM      9  H10 068 d   1      18.221  29.066  -3.983  0.00  0.00     0.084 H 
ATOM     10  H11 068 d   1      17.201  28.322  -1.892  0.00  0.00     0.084 H 
ENDROOT
BRANCH   1  11
ATOM     11  C11 068 d   1      20.574  28.180  -5.145  0.00  0.00    -0.026 A 
ATOM     12  C16 068 d   1      21.960  28.154  -5.280  0.00  0.00    -0.071 A 
ATOM     13  C15 068 d   1      22.594  28.484  -6.471  0.00  0.00    -0.069 A 
ATOM     14  H5  068 d   1      22.564  27.867  -4.427  0.00  0.00     0.084 H 
ATOM     15  C14 068 d   1      21.858  28.846  -7.596  0.00  0.00     0.009 A 
ATOM     16  H4  068 d   1      23.676  28.459  -6.525  0.00  0.00     0.085 H 
ATOM     17  C13 068 d   1      20.474  28.884  -7.483  0.00  0.00    -0.069 A 
ATOM     18  C12 068 d   1      19.842  28.555  -6.270  0.00  0.00    -0.071 A 
ATOM     19  H6  068 d   1      19.874  29.170  -8.339  0.00  0.00     0.085 H 
ATOM     20  H7  068 d   1      18.760  28.594  -6.209  0.00  0.00     0.084 H 
BRANCH  15  21
ATOM     21  C1  068 d   1      22.514  29.199  -8.870  0.00  0.00     0.155 C 
ATOM     22  O2  068 d   1      23.701  29.057  -9.050  0.00  0.00    -0.293 OA
BRANCH  21  23
ATOM     23  C19 068 d   1      21.625  29.741  -9.991  0.00  0.00    -0.017 C 
ATOM     24  H1  068 d   1      20.584  29.798  -9.639  0.00  0.00     0.038 H 
ATOM     25  H2  068 d   1      21.681  29.070 -10.861  0.00  0.00     0.038 H 
ATOM     26  H3  068 d   1      21.970  30.745 -10.280  0.00  0.00     0.038 H 
ENDBRANCH  21  23
ENDBRANCH  15  21
ENDBRANCH   1  11
BRANCH   6  27
ATOM     27  C4  068 d   1      18.103  26.355  -0.191  0.00  0.00    -0.039 C 
ATOM     28  H12 068 d   1      18.933  26.075   0.474  0.00  0.00     0.040 H 
ATOM     29  H13 068 d   1      17.515  25.459  -0.440  0.00  0.00     0.040 H 
BRANCH  27  30
ATOM     30  C3  068 d   1      17.182  27.290   0.609  0.00  0.00    -0.037 C 
ATOM     31  H14 068 d   1      16.213  27.362   0.094  0.00  0.00     0.037 H 
ATOM     32  H15 068 d   1      17.644  28.287   0.662  0.00  0.00     0.037 H 
BRANCH  30  33
ATOM     33  C2  068 d   1      16.951  26.771   2.036  0.00  0.00     0.045 C 
ATOM     34  H16 068 d   1      17.933  26.549   2.479  0.00  0.00     0.083 H 
BRANCH  33  35
ATOM     35  O1  068 d   1      16.221  25.539   1.903  0.00  0.00    -0.395 OA
ATOM     36  H17 068 d   1      15.396  25.707   1.463  0.00  0.00     0.210 HD
ENDBRANCH  33  35
BRANCH  33  37
ATOM     37  C17 068 d   1      16.254  27.759   2.976  0.00  0.00     0.039 C 
ATOM     38  H18 068 d   1      16.410  27.436   4.016  0.00  0.00     0.052 H 
ATOM     39  H19 068 d   1      15.177  27.768   2.753  0.00  0.00     0.052 H 
BRANCH  37  40
ATOM     40  C18 068 d   1      16.818  29.187   2.801  0.00  0.00     0.175 C 
ATOM     41  O19 068 d   1      17.943  29.377   3.225  0.00  0.00    -0.648 OA
ATOM     42  O20 068 d   1      16.118  30.034   2.260  0.00  0.00    -0.648 OA
ENDBRANCH  37  40
ENDBRANCH  33  37
ENDBRANCH  30  33
ENDBRANCH  27  30
ENDBRANCH   6  27
TORSDOF 9
