REMARK  6 active torsions:
REMARK  status: ('A' for Active; 'I' for Inactive)
REMARK    1  A    between atoms: O1_1  and  C2_2 
REMARK    2  A    between atoms: C2_2  and  C17_3 
REMARK    3  A    between atoms: C2_2  and  C3_7 
REMARK    4  A    between atoms: C17_3  and  C18_4 
REMARK    5  A    between atoms: C3_7  and  C4_8 
REMARK    6  A    between atoms: C4_8  and  C5_9 
ROOT
ATOM      1  C5  576 d   1      18.824  27.078  -1.875  0.00  0.00    -0.058 A 
ATOM      2  C6  576 d   1      19.910  26.438  -2.510  0.00  0.00    -0.070 A 
ATOM      3  C7  576 d   1      20.314  26.880  -3.767  0.00  0.00    -0.042 A 
ATOM      4  C1  576 d   1      21.441  26.318  -4.623  0.00  0.00    -0.015 A 
ATOM      5  C16 576 d   1      21.359  27.229  -5.858  0.00  0.00    -0.043 A 
ATOM      6  C15 576 d   1      22.183  27.183  -7.010  0.00  0.00    -0.076 A 
ATOM      7  C14 576 d   1      21.957  28.107  -8.062  0.00  0.00    -0.082 A 
ATOM      8  C13 576 d   1      20.912  29.055  -7.929  0.00  0.00    -0.082 A 
ATOM      9  C12 576 d   1      20.098  29.088  -6.758  0.00  0.00    -0.072 A 
ATOM     10  C11 576 d   1      20.334  28.166  -5.723  0.00  0.00    -0.019 A 
ATOM     11  C8  576 d   1      19.678  27.949  -4.415  0.00  0.00    -0.019 A 
ATOM     12  C9  576 d   1      18.611  28.602  -3.811  0.00  0.00    -0.071 A 
ATOM     13  C10 576 d   1      18.190  28.156  -2.535  0.00  0.00    -0.076 A 
ATOM     14  H9  576 d   1      20.422  25.614  -2.026  0.00  0.00     0.085 H 
ATOM     15  H10 576 d   1      21.261  25.265  -4.886  0.00  0.00     0.047 H 
ATOM     16  H11 576 d   1      22.414  26.409  -4.119  0.00  0.00     0.047 H 
ATOM     17  H12 576 d   1      22.977  26.450  -7.086  0.00  0.00     0.084 H 
ATOM     18  H13 576 d   1      22.574  28.088  -8.953  0.00  0.00     0.083 H 
ATOM     19  H14 576 d   1      20.729  29.765  -8.728  0.00  0.00     0.083 H 
ATOM     20  H15 576 d   1      19.303  29.819  -6.667  0.00  0.00     0.084 H 
ATOM     21  H16 576 d   1      18.114  29.430  -4.303  0.00  0.00     0.084 H 
ATOM     22  H17 576 d   1      17.358  28.655  -2.050  0.00  0.00     0.084 H 
ENDROOT
BRANCH   1  23
ATOM     23  C4  576 d   1      18.395  26.571  -0.508  0.00  0.00    -0.039 C 
ATOM     24  H7  576 d   1      18.215  25.490  -0.602  0.00  0.00     0.040 H 
ATOM     25  H8  576 d   1      19.233  26.744   0.183  0.00  0.00     0.040 H 
BRANCH  23  26
ATOM     26  C3  576 d   1      17.136  27.192   0.134  0.00  0.00    -0.037 C 
ATOM     27  H5  576 d   1      17.288  28.276   0.243  0.00  0.00     0.037 H 
ATOM     28  H6  576 d   1      16.273  27.007  -0.522  0.00  0.00     0.037 H 
BRANCH  26  29
ATOM     29  C2  576 d   1      16.848  26.584   1.525  0.00  0.00     0.045 C 
ATOM     30  H2  576 d   1      17.825  26.247   1.902  0.00  0.00     0.083 H 
BRANCH  29  31
ATOM     31  O1  576 d   1      16.032  25.399   1.378  0.00  0.00    -0.395 OA
ATOM     32  H1  576 d   1      15.147  25.652   1.144  0.00  0.00     0.210 HD
ENDBRANCH  29  31
BRANCH  29  33
ATOM     33  C17 576 d   1      16.297  27.517   2.627  0.00  0.00     0.039 C 
ATOM     34  H3  576 d   1      16.570  27.092   3.604  0.00  0.00     0.052 H 
ATOM     35  H4  576 d   1      15.201  27.547   2.534  0.00  0.00     0.052 H 
BRANCH  33  36
ATOM     36  C18 576 d   1      16.819  28.953   2.570  0.00  0.00     0.175 C 
ATOM     37  O20 576 d   1      16.131  29.832   1.989  0.00  0.00    -0.648 OA
ATOM     38  O19 576 d   1      17.925  29.131   3.137  0.00  0.00    -0.648 OA
ENDBRANCH  33  36
ENDBRANCH  29  33
ENDBRANCH  26  29
ENDBRANCH  23  26
ENDBRANCH   1  23
TORSDOF 6
