REMARK  7 active torsions:
REMARK  status: ('A' for Active; 'I' for Inactive)
REMARK    1  A    between atoms: CAQ_2  and  CAB_3 
REMARK       I    between atoms: CAQ_2  and  NAP_4 
REMARK    2  A    between atoms: NAP_4  and  CAR_5 
REMARK    3  A    between atoms: CAR_5  and  CAA_6 
REMARK    4  A    between atoms: CAR_5  and  CAU_7 
REMARK    5  A    between atoms: CAU_7  and  CAM_8 
REMARK    6  A    between atoms: CAM_8  and  CAL_9 
REMARK    7  A    between atoms: CAL_9  and  CAS_10 
ROOT
ATOM      1  CAR AYC d   1     -23.749  21.206  17.717  0.00  0.00     0.009 C 
ATOM      2  H   AYC d   1     -24.830  21.185  17.582  0.00  0.00     0.071 H 
ENDROOT
BRANCH   1   3
ATOM      3  NAP AYC d   1     -23.538  22.410  18.532  0.00  0.00    -0.357 N 
ATOM      4  CAQ AYC d   1     -22.637  23.380  18.355  0.00  0.00     0.213 C 
ATOM      5  OAD AYC d   1     -21.720  23.384  17.529  0.00  0.00    -0.274 OA
ATOM      6  H   AYC d   1     -24.158  22.519  19.335  0.00  0.00     0.162 HD
BRANCH   4   7
ATOM      7  CAB AYC d   1     -22.751  24.475  19.368  0.00  0.00    -0.003 C 
ATOM      8  H   AYC d   1     -21.850  24.496  19.981  0.00  0.00     0.040 H 
ATOM      9  H   AYC d   1     -22.867  25.431  18.857  0.00  0.00     0.040 H 
ATOM     10  H   AYC d   1     -23.619  24.293  20.002  0.00  0.00     0.040 H 
ENDBRANCH   4   7
ENDBRANCH   1   3
BRANCH   1  11
ATOM     11  CAA AYC d   1     -23.444  19.911  18.434  0.00  0.00    -0.057 C 
ATOM     12  H   AYC d   1     -23.914  19.084  17.903  0.00  0.00     0.030 H 
ATOM     13  H   AYC d   1     -22.365  19.759  18.463  0.00  0.00     0.030 H 
ATOM     14  H   AYC d   1     -23.833  19.960  19.451  0.00  0.00     0.030 H 
ENDBRANCH   1  11
BRANCH   1  15
ATOM     15  CAU AYC d   1     -23.260  21.283  16.273  0.00  0.00    -0.046 C 
ATOM     16  H   AYC d   1     -23.453  20.303  15.836  0.00  0.00     0.035 H 
ATOM     17  H   AYC d   1     -22.217  21.595  16.323  0.00  0.00     0.035 H 
BRANCH  15  18
ATOM     18  CAM AYC d   1     -23.949  22.277  15.387  0.00  0.00    -0.054 C 
ATOM     19  H   AYC d   1     -23.228  22.698  14.687  0.00  0.00     0.033 H 
ATOM     20  H   AYC d   1     -24.374  23.073  15.998  0.00  0.00     0.033 H 
BRANCH  18  21
ATOM     21  CAL AYC d   1     -25.088  21.570  14.593  0.00  0.00     0.016 C 
ATOM     22  H   AYC d   1     -25.876  21.289  15.292  0.00  0.00     0.049 H 
ATOM     23  H   AYC d   1     -24.671  20.695  14.093  0.00  0.00     0.049 H 
BRANCH  21  24
ATOM     24  CAS AYC d   1     -25.684  22.495  13.536  0.00  0.00     0.172 C 
ATOM     25  OAG AYC d   1     -25.165  23.595  13.236  0.00  0.00    -0.648 OA
ATOM     26  OAE AYC d   1     -26.702  22.090  12.995  0.00  0.00    -0.648 OA
ENDBRANCH  21  24
ENDBRANCH  18  21
ENDBRANCH  15  18
ENDBRANCH   1  15
TORSDOF 7
