REMARK  13 active torsions:
REMARK  status: ('A' for Active; 'I' for Inactive)
REMARK    1  A    between atoms: C1_1  and  O2_2 
REMARK    2  A    between atoms: O2_2  and  C3_3 
REMARK    3  A    between atoms: C5_5  and  N6_6 
REMARK    4  A    between atoms: N6_6  and  C7_7 
REMARK    5  A    between atoms: C9_9  and  O10_10 
REMARK    6  A    between atoms: O10_10  and  C11_11 
REMARK    7  A    between atoms: C13_13  and  C14_14 
REMARK    8  A    between atoms: C15_15  and  C16_16 
REMARK    9  A    between atoms: C18_18  and  C19_19 
REMARK   10  A    between atoms: C29_29  and  O30_30 
REMARK   11  A    between atoms: O30_30  and  C31_31 
REMARK   12  A    between atoms: C32_32  and  O33_33 
REMARK   13  A    between atoms: O33_33  and  C34_34 
ROOT
ATOM      1  C7  ZZG d   1       3.280   7.153   2.449  0.00  0.00     0.130 A 
ATOM      2  C8  ZZG d   1       3.356   8.105   3.461  0.00  0.00    -0.006 A 
ATOM      3  C9  ZZG d   1       4.598   8.653   3.744  0.00  0.00     0.081 A 
ATOM      4  C25 ZZG d   1       5.731   8.249   3.022  0.00  0.00    -0.033 A 
ATOM      5  C26 ZZG d   1       5.531   7.300   2.029  0.00  0.00     0.007 A 
ATOM      6  N27 ZZG d   1       4.342   6.757   1.731  0.00  0.00    -0.243 NA
ATOM      7  H6  ZZG d   1       2.472   8.409   4.011  0.00  0.00     0.093 H 
ATOM      8  H18 ZZG d   1       6.713   8.658   3.229  0.00  0.00     0.090 H 
ATOM      9  H19 ZZG d   1       6.393   6.977   1.457  0.00  0.00     0.115 H 
ENDROOT
BRANCH   3  10
ATOM     10  O10 ZZG d   1       4.706   9.591   4.750  0.00  0.00    -0.308 OA
BRANCH  10  11
ATOM     11  C11 ZZG d   1       5.916  10.187   4.992  0.00  0.00     0.107 A 
ATOM     12  C12 ZZG d   1       6.410  11.108   4.088  0.00  0.00    -0.040 A 
ATOM     13  C13 ZZG d   1       7.621  11.731   4.332  0.00  0.00    -0.035 A 
ATOM     14  H7  ZZG d   1       5.850  11.342   3.190  0.00  0.00     0.088 H 
ATOM     15  C15 ZZG d   1       8.283  11.391   5.522  0.00  0.00     0.037 A 
ATOM     16  N17 ZZG d   1       7.798  10.511   6.406  0.00  0.00    -0.248 NA
ATOM     17  C18 ZZG d   1       6.627   9.910   6.151  0.00  0.00     0.119 A 
BRANCH  13  18
ATOM     18  C14 ZZG d   1       8.187  12.733   3.344  0.00  0.00    -0.049 C 
ATOM     19  H8  ZZG d   1       7.498  12.838   2.493  0.00  0.00     0.033 H 
ATOM     20  H9  ZZG d   1       9.165  12.380   2.984  0.00  0.00     0.033 H 
ATOM     21  H10 ZZG d   1       8.308  13.708   3.839  0.00  0.00     0.033 H 
ENDBRANCH  13  18
BRANCH  15  22
ATOM     22  C16 ZZG d   1       9.611  12.010   5.897  0.00  0.00    -0.035 C 
ATOM     23  H11 ZZG d   1       9.946  11.603   6.862  0.00  0.00     0.035 H 
ATOM     24  H12 ZZG d   1       9.497  13.101   5.979  0.00  0.00     0.035 H 
ATOM     25  H13 ZZG d   1      10.356  11.776   5.122  0.00  0.00     0.035 H 
ENDBRANCH  15  22
BRANCH  17  26
ATOM     26  C19 ZZG d   1       6.136   8.974   7.207  0.00  0.00     0.088 A 
ATOM     27  C20 ZZG d   1       5.437   7.809   6.878  0.00  0.00    -0.053 A 
ATOM     28  C21 ZZG d   1       4.979   6.985   7.897  0.00  0.00    -0.079 A 
ATOM     29  H14 ZZG d   1       5.255   7.552   5.841  0.00  0.00     0.087 H 
ATOM     30  C22 ZZG d   1       5.241   7.356   9.211  0.00  0.00    -0.066 A 
ATOM     31  H15 ZZG d   1       4.432   6.076   7.674  0.00  0.00     0.083 H 
ATOM     32  C23 ZZG d   1       5.937   8.532   9.441  0.00  0.00     0.003 A 
ATOM     33  H16 ZZG d   1       4.908   6.739  10.038  0.00  0.00     0.085 H 
ATOM     34  N24 ZZG d   1       6.373   9.333   8.478  0.00  0.00    -0.259 NA
ATOM     35  H17 ZZG d   1       6.137   8.814  10.469  0.00  0.00     0.114 H 
ENDBRANCH  17  26
ENDBRANCH  10  11
ENDBRANCH   3  10
BRANCH   1  36
ATOM     36  N6  ZZG d   1       2.040   6.588   2.133  0.00  0.00    -0.341 N 
ATOM     37  H5  ZZG d   1       1.927   6.252   1.166  0.00  0.00     0.167 HD
BRANCH  36  38
ATOM     38  C5  ZZG d   1       0.925   6.425   2.985  0.00  0.00     0.039 A 
ATOM     39  C4  ZZG d   1      -0.327   6.274   2.396  0.00  0.00    -0.022 A 
ATOM     40  C3  ZZG d   1      -1.473   6.100   3.180  0.00  0.00     0.106 A 
ATOM     41  H4  ZZG d   1      -0.415   6.291   1.316  0.00  0.00     0.091 H 
ATOM     42  C32 ZZG d   1      -1.370   6.083   4.579  0.00  0.00     0.135 A 
ATOM     43  C29 ZZG d   1      -0.111   6.223   5.176  0.00  0.00     0.106 A 
ATOM     44  C28 ZZG d   1       1.021   6.397   4.377  0.00  0.00    -0.022 A 
ATOM     45  H20 ZZG d   1       1.991   6.512   4.846  0.00  0.00     0.091 H 
BRANCH  40  46
ATOM     46  O2  ZZG d   1      -2.731   5.944   2.675  0.00  0.00    -0.353 OA
BRANCH  46  47
ATOM     47  C1  ZZG d   1      -2.888   5.958   1.251  0.00  0.00     0.010 C 
ATOM     48  H1  ZZG d   1      -3.950   5.822   0.998  0.00  0.00     0.066 H 
ATOM     49  H2  ZZG d   1      -2.298   5.141   0.809  0.00  0.00     0.066 H 
ATOM     50  H3  ZZG d   1      -2.537   6.921   0.853  0.00  0.00     0.066 H 
ENDBRANCH  46  47
ENDBRANCH  40  46
BRANCH  42  51
ATOM     51  O33 ZZG d   1      -2.487   5.895   5.363  0.00  0.00    -0.351 OA
BRANCH  51  52
ATOM     52  C34 ZZG d   1      -2.850   7.080   6.086  0.00  0.00     0.011 C 
ATOM     53  H24 ZZG d   1      -3.744   6.879   6.694  0.00  0.00     0.067 H 
ATOM     54  H25 ZZG d   1      -3.065   7.892   5.375  0.00  0.00     0.067 H 
ATOM     55  H26 ZZG d   1      -2.019   7.378   6.742  0.00  0.00     0.067 H 
ENDBRANCH  51  52
ENDBRANCH  42  51
BRANCH  43  56
ATOM     56  O30 ZZG d   1      -0.031   6.201   6.544  0.00  0.00    -0.353 OA
BRANCH  56  57
ATOM     57  C31 ZZG d   1       1.261   6.351   7.145  0.00  0.00     0.010 C 
ATOM     58  H21 ZZG d   1       1.163   6.313   8.240  0.00  0.00     0.066 H 
ATOM     59  H22 ZZG d   1       1.693   7.318   6.849  0.00  0.00     0.066 H 
ATOM     60  H23 ZZG d   1       1.919   5.537   6.807  0.00  0.00     0.066 H 
ENDBRANCH  56  57
ENDBRANCH  43  56
ENDBRANCH  36  38
ENDBRANCH   1  36
TORSDOF 13
