REMARK  8 active torsions:
REMARK  status: ('A' for Active; 'I' for Inactive)
REMARK    1  A    between atoms: C1_1  and  C2_2 
REMARK    2  A    between atoms: C5_5  and  O9_9 
REMARK    3  A    between atoms: C6_6  and  C8_8 
REMARK    4  A    between atoms: O9_9  and  C10_10 
REMARK    5  A    between atoms: C14_14  and  N16_16 
REMARK    6  A    between atoms: N16_16  and  C17_17 
REMARK    7  A    between atoms: C20_20  and  S23_23 
REMARK    8  A    between atoms: S23_23  and  N26_26 
ROOT
ATOM      1  C10 ZZF d   1       4.012   8.519   3.606  0.00  0.00     0.081 A 
ATOM      2  C11 ZZF d   1       5.092   8.031   2.906  0.00  0.00    -0.033 A 
ATOM      3  C12 ZZF d   1       4.866   6.998   2.025  0.00  0.00     0.007 A 
ATOM      4  N13 ZZF d   1       3.669   6.440   1.809  0.00  0.00    -0.243 NA
ATOM      5  C14 ZZF d   1       2.639   6.926   2.509  0.00  0.00     0.130 A 
ATOM      6  C15 ZZF d   1       2.769   7.964   3.410  0.00  0.00    -0.006 A 
ATOM      7  H9  ZZF d   1       6.084   8.445   3.044  0.00  0.00     0.090 H 
ATOM      8  H10 ZZF d   1       5.713   6.611   1.470  0.00  0.00     0.115 H 
ATOM      9  H11 ZZF d   1       1.907   8.335   3.953  0.00  0.00     0.093 H 
ENDROOT
BRANCH   5  10
ATOM     10  N16 ZZF d   1       1.421   6.317   2.264  0.00  0.00    -0.341 N 
ATOM     11  H12 ZZF d   1       1.330   5.864   1.343  0.00  0.00     0.167 HD
BRANCH  10  12
ATOM     12  C17 ZZF d   1       0.284   6.228   3.098  0.00  0.00     0.033 A 
ATOM     13  C18 ZZF d   1      -0.945   6.061   2.498  0.00  0.00    -0.056 A 
ATOM     14  C19 ZZF d   1      -2.086   5.960   3.263  0.00  0.00    -0.058 A 
ATOM     15  H13 ZZF d   1      -1.014   6.009   1.417  0.00  0.00     0.087 H 
ATOM     16  C20 ZZF d   1      -2.003   6.027   4.638  0.00  0.00     0.079 A 
ATOM     17  H14 ZZF d   1      -3.050   5.828   2.784  0.00  0.00     0.086 H 
ATOM     18  C21 ZZF d   1      -0.788   6.196   5.255  0.00  0.00    -0.058 A 
ATOM     19  C22 ZZF d   1       0.350   6.290   4.481  0.00  0.00    -0.056 A 
ATOM     20  H15 ZZF d   1      -0.724   6.255   6.335  0.00  0.00     0.086 H 
ATOM     21  H16 ZZF d   1       1.313   6.415   4.963  0.00  0.00     0.087 H 
BRANCH  16  22
ATOM     22  S23 ZZF d   1      -3.514   5.890   5.587  0.00  0.00     0.256 S 
ATOM     23  O24 ZZF d   1      -3.808   7.201   6.136  0.00  0.00    -0.201 OA
ATOM     24  O25 ZZF d   1      -4.365   5.196   4.641  0.00  0.00    -0.201 OA
BRANCH  22  25
ATOM     25  N26 ZZF d   1      -3.293   4.999   6.710  0.00  0.00    -0.324 N 
ATOM     26  H17 ZZF d   1      -4.037   4.807   7.350  0.00  0.00     0.169 HD
ATOM     27  H18 ZZF d   1      -2.397   4.577   6.844  0.00  0.00     0.169 HD
ENDBRANCH  22  25
ENDBRANCH  16  22
ENDBRANCH  10  12
ENDBRANCH   5  10
BRANCH   1  28
ATOM     28  O9  ZZF d   1       4.114   9.560   4.518  0.00  0.00    -0.309 OA
BRANCH  28  29
ATOM     29  C5  ZZF d   1       5.373  10.117   4.650  0.00  0.00     0.100 A 
ATOM     30  C4  ZZF d   1       5.731  11.190   3.869  0.00  0.00    -0.046 A 
ATOM     31  C3  ZZF d   1       6.991  11.731   4.023  0.00  0.00    -0.057 A 
ATOM     32  H5  ZZF d   1       5.037  11.603   3.146  0.00  0.00     0.087 H 
ATOM     33  C2  ZZF d   1       7.849  11.178   4.949  0.00  0.00     0.031 A 
ATOM     34  H4  ZZF d   1       7.302  12.579   3.424  0.00  0.00     0.086 H 
ATOM     35  N7  ZZF d   1       7.492  10.135   5.706  0.00  0.00    -0.256 NA
ATOM     36  C6  ZZF d   1       6.268   9.609   5.568  0.00  0.00     0.064 A 
BRANCH  33  37
ATOM     37  C1  ZZF d   1       9.210  11.740   5.130  0.00  0.00    -0.035 C 
ATOM     38  H1  ZZF d   1       9.352  12.586   4.441  0.00  0.00     0.035 H 
ATOM     39  H2  ZZF d   1       9.959  10.963   4.916  0.00  0.00     0.035 H 
ATOM     40  H3  ZZF d   1       9.328  12.087   6.167  0.00  0.00     0.035 H 
ENDBRANCH  33  37
BRANCH  36  41
ATOM     41  C8  ZZF d   1       5.894   8.442   6.434  0.00  0.00    -0.033 C 
ATOM     42  H6  ZZF d   1       6.737   8.190   7.094  0.00  0.00     0.035 H 
ATOM     43  H7  ZZF d   1       5.654   7.576   5.799  0.00  0.00     0.035 H 
ATOM     44  H8  ZZF d   1       5.017   8.704   7.044  0.00  0.00     0.035 H 
ENDBRANCH  36  41
ENDBRANCH  28  29
ENDBRANCH   1  28
TORSDOF 8
