REMARK  32 active torsions:
REMARK  status: ('A' for Active; 'I' for Inactive)
REMARK    1  A    between atoms: CA_2  and  N_1 
REMARK    2  A    between atoms: C_3  and  CA_2 
REMARK    3  A    between atoms: CA_2  and  CB_5 
REMARK       I    between atoms: N_6  and  C_3 
REMARK    4  A    between atoms: C_8  and  CA_7 
REMARK       I    between atoms: N_13  and  C_8 
REMARK    5  A    between atoms: CA_14  and  N_13 
REMARK    6  A    between atoms: C_15  and  CA_14 
REMARK    7  A    between atoms: CA_14  and  CB_17 
REMARK       I    between atoms: N_33  and  C_15 
REMARK    8  A    between atoms: CB_17  and  CG_18 
REMARK    9  A    between atoms: CG_18  and  CD_19 
REMARK   10  A    between atoms: CD_19  and  NE_20 
REMARK       I    between atoms: NE_20  and  CZ_21 
REMARK       I    between atoms: CZ_21  and  NH1_22 
REMARK   11  A    between atoms: CH_25  and  CH3_26 
REMARK       I    between atoms: NZ_27  and  CH_25 
REMARK   12  A    between atoms: CE_28  and  NZ_27 
REMARK   13  A    between atoms: CD_29  and  CE_28 
REMARK   14  A    between atoms: CG_30  and  CD_29 
REMARK   15  A    between atoms: CB_31  and  CG_30 
REMARK   16  A    between atoms: CA_32  and  CB_31 
REMARK   17  A    between atoms: CA_32  and  N_33 
REMARK   18  A    between atoms: CA_32  and  C_34 
REMARK       I    between atoms: C_34  and  N_36 
REMARK   19  A    between atoms: N_36  and  CA_37 
REMARK   20  A    between atoms: CA_37  and  C_38 
REMARK   21  A    between atoms: CA_37  and  CB_40 
REMARK       I    between atoms: C_38  and  N_45 
REMARK   22  A    between atoms: CB_40  and  CG_41 
REMARK   23  A    between atoms: CG_41  and  CD_42 
REMARK       I    between atoms: CD_42  and  NE2_44 
REMARK   24  A    between atoms: N_45  and  CA_46 
REMARK   25  A    between atoms: CA_46  and  C_47 
REMARK   26  A    between atoms: CA_46  and  CB_49 
REMARK       I    between atoms: C_47  and  N_53 
REMARK   27  A    between atoms: CB_49  and  CG_50 
REMARK   28  A    between atoms: CG_50  and  CD1_51 
REMARK   29  A    between atoms: CG_50  and  CD2_52 
REMARK   30  A    between atoms: N_53  and  CA_54 
REMARK   31  A    between atoms: CA_54  and  C_55 
REMARK   32  A    between atoms: CA_54  and  CB_57 
REMARK       I    between atoms: C_55  and  N_58 
ROOT
ATOM      1  CA  ALY d   1     -16.071   7.533 -27.576  0.00  0.00     0.089 C 
ATOM      2  H40 ALY d   1     -16.181   7.976 -28.577  0.00  0.00     0.087 H 
ENDROOT
BRANCH   1   3
ATOM      3  CB  ALY d   1     -17.209   6.544 -27.341  0.00  0.00    -0.038 C 
ATOM      4  H38 ALY d   1     -17.362   5.972 -28.268  0.00  0.00     0.036 H 
ATOM      5  H39 ALY d   1     -16.907   5.861 -26.534  0.00  0.00     0.036 H 
BRANCH   3   6
ATOM      6  CG  ALY d   1     -18.523   7.171 -26.956  0.00  0.00    -0.061 C 
ATOM      7  H36 ALY d   1     -18.348   7.918 -26.168  0.00  0.00     0.033 H 
ATOM      8  H37 ALY d   1     -18.959   7.663 -27.838  0.00  0.00     0.033 H 
BRANCH   6   9
ATOM      9  CD  ALY d   1     -19.496   6.123 -26.440  0.00  0.00    -0.050 C 
ATOM     10  H34 ALY d   1     -19.028   5.591 -25.598  0.00  0.00     0.035 H 
ATOM     11  H35 ALY d   1     -20.409   6.629 -26.093  0.00  0.00     0.035 H 
BRANCH   9  12
ATOM     12  CE  ALY d   1     -19.877   5.108 -27.507  0.00  0.00    -0.005 C 
ATOM     13  H32 ALY d   1     -19.776   5.568 -28.501  0.00  0.00     0.064 H 
ATOM     14  H33 ALY d   1     -19.210   4.236 -27.437  0.00  0.00     0.064 H 
BRANCH  12  15
ATOM     15  NZ  ALY d   1     -21.257   4.679 -27.309  0.00  0.00    -0.361 N 
ATOM     16  CH  ALY d   1     -21.638   3.436 -27.036  0.00  0.00     0.213 C 
ATOM     17  OH  ALY d   1     -20.852   2.491 -26.923  0.00  0.00    -0.274 OA
ATOM     18  H31 ALY d   1     -21.972   5.374 -27.385  0.00  0.00     0.162 HD
BRANCH  16  19
ATOM     19  CH3 ALY d   1     -23.130   3.234 -26.862  0.00  0.00    -0.003 C 
ATOM     20  H28 ALY d   1     -23.649   4.194 -27.002  0.00  0.00     0.040 H 
ATOM     21  H29 ALY d   1     -23.333   2.852 -25.851  0.00  0.00     0.040 H 
ATOM     22  H30 ALY d   1     -23.491   2.510 -27.607  0.00  0.00     0.040 H 
ENDBRANCH  16  19
ENDBRANCH  12  15
ENDBRANCH   9  12
ENDBRANCH   6   9
ENDBRANCH   3   6
ENDBRANCH   1   3
BRANCH   1  23
ATOM     23  N   ALY d   1     -14.812   6.811 -27.518  0.00  0.00    -0.346 N 
ATOM     24  C   ARG d   1     -13.640   7.385 -27.755  0.00  0.00     0.241 C 
ATOM     25  O   ARG d   1     -13.512   8.573 -28.058  0.00  0.00    -0.271 OA
ATOM     26  H41 ALY d   1     -14.830   5.838 -27.289  0.00  0.00     0.163 HD
BRANCH  24  27
ATOM     27  CA  ARG d   1     -12.436   6.462 -27.650  0.00  0.00     0.089 C 
ATOM     28  H16 ARG d   1     -12.792   5.425 -27.560  0.00  0.00     0.087 H 
BRANCH  27  29
ATOM     29  N   ARG d   1     -11.628   6.572 -28.856  0.00  0.00    -0.346 N 
ATOM     30  C   PRO d   1     -10.912   5.554 -29.320  0.00  0.00     0.241 C 
ATOM     31  O   PRO d   1     -10.859   4.457 -28.758  0.00  0.00    -0.271 OA
ATOM     32  H15 ARG d   1     -11.611   7.441 -29.351  0.00  0.00     0.163 HD
BRANCH  30  33
ATOM     33  CA  PRO d   1     -10.134   5.820 -30.609  0.00  0.00     0.091 C 
ATOM     34  N   PRO d   1      -8.983   4.924 -30.763  0.00  0.00    -0.337 N 
ATOM     35  C   ALA d   1      -7.928   4.979 -29.934  0.00  0.00     0.250 C 
ATOM     36  CD  PRO d   1      -9.097   4.145 -32.006  0.00  0.00    -0.001 C 
ATOM     37  O   ALA d   1      -7.871   5.791 -29.008  0.00  0.00    -0.271 OA
ATOM     38  CG  PRO d   1      -9.975   5.031 -32.838  0.00  0.00    -0.048 C 
ATOM     39  H13 PRO d   1      -9.569   3.168 -31.826  0.00  0.00     0.064 H 
ATOM     40  H14 PRO d   1      -8.115   3.996 -32.478  0.00  0.00     0.064 H 
ATOM     41  CB  PRO d   1     -10.977   5.519 -31.847  0.00  0.00    -0.036 C 
ATOM     42  H11 PRO d   1      -9.403   5.866 -33.268  0.00  0.00     0.035 H 
ATOM     43  H12 PRO d   1     -10.460   4.464 -33.646  0.00  0.00     0.035 H 
ATOM     44  H9  PRO d   1     -11.480   6.427 -32.211  0.00  0.00     0.036 H 
ATOM     45  H10 PRO d   1     -11.728   4.744 -31.633  0.00  0.00     0.036 H 
ATOM     46  H8  PRO d   1      -9.805   6.870 -30.612  0.00  0.00     0.087 H 
BRANCH  35  47
ATOM     47  CA  ALA d   1      -6.784   3.995 -30.189  0.00  0.00     0.172 C 
ATOM     48  H4  ALA d   1      -6.818   3.687 -31.244  0.00  0.00     0.098 H 
BRANCH  47  49
ATOM     49  N   ALA d   1      -5.460   4.630 -29.923  0.00  0.00    -0.067 N 
ATOM     50  H1  ALA d   1      -4.726   3.962 -30.098  0.00  0.00     0.275 HD
ATOM     51  H2  ALA d   1      -5.418   4.931 -28.962  0.00  0.00     0.275 HD
ATOM     52  H3  ALA d   1      -5.341   5.426 -30.529  0.00  0.00     0.275 HD
ENDBRANCH  47  49
BRANCH  47  53
ATOM     53  CB  ALA d   1      -6.953   2.754 -29.310  0.00  0.00    -0.042 C 
ATOM     54  H5  ALA d   1      -7.931   2.292 -29.512  0.00  0.00     0.030 H 
ATOM     55  H6  ALA d   1      -6.897   3.045 -28.251  0.00  0.00     0.030 H 
ATOM     56  H7  ALA d   1      -6.153   2.033 -29.536  0.00  0.00     0.030 H 
ENDBRANCH  47  53
ENDBRANCH  35  47
ENDBRANCH  30  33
ENDBRANCH  27  29
BRANCH  27  57
ATOM     57  CB  ARG d   1     -11.612   6.803 -26.400  0.00  0.00    -0.036 C 
ATOM     58  H17 ARG d   1     -12.300   6.907 -25.548  0.00  0.00     0.036 H 
ATOM     59  H18 ARG d   1     -11.097   7.759 -26.574  0.00  0.00     0.036 H 
BRANCH  57  60
ATOM     60  CG  ARG d   1     -10.567   5.751 -26.048  0.00  0.00    -0.048 C 
ATOM     61  H19 ARG d   1      -9.836   5.687 -26.868  0.00  0.00     0.035 H 
ATOM     62  H20 ARG d   1     -11.067   4.779 -25.926  0.00  0.00     0.035 H 
BRANCH  60  63
ATOM     63  CD  ARG d   1      -9.834   6.091 -24.761  0.00  0.00     0.009 C 
ATOM     64  H21 ARG d   1      -9.436   7.113 -24.842  0.00  0.00     0.064 H 
ATOM     65  H22 ARG d   1      -9.002   5.383 -24.632  0.00  0.00     0.064 H 
BRANCH  63  66
ATOM     66  NE  ARG d   1     -10.699   6.017 -23.585  0.00  0.00    -0.227 N 
ATOM     67  CZ  ARG d   1     -10.270   6.139 -22.331  0.00  0.00     0.665 C 
ATOM     68  NH1 ARG d   1      -8.982   6.344 -22.084  0.00  0.00    -0.235 N 
ATOM     69  NH2 ARG d   1     -11.125   6.041 -21.319  0.00  0.00    -0.235 N 
ATOM     70  H24 ARG d   1      -8.652   6.438 -21.113  0.00  0.00     0.174 HD
ATOM     71  H25 ARG d   1      -8.312   6.409 -22.864  0.00  0.00     0.174 HD
ATOM     72  H26 ARG d   1     -12.126   5.882 -21.504  0.00  0.00     0.174 HD
ATOM     73  H27 ARG d   1     -10.787   6.124 -20.349  0.00  0.00     0.174 HD
ATOM     74  H23 ARG d   1     -11.706   5.860 -23.737  0.00  0.00     0.177 HD
ENDBRANCH  63  66
ENDBRANCH  60  63
ENDBRANCH  57  60
ENDBRANCH  27  57
ENDBRANCH  24  27
ENDBRANCH   1  23
BRANCH   1  75
ATOM     75  C   ALY d   1     -16.118   8.657 -26.541  0.00  0.00     0.241 C 
ATOM     76  O   ALY d   1     -15.708   8.475 -25.396  0.00  0.00    -0.271 OA
ATOM     77  N   GLN d   1     -16.617   9.819 -26.949  0.00  0.00    -0.346 N 
ATOM     78  H42 GLN d   1     -16.935   9.911 -27.892  0.00  0.00     0.163 HD
BRANCH  77  79
ATOM     79  CA  GLN d   1     -16.710  10.965 -26.047  0.00  0.00     0.090 C 
ATOM     80  H43 GLN d   1     -16.310  10.666 -25.067  0.00  0.00     0.087 H 
BRANCH  79  81
ATOM     81  C   GLN d   1     -18.156  11.411 -25.862  0.00  0.00     0.241 C 
ATOM     82  O   GLN d   1     -18.727  12.089 -26.715  0.00  0.00    -0.271 OA
ATOM     83  N   LEU d   1     -18.740  11.027 -24.736  0.00  0.00    -0.346 N 
ATOM     84  H50 LEU d   1     -18.219  10.482 -24.079  0.00  0.00     0.163 HD
BRANCH  83  85
ATOM     85  CA  LEU d   1     -20.119  11.377 -24.431  0.00  0.00     0.089 C 
ATOM     86  H51 LEU d   1     -20.749  11.156 -25.305  0.00  0.00     0.087 H 
BRANCH  85  87
ATOM     87  C   LEU d   1     -20.219  12.860 -24.109  0.00  0.00     0.241 C 
ATOM     88  O   LEU d   1     -19.838  13.290 -23.018  0.00  0.00    -0.271 OA
ATOM     89  N   ALA d   1     -20.729  13.637 -25.060  0.00  0.00    -0.346 N 
ATOM     90  H61 ALA d   1     -21.020  13.223 -25.922  0.00  0.00     0.163 HD
BRANCH  89  91
ATOM     91  CA  ALA d   1     -20.875  15.079 -24.878  0.00  0.00     0.086 C 
ATOM     92  H62 ALA d   1     -20.897  15.553 -25.870  0.00  0.00     0.086 H 
BRANCH  91  93
ATOM     93  C   ALA d   1     -19.702  15.670 -24.088  0.00  0.00     0.237 C 
ATOM     94  O   ALA d   1     -19.956  16.274 -23.023  0.00  0.00    -0.271 OA
ATOM     95  N   THR d   1     -18.542  15.517 -24.538  0.00  0.00    -0.368 N 
ATOM     96  H66 THR d   1     -17.759  15.893 -24.042  0.00  0.00     0.159 HD
ATOM     97  H67 THR d   1     -18.399  15.019 -25.393  0.00  0.00     0.159 HD
ENDBRANCH  91  93
BRANCH  91  98
ATOM     98  CB  ALA d   1     -22.191  15.378 -24.165  0.00  0.00    -0.049 C 
ATOM     99  H63 ALA d   1     -22.296  16.465 -24.030  0.00  0.00     0.030 H 
ATOM    100  H64 ALA d   1     -22.196  14.884 -23.182  0.00  0.00     0.030 H 
ATOM    101  H65 ALA d   1     -23.029  15.000 -24.769  0.00  0.00     0.030 H 
ENDBRANCH  91  98
ENDBRANCH  89  91
ENDBRANCH  85  87
BRANCH  85 102
ATOM    102  CB  LEU d   1     -20.607  10.552 -23.241  0.00  0.00    -0.035 C 
ATOM    103  H52 LEU d   1     -21.654  10.825 -23.044  0.00  0.00     0.037 H 
ATOM    104  H53 LEU d   1     -19.989  10.813 -22.369  0.00  0.00     0.037 H 
BRANCH 102 105
ATOM    105  CG  LEU d   1     -20.541   9.037 -23.431  0.00  0.00    -0.059 C 
ATOM    106  H54 LEU d   1     -19.528   8.761 -23.760  0.00  0.00     0.038 H 
BRANCH 105 107
ATOM    107  CD1 LEU d   1     -20.829   8.350 -22.112  0.00  0.00    -0.073 C 
ATOM    108  H55 LEU d   1     -20.782   7.260 -22.248  0.00  0.00     0.028 H 
ATOM    109  H56 LEU d   1     -21.833   8.632 -21.763  0.00  0.00     0.028 H 
ATOM    110  H57 LEU d   1     -20.081   8.659 -21.367  0.00  0.00     0.028 H 
ENDBRANCH 105 107
BRANCH 105 111
ATOM    111  CD2 LEU d   1     -21.534   8.607 -24.500  0.00  0.00    -0.073 C 
ATOM    112  H58 LEU d   1     -21.301   9.120 -25.445  0.00  0.00     0.028 H 
ATOM    113  H59 LEU d   1     -22.553   8.871 -24.181  0.00  0.00     0.028 H 
ATOM    114  H60 LEU d   1     -21.466   7.519 -24.648  0.00  0.00     0.028 H 
ENDBRANCH 105 111
ENDBRANCH 102 105
ENDBRANCH  85 102
ENDBRANCH  83  85
ENDBRANCH  79  81
BRANCH  79 115
ATOM    115  CB  GLN d   1     -15.873  12.134 -26.582  0.00  0.00    -0.030 C 
ATOM    116  H44 GLN d   1     -16.020  12.996 -25.915  0.00  0.00     0.037 H 
ATOM    117  H45 GLN d   1     -16.236  12.384 -27.590  0.00  0.00     0.037 H 
BRANCH 115 118
ATOM    118  CG  GLN d   1     -14.380  11.849 -26.670  0.00  0.00     0.011 C 
ATOM    119  H46 GLN d   1     -13.873  12.743 -27.061  0.00  0.00     0.047 H 
ATOM    120  H47 GLN d   1     -14.222  11.007 -27.360  0.00  0.00     0.047 H 
BRANCH 118 121
ATOM    121  CD  GLN d   1     -13.774  11.496 -25.325  0.00  0.00     0.215 C 
ATOM    122  OE1 GLN d   1     -13.913  12.245 -24.357  0.00  0.00    -0.274 OA
ATOM    123  NE2 GLN d   1     -13.092  10.354 -25.257  0.00  0.00    -0.370 N 
ATOM    124  H48 GLN d   1     -12.672  10.073 -24.394  0.00  0.00     0.159 HD
ATOM    125  H49 GLN d   1     -13.000   9.777 -26.069  0.00  0.00     0.159 HD
ENDBRANCH 118 121
ENDBRANCH 115 118
ENDBRANCH  79 115
ENDBRANCH  77  79
ENDBRANCH   1  75
TORSDOF 32
