REMARK  9 active torsions:
REMARK  status: ('A' for Active; 'I' for Inactive)
REMARK    1  A    between atoms: C25_2  and  C14_3 
REMARK       I    between atoms: C25_2  and  N24_10 
REMARK    2  A    between atoms: N17_6  and  C18_7 
REMARK    3  A    between atoms: C21_12  and  C22_13 
REMARK    4  A    between atoms: C21_12  and  C23_14 
REMARK    5  A    between atoms: C6_18  and  N7_20 
REMARK       I    between atoms: N7_20  and  C8_21 
REMARK    6  A    between atoms: C8_21  and  C9_23 
REMARK    7  A    between atoms: C9_23  and  C10_24 
REMARK    8  A    between atoms: C10_24  and  C12_25 
REMARK    9  A    between atoms: C10_24  and  C11_26 
ROOT
ATOM      1  O26 889 d   1     -15.988 206.354 114.088  0.00  0.00    -0.273 OA
ATOM      2  C25 889 d   1     -14.907 206.876 114.370  0.00  0.00     0.225 C 
ATOM      3  N24 889 d   1     -14.006 207.312 113.369  0.00  0.00    -0.333 N 
ATOM      4  C1  889 d   1     -12.728 207.950 113.664  0.00  0.00     0.028 A 
ATOM      5  C21 889 d   1     -14.295 207.169 111.889  0.00  0.00     0.073 A 
ATOM      6  C3  889 d   1     -13.044 207.803 111.354  0.00  0.00     0.067 A 
ATOM      7  N4  889 d   1     -12.544 208.071 110.119  0.00  0.00    -0.277 N 
ATOM      8  N5  889 d   1     -11.316 208.718 110.309  0.00  0.00    -0.156 NA
ATOM      9  C6  889 d   1     -11.116 208.814 111.590  0.00  0.00     0.160 A 
ATOM     10  C2  889 d   1     -12.217 208.220 112.333  0.00  0.00     0.034 A 
ATOM     11  H   889 d   1     -12.063 207.331 114.266  0.00  0.00     0.072 H 
ATOM     12  H   889 d   1     -12.822 208.843 114.282  0.00  0.00     0.072 H 
ATOM     13  H   889 d   1     -12.979 207.844 109.225  0.00  0.00     0.189 HD
ENDROOT
BRANCH   2  14
ATOM     14  C14 889 d   1     -14.491 207.077 115.864  0.00  0.00     0.027 C 
ATOM     15  C20 889 d   1     -14.815 208.547 116.330  0.00  0.00    -0.029 C 
ATOM     16  C19 889 d   1     -14.407 208.846 117.808  0.00  0.00     0.114 C 
ATOM     17  H   889 d   1     -15.895 208.680 116.258  0.00  0.00     0.036 H 
ATOM     18  H   889 d   1     -14.244 209.223 115.693  0.00  0.00     0.036 H 
ATOM     19  N17 889 d   1     -15.101 207.761 118.796  0.00  0.00     0.084 N 
ATOM     20  H   889 d   1     -14.740 209.848 118.080  0.00  0.00     0.079 H 
ATOM     21  H   889 d   1     -13.323 208.781 117.904  0.00  0.00     0.079 H 
ATOM     22  C16 889 d   1     -14.805 206.344 118.302  0.00  0.00     0.114 C 
ATOM     23  C15 889 d   1     -15.239 206.137 116.846  0.00  0.00    -0.029 C 
ATOM     24  H   889 d   1     -15.362 205.644 118.925  0.00  0.00     0.079 H 
ATOM     25  H   889 d   1     -13.729 206.181 118.362  0.00  0.00     0.079 H 
ATOM     26  H   889 d   1     -15.008 205.108 116.569  0.00  0.00     0.036 H 
ATOM     27  H   889 d   1     -16.304 206.358 116.778  0.00  0.00     0.036 H 
ATOM     28  H   889 d   1     -13.424 206.855 115.894  0.00  0.00     0.054 H 
BRANCH  19  29
ATOM     29  C18 889 d   1     -14.717 208.027 120.137  0.00  0.00     0.095 C 
ATOM     30  H   889 d   1     -15.245 207.348 120.806  0.00  0.00     0.071 H 
ATOM     31  H   889 d   1     -13.642 207.880 120.242  0.00  0.00     0.071 H 
ATOM     32  H   889 d   1     -14.970 209.057 120.388  0.00  0.00     0.071 H 
ENDBRANCH  19  29
ENDBRANCH   2  14
BRANCH   5  33
ATOM     33  C22 889 d   1     -15.502 207.922 111.396  0.00  0.00    -0.048 C 
ATOM     34  H   889 d   1     -16.389 207.568 111.922  0.00  0.00     0.031 H 
ATOM     35  H   889 d   1     -15.367 208.987 111.585  0.00  0.00     0.031 H 
ATOM     36  H   889 d   1     -15.621 207.754 110.326  0.00  0.00     0.031 H 
ENDBRANCH   5  33
BRANCH   5  37
ATOM     37  C23 889 d   1     -14.430 205.692 111.512  0.00  0.00    -0.048 C 
ATOM     38  H   889 d   1     -13.500 205.173 111.745  0.00  0.00     0.031 H 
ATOM     39  H   889 d   1     -15.248 205.247 112.079  0.00  0.00     0.031 H 
ATOM     40  H   889 d   1     -14.637 205.608 110.445  0.00  0.00     0.031 H 
ENDBRANCH   5  37
BRANCH   9  41
ATOM     41  N7  889 d   1     -10.044 209.435 112.184  0.00  0.00    -0.310 N 
ATOM     42  C8  889 d   1      -9.272 209.049 113.227  0.00  0.00     0.223 C 
ATOM     43  O13 889 d   1      -9.391 208.015 113.827  0.00  0.00    -0.273 OA
ATOM     44  H   889 d   1      -9.788 210.333 111.772  0.00  0.00     0.170 HD
BRANCH  42  45
ATOM     45  C9  889 d   1      -8.297 210.129 113.676  0.00  0.00     0.012 C 
ATOM     46  H   889 d   1      -8.937 210.960 113.971  0.00  0.00     0.047 H 
ATOM     47  H   889 d   1      -7.606 210.229 112.839  0.00  0.00     0.047 H 
BRANCH  45  48
ATOM     48  C10 889 d   1      -7.395 209.908 114.880  0.00  0.00    -0.053 C 
ATOM     49  H   889 d   1      -8.001 209.572 115.722  0.00  0.00     0.039 H 
BRANCH  48  50
ATOM     50  C12 889 d   1      -6.327 208.919 114.483  0.00  0.00    -0.073 C 
ATOM     51  H   889 d   1      -6.795 207.981 114.184  0.00  0.00     0.028 H 
ATOM     52  H   889 d   1      -5.753 209.322 113.649  0.00  0.00     0.028 H 
ATOM     53  H   889 d   1      -5.665 208.742 115.330  0.00  0.00     0.028 H 
ENDBRANCH  48  50
BRANCH  48  54
ATOM     54  C11 889 d   1      -6.664 211.169 115.202  0.00  0.00    -0.073 C 
ATOM     55  H   889 d   1      -6.058 211.465 114.346  0.00  0.00     0.028 H 
ATOM     56  H   889 d   1      -7.383 211.956 115.429  0.00  0.00     0.028 H 
ATOM     57  H   889 d   1      -6.020 211.004 116.066  0.00  0.00     0.028 H 
ENDBRANCH  48  54
ENDBRANCH  45  48
ENDBRANCH  42  45
ENDBRANCH   9  41
TORSDOF 9
