REMARK  12 active torsions:
REMARK  status: ('A' for Active; 'I' for Inactive)
REMARK    1  A    between atoms: CAA_1  and  CAB_2 
REMARK    2  A    between atoms: CAB_2  and  CAC_3 
REMARK    3  A    between atoms: CAC_3  and  NAH_4 
REMARK    4  A    between atoms: NAH_4  and  CAG_5 
REMARK       I    between atoms: NAH_4  and  CAI_8 
REMARK    5  A    between atoms: CAG_5  and  CAF_6 
REMARK    6  A    between atoms: CAF_6  and  CAE_7 
REMARK    7  A    between atoms: CAI_8  and  CAJ_10 
REMARK    8  A    between atoms: CAJ_10  and  OAN_11 
REMARK    9  A    between atoms: CAJ_10  and  CAK_12 
REMARK   10  A    between atoms: CAK_12  and  OAO_13 
REMARK   11  A    between atoms: CAK_12  and  CAL_14 
REMARK   12  A    between atoms: CAL_14  and  OAM_15 
ROOT
ATOM      1  NAH ZZI d   1       4.159 -10.485  30.839  0.00  0.00    -0.350 N 
ATOM      2  CAI ZZI d   1       3.660 -10.705  32.076  0.00  0.00     0.251 C 
ATOM      3  OAD ZZI d   1       3.476 -11.831  32.526  0.00  0.00    -0.270 OA
ENDROOT
BRANCH   1   4
ATOM      4  CAC ZZI d   1       4.455 -11.682  29.986  0.00  0.00    -0.003 C 
ATOM      5  H   ZZI d   1       5.407 -12.080  30.337  0.00  0.00     0.064 H 
ATOM      6  H   ZZI d   1       3.595 -12.346  30.081  0.00  0.00     0.064 H 
BRANCH   4   7
ATOM      7  CAB ZZI d   1       4.629 -11.410  28.474  0.00  0.00    -0.053 C 
ATOM      8  H   ZZI d   1       3.827 -10.732  28.181  0.00  0.00     0.034 H 
ATOM      9  H   ZZI d   1       5.636 -11.015  28.338  0.00  0.00     0.034 H 
BRANCH   7  10
ATOM     10  CAA ZZI d   1       4.512 -12.661  27.569  0.00  0.00    -0.075 C 
ATOM     11  H   ZZI d   1       5.279 -13.383  27.848  0.00  0.00     0.027 H 
ATOM     12  H   ZZI d   1       3.526 -13.109  27.696  0.00  0.00     0.027 H 
ATOM     13  H   ZZI d   1       4.648 -12.369  26.528  0.00  0.00     0.027 H 
ENDBRANCH   7  10
ENDBRANCH   4   7
ENDBRANCH   1   4
BRANCH   1  14
ATOM     14  CAG ZZI d   1       4.354  -9.107  30.297  0.00  0.00    -0.003 C 
ATOM     15  H   ZZI d   1       3.387  -8.605  30.325  0.00  0.00     0.064 H 
ATOM     16  H   ZZI d   1       4.765  -9.206  29.292  0.00  0.00     0.064 H 
BRANCH  14  17
ATOM     17  CAF ZZI d   1       5.339  -8.258  31.116  0.00  0.00    -0.053 C 
ATOM     18  H   ZZI d   1       5.020  -8.263  32.158  0.00  0.00     0.034 H 
ATOM     19  H   ZZI d   1       5.346  -7.246  30.712  0.00  0.00     0.034 H 
BRANCH  17  20
ATOM     20  CAE ZZI d   1       6.762  -8.829  31.035  0.00  0.00    -0.075 C 
ATOM     21  H   ZZI d   1       6.767  -9.846  31.428  0.00  0.00     0.027 H 
ATOM     22  H   ZZI d   1       7.090  -8.838  29.995  0.00  0.00     0.027 H 
ATOM     23  H   ZZI d   1       7.436  -8.207  31.624  0.00  0.00     0.027 H 
ENDBRANCH  17  20
ENDBRANCH  14  17
ENDBRANCH   1  14
BRANCH   2  24
ATOM     24  CAJ ZZI d   1       3.358  -9.503  32.989  0.00  0.00     0.139 C 
ATOM     25  H   ZZI d   1       3.949  -8.653  32.649  0.00  0.00     0.102 H 
BRANCH  24  26
ATOM     26  OAN ZZI d   1       3.764  -9.773  34.367  0.00  0.00    -0.383 OA
ATOM     27  H   ZZI d   1       3.285 -10.537  34.697  0.00  0.00     0.210 HD
ENDBRANCH  24  26
BRANCH  24  28
ATOM     28  CAK ZZI d   1       1.877  -9.098  32.883  0.00  0.00     0.089 C 
ATOM     29  H   ZZI d   1       1.241  -9.971  33.029  0.00  0.00     0.090 H 
BRANCH  28  30
ATOM     30  OAO ZZI d   1       1.716  -8.508  31.599  0.00  0.00    -0.390 OA
ATOM     31  H   ZZI d   1       0.802  -8.237  31.485  0.00  0.00     0.210 HD
ENDBRANCH  28  30
BRANCH  28  32
ATOM     32  CAL ZZI d   1       1.498  -8.066  33.949  0.00  0.00     0.043 C 
ATOM     33  H   ZZI d   1       1.718  -8.475  34.935  0.00  0.00     0.078 H 
ATOM     34  H   ZZI d   1       0.435  -7.839  33.862  0.00  0.00     0.078 H 
BRANCH  32  35
ATOM     35  OAM ZZI d   1       2.251  -6.861  33.764  0.00  0.00    -0.398 OA
ATOM     36  H   ZZI d   1       2.064  -6.498  32.895  0.00  0.00     0.209 HD
ENDBRANCH  32  35
ENDBRANCH  28  32
ENDBRANCH  24  28
ENDBRANCH   2  24
TORSDOF 12
