REMARK  6 active torsions:
REMARK  status: ('A' for Active; 'I' for Inactive)
REMARK    1  A    between atoms: C1_1  and  SE_12 
REMARK    2  A    between atoms: C2_2  and  O2_7 
REMARK    3  A    between atoms: C3_3  and  O3_8 
REMARK    4  A    between atoms: C4_4  and  O4_9 
REMARK    5  A    between atoms: C5_5  and  C6_6 
REMARK    6  A    between atoms: SE_12  and  CM_11 
ROOT
ATOM      1  C1  SFU d   1      11.748  -7.557  -9.624  0.00  0.00     0.093 C 
ATOM      2  C2  SFU d   1      13.024  -6.860  -9.169  0.00  0.00     0.090 C 
ATOM      3  C3  SFU d   1      13.337  -5.690 -10.106  0.00  0.00     0.090 C 
ATOM      4  C4  SFU d   1      12.144  -4.764 -10.211  0.00  0.00     0.087 C 
ATOM      5  C5  SFU d   1      10.881  -5.528 -10.656  0.00  0.00     0.063 C 
ATOM      6  O5  SFU d   1      10.648  -6.635  -9.741  0.00  0.00    -0.373 OA
ATOM      7  H   SFU d   1      11.459  -8.276  -8.858  0.00  0.00     0.091 H 
ATOM      8  H   SFU d   1      12.877  -6.480  -8.158  0.00  0.00     0.091 H 
ATOM      9  H   SFU d   1      13.530  -6.049 -11.117  0.00  0.00     0.091 H 
ATOM     10  H   SFU d   1      12.350  -3.993 -10.953  0.00  0.00     0.091 H 
ATOM     11  H   SFU d   1      11.080  -5.860 -11.675  0.00  0.00     0.086 H 
ENDROOT
BRANCH   1  12
ATOM     12 SE   SFU d   1      12.073  -8.568 -11.306  0.00  0.00     0.000 Se
BRANCH  12  13
ATOM     13  CM  SFU d   1      10.219  -9.128 -11.478  0.00  0.00    -0.080 C 
ATOM     14  H   SFU d   1       9.935  -9.713 -10.603  0.00  0.00     0.027 H 
ATOM     15  H   SFU d   1       9.580  -8.248 -11.552  0.00  0.00     0.027 H 
ATOM     16  H   SFU d   1      10.106  -9.736 -12.375  0.00  0.00     0.027 H 
ENDBRANCH  12  13
ENDBRANCH   1  12
BRANCH   2  17
ATOM     17  O2  SFU d   1      14.122  -7.787  -9.156  0.00  0.00    -0.390 OA
ATOM     18  H   SFU d   1      13.917  -8.516  -8.566  0.00  0.00     0.210 HD
ENDBRANCH   2  17
BRANCH   3  19
ATOM     19  O3  SFU d   1      14.513  -5.036  -9.647  0.00  0.00    -0.390 OA
ATOM     20  H   SFU d   1      14.353  -4.667  -8.775  0.00  0.00     0.210 HD
ENDBRANCH   3  19
BRANCH   5  21
ATOM     21  C6  SFU d   1       9.620  -4.688 -10.704  0.00  0.00    -0.050 C 
ATOM     22  H   SFU d   1       8.790  -5.301 -11.056  0.00  0.00     0.031 H 
ATOM     23  H   SFU d   1       9.397  -4.312  -9.706  0.00  0.00     0.031 H 
ATOM     24  H   SFU d   1       9.769  -3.850 -11.385  0.00  0.00     0.031 H 
ENDBRANCH   5  21
BRANCH   4  25
ATOM     25  O4  SFU d   1      11.914  -4.196  -8.907  0.00  0.00    -0.390 OA
ATOM     26  H   SFU d   1      11.168  -3.593  -8.949  0.00  0.00     0.210 HD
ENDBRANCH   4  25
TORSDOF 6
