REMARK  5 active torsions:
REMARK  status: ('A' for Active; 'I' for Inactive)
REMARK    1  A    between atoms: C7_10  and  C4_8 
REMARK    2  A    between atoms: C8_11  and  C19_14 
REMARK    3  A    between atoms: C22_12  and  N28_27 
REMARK    4  A    between atoms: C12_21  and  C13_20 
REMARK    5  A    between atoms: C12_21  and  N9_26 
ROOT
ATOM      1  C10 QQ1 d   1      36.840  37.591  36.025  0.00  0.00     0.067 A 
ATOM      2  C7  QQ1 d   1      36.005  39.531  35.853  0.00  0.00     0.098 A 
ATOM      3  C8  QQ1 d   1      37.146  39.676  36.580  0.00  0.00     0.101 A 
ATOM      4  N11 QQ1 d   1      35.819  38.198  35.513  0.00  0.00    -0.241 NA
ATOM      5  N9  QQ1 d   1      37.678  38.404  36.684  0.00  0.00    -0.337 N 
ATOM      6  H7  QQ1 d   1      37.004  36.519  35.930  0.00  0.00     0.143 H 
ENDROOT
BRANCH   5   7
ATOM      7  C12 QQ1 d   1      38.907  37.974  37.336  0.00  0.00     0.004 C 
ATOM      8  H19 QQ1 d   1      39.391  37.229  36.688  0.00  0.00     0.065 H 
ATOM      9  H20 QQ1 d   1      39.562  38.852  37.437  0.00  0.00     0.065 H 
BRANCH   7  10
ATOM     10  C13 QQ1 d   1      38.741  37.370  38.682  0.00  0.00    -0.038 C 
ATOM     11  C14 QQ1 d   1      39.859  37.782  39.599  0.00  0.00    -0.060 C 
ATOM     12  C15 QQ1 d   1      39.763  37.038  40.907  0.00  0.00    -0.065 C 
ATOM     13  H14 QQ1 d   1      40.823  37.553  39.121  0.00  0.00     0.033 H 
ATOM     14  H15 QQ1 d   1      39.792  38.863  39.791  0.00  0.00     0.033 H 
ATOM     15  C16 QQ1 d   1      38.427  37.301  41.558  0.00  0.00    -0.065 C 
ATOM     16  H10 QQ1 d   1      39.870  35.959  40.720  0.00  0.00     0.033 H 
ATOM     17  H11 QQ1 d   1      40.567  37.376  41.577  0.00  0.00     0.033 H 
ATOM     18  C17 QQ1 d   1      37.291  37.000  40.628  0.00  0.00    -0.065 C 
ATOM     19  H8  QQ1 d   1      38.376  38.359  41.853  0.00  0.00     0.033 H 
ATOM     20  H9  QQ1 d   1      38.334  36.666  42.452  0.00  0.00     0.033 H 
ATOM     21  C18 QQ1 d   1      37.457  37.767  39.337  0.00  0.00    -0.060 C 
ATOM     22  H12 QQ1 d   1      36.344  37.292  41.105  0.00  0.00     0.033 H 
ATOM     23  H13 QQ1 d   1      37.275  35.922  40.411  0.00  0.00     0.033 H 
ATOM     24  H16 QQ1 d   1      37.473  38.846  39.551  0.00  0.00     0.033 H 
ATOM     25  H17 QQ1 d   1      36.617  37.539  38.665  0.00  0.00     0.033 H 
ATOM     26  H18 QQ1 d   1      38.755  36.276  38.568  0.00  0.00     0.042 H 
ENDBRANCH   7  10
ENDBRANCH   5   7
BRANCH   3  27
ATOM     27  C19 QQ1 d   1      37.757  40.877  37.169  0.00  0.00     0.130 A 
ATOM     28  N20 QQ1 d   1      37.109  41.816  37.816  0.00  0.00    -0.232 NA
ATOM     29  C21 QQ1 d   1      37.949  42.874  38.205  0.00  0.00     0.139 A 
ATOM     30  C22 QQ1 d   1      37.682  44.105  38.895  0.00  0.00     0.154 A 
ATOM     31  C26 QQ1 d   1      39.254  42.678  37.810  0.00  0.00     0.133 A 
ATOM     32  N23 QQ1 d   1      38.714  44.969  39.117  0.00  0.00    -0.222 NA
ATOM     33  C24 QQ1 d   1      39.934  44.628  38.682  0.00  0.00     0.090 A 
ATOM     34  N25 QQ1 d   1      40.264  43.506  38.026  0.00  0.00    -0.232 NA
ATOM     35  H6  QQ1 d   1      40.736  45.330  38.880  0.00  0.00     0.146 H 
ATOM     36  S27 QQ1 d   1      39.456  41.180  36.972  0.00  0.00    -0.046 SA
BRANCH  30  37
ATOM     37  N28 QQ1 d   1      36.483  44.468  39.340  0.00  0.00    -0.382 N 
ATOM     38  H21 QQ1 d   1      36.365  45.368  39.828  0.00  0.00     0.157 HD
ATOM     39  H22 QQ1 d   1      35.672  43.850  39.197  0.00  0.00     0.157 HD
ENDBRANCH  30  37
ENDBRANCH   3  27
BRANCH   2  40
ATOM     40  C4  QQ1 d   1      35.019  40.552  35.427  0.00  0.00    -0.005 A 
ATOM     41  C3  QQ1 d   1      35.439  41.828  35.053  0.00  0.00    -0.071 A 
ATOM     42  C2  QQ1 d   1      34.511  42.790  34.676  0.00  0.00    -0.082 A 
ATOM     43  H4  QQ1 d   1      36.496  42.070  35.056  0.00  0.00     0.084 H 
ATOM     44  C1  QQ1 d   1      33.171  42.490  34.671  0.00  0.00    -0.083 A 
ATOM     45  H2  QQ1 d   1      34.845  43.779  34.385  0.00  0.00     0.083 H 
ATOM     46  C6  QQ1 d   1      32.744  41.234  35.032  0.00  0.00    -0.082 A 
ATOM     47  H1  QQ1 d   1      32.449  43.245  34.382  0.00  0.00     0.083 H 
ATOM     48  C5  QQ1 d   1      33.657  40.267  35.410  0.00  0.00    -0.071 A 
ATOM     49  H3  QQ1 d   1      31.686  41.001  35.020  0.00  0.00     0.083 H 
ATOM     50  H5  QQ1 d   1      33.310  39.281  35.695  0.00  0.00     0.084 H 
ENDBRANCH   2  40
TORSDOF 5
