REMARK  17 active torsions:
REMARK  status: ('A' for Active; 'I' for Inactive)
REMARK    1  A    between atoms: PAD_2  and  OAH_5 
REMARK    2  A    between atoms: OAH_5  and  CAN_6 
REMARK    3  A    between atoms: CAN_6  and  CAM_7 
REMARK    4  A    between atoms: CAN_6  and  CAO_10 
REMARK    5  A    between atoms: CAO_10  and  CAP_11 
REMARK    6  A    between atoms: CAP_11  and  OAW_12 
REMARK    7  A    between atoms: CAP_11  and  CAQ_13 
REMARK    8  A    between atoms: CAQ_13  and  NAI_14 
REMARK    9  A    between atoms: CAQ_13  and  CAR_18 
REMARK       I    between atoms: NAI_14  and  CAF_15 
REMARK   10  A    between atoms: CAF_15  and  CAG_16 
REMARK   11  A    between atoms: CAR_18  and  OAX_19 
REMARK   12  A    between atoms: CAR_18  and  CAS_20 
REMARK   13  A    between atoms: CAS_20  and  OAJ_21 
REMARK   14  A    between atoms: CAS_20  and  CAT_22 
REMARK   15  A    between atoms: CAT_22  and  OAY_23 
REMARK   16  A    between atoms: CAT_22  and  CAU_24 
REMARK   17  A    between atoms: CAU_24  and  OAK_25 
ROOT
ATOM      1  CAQ WQP d   1      96.179 -23.348  51.177  0.00  0.00     0.064 C 
ATOM      2  H6  WQP d   1      97.089 -23.961  51.250  0.00  0.00     0.080 H 
ENDROOT
BRANCH   1   3
ATOM      3  CAP WQP d   1      96.566 -21.873  51.425  0.00  0.00     0.060 C 
ATOM      4  H4  WQP d   1      97.249 -21.558  50.622  0.00  0.00     0.086 H 
BRANCH   3   5
ATOM      5  CAO WQP d   1      97.259 -21.685  52.773  0.00  0.00    -0.005 C 
ATOM      6  H2  WQP d   1      96.515 -21.739  53.581  0.00  0.00     0.041 H 
ATOM      7  H3  WQP d   1      98.012 -22.474  52.914  0.00  0.00     0.041 H 
BRANCH   5   8
ATOM      8  CAN WQP d   1      97.938 -20.320  52.792  0.00  0.00     0.137 C 
ATOM      9  H1  WQP d   1      97.599 -19.755  51.911  0.00  0.00     0.101 H 
BRANCH   8  10
ATOM     10  OAH WQP d   1      97.628 -19.590  53.953  0.00  0.00    -0.266 OA
BRANCH  10  11
ATOM     11  PAD WQP d   1      96.222 -18.883  54.340  0.00  0.00     0.423 P 
ATOM     12  OAE WQP d   1      95.718 -19.739  55.462  0.00  0.00    -0.617 OA
ATOM     13  OAA WQP d   1      96.693 -17.482  54.737  0.00  0.00    -0.617 OA
ATOM     14  OAC WQP d   1      95.371 -19.011  53.095  0.00  0.00    -0.617 OA
ENDBRANCH  10  11
ENDBRANCH   8  10
BRANCH   8  15
ATOM     15  CAM WQP d   1      99.433 -20.459  52.746  0.00  0.00     0.203 C 
ATOM     16  OAV WQP d   1     100.102 -19.670  53.443  0.00  0.00    -0.646 OA
ATOM     17  OAL WQP d   1      99.940 -21.330  52.000  0.00  0.00    -0.646 OA
ENDBRANCH   8  15
ENDBRANCH   5   8
ENDBRANCH   3   5
BRANCH   3  18
ATOM     18  OAW WQP d   1      95.413 -21.013  51.428  0.00  0.00    -0.393 OA
ATOM     19  H5  WQP d   1      94.837 -21.260  52.142  0.00  0.00     0.210 HD
ENDBRANCH   3  18
ENDBRANCH   1   3
BRANCH   1  20
ATOM     20  NAI WQP d   1      95.239 -23.771  52.206  0.00  0.00    -0.352 N 
ATOM     21  CAF WQP d   1      95.559 -24.639  53.165  0.00  0.00     0.214 C 
ATOM     22  OAB WQP d   1      96.661 -25.138  53.259  0.00  0.00    -0.274 OA
ATOM     23  H7  WQP d   1      94.313 -23.393  52.192  0.00  0.00     0.163 HD
BRANCH  21  24
ATOM     24  CAG WQP d   1      94.474 -24.983  54.133  0.00  0.00    -0.003 C 
ATOM     25  H8  WQP d   1      94.856 -25.703  54.872  0.00  0.00     0.040 H 
ATOM     26  H9  WQP d   1      93.627 -25.429  53.591  0.00  0.00     0.040 H 
ATOM     27  H10 WQP d   1      94.140 -24.071  54.649  0.00  0.00     0.040 H 
ENDBRANCH  21  24
ENDBRANCH   1  20
BRANCH   1  28
ATOM     28  CAR WQP d   1      95.557 -23.574  49.789  0.00  0.00     0.084 C 
ATOM     29  H11 WQP d   1      94.549 -23.134  49.809  0.00  0.00     0.090 H 
BRANCH  28  30
ATOM     30  OAX WQP d   1      96.302 -22.930  48.741  0.00  0.00    -0.391 OA
ATOM     31  H12 WQP d   1      95.881 -23.097  47.906  0.00  0.00     0.210 HD
ENDBRANCH  28  30
BRANCH  28  32
ATOM     32  CAS WQP d   1      95.418 -25.054  49.447  0.00  0.00     0.089 C 
ATOM     33  H13 WQP d   1      94.913 -25.558  50.284  0.00  0.00     0.091 H 
BRANCH  32  34
ATOM     34  OAJ WQP d   1      96.732 -25.630  49.275  0.00  0.00    -0.390 OA
ATOM     35  H14 WQP d   1      97.226 -25.534  50.081  0.00  0.00     0.210 HD
ENDBRANCH  32  34
BRANCH  32  36
ATOM     36  CAT WQP d   1      94.590 -25.284  48.171  0.00  0.00     0.083 C 
ATOM     37  H15 WQP d   1      95.188 -24.973  47.301  0.00  0.00     0.090 H 
BRANCH  36  38
ATOM     38  OAY WQP d   1      93.360 -24.537  48.178  0.00  0.00    -0.391 OA
ATOM     39  H16 WQP d   1      92.834 -24.802  48.923  0.00  0.00     0.210 HD
ENDBRANCH  36  38
BRANCH  36  40
ATOM     40  CAU WQP d   1      94.263 -26.763  48.057  0.00  0.00     0.043 C 
ATOM     41  H17 WQP d   1      93.874 -27.124  49.020  0.00  0.00     0.078 H 
ATOM     42  H18 WQP d   1      95.177 -27.318  47.800  0.00  0.00     0.078 H 
BRANCH  40  43
ATOM     43  OAK WQP d   1      93.280 -26.975  47.041  0.00  0.00    -0.398 OA
ATOM     44  H19 WQP d   1      92.489 -26.497  47.263  0.00  0.00     0.209 HD
ENDBRANCH  40  43
ENDBRANCH  36  40
ENDBRANCH  32  36
ENDBRANCH  28  32
ENDBRANCH   1  28
TORSDOF 17
