REMARK  7 active torsions:
REMARK  status: ('A' for Active; 'I' for Inactive)
REMARK    1  A    between atoms: N1_1  and  C8_2 
REMARK    2  A    between atoms: C2_7  and  N1_1 
REMARK    3  A    between atoms: N1_1  and  C9_8 
REMARK    4  A    between atoms: N1_1  and  C10_9 
REMARK    5  A    between atoms: C6_6  and  C5_4 
REMARK    6  A    between atoms: C3_10  and  C6_6 
REMARK    7  A    between atoms: C2_7  and  C3_10 
ROOT
ATOM      1  N1  NM2 d   1       3.121   4.974  -5.961  0.00  0.00    -0.079 N 
ENDROOT
BRANCH   1   2
ATOM      2  C8  NM2 d   1       3.705   4.580  -7.245  0.00  0.00     0.067 C 
ATOM      3  H   NM2 d   1       4.596   5.178  -7.436  0.00  0.00     0.068 H 
ATOM      4  H   NM2 d   1       3.975   3.525  -7.211  0.00  0.00     0.068 H 
ATOM      5  H   NM2 d   1       2.977   4.745  -8.040  0.00  0.00     0.068 H 
ENDBRANCH   1   2
BRANCH   1   6
ATOM      6  C2  NM2 d   1       4.096   4.754  -4.888  0.00  0.00     0.085 C 
ATOM      7  H   NM2 d   1       5.060   5.162  -5.190  0.00  0.00     0.076 H 
ATOM      8  H   NM2 d   1       4.187   3.684  -4.699  0.00  0.00     0.076 H 
BRANCH   6   9
ATOM      9  C3  NM2 d   1       3.635   5.449  -3.616  0.00  0.00    -0.033 C 
ATOM     10  H   NM2 d   1       3.783   6.523  -3.730  0.00  0.00     0.036 H 
ATOM     11  H   NM2 d   1       2.583   5.216  -3.451  0.00  0.00     0.036 H 
BRANCH   9  12
ATOM     12  C6  NM2 d   1       4.436   4.970  -2.414  0.00  0.00     0.017 C 
ATOM     13  H   NM2 d   1       5.343   4.473  -2.759  0.00  0.00     0.049 H 
ATOM     14  H   NM2 d   1       4.699   5.825  -1.792  0.00  0.00     0.049 H 
BRANCH  12  15
ATOM     15  C5  NM2 d   1       3.612   4.001  -1.608  0.00  0.00     0.172 C 
ATOM     16  O4  NM2 d   1       3.749   3.999  -0.371  0.00  0.00    -0.648 OA
ATOM     17  O7  NM2 d   1       2.827   3.235  -2.199  0.00  0.00    -0.648 OA
ENDBRANCH  12  15
ENDBRANCH   9  12
ENDBRANCH   6   9
ENDBRANCH   1   6
BRANCH   1  18
ATOM     18  C9  NM2 d   1       1.917   4.170  -5.712  0.00  0.00     0.067 C 
ATOM     19  H   NM2 d   1       2.187   3.114  -5.680  0.00  0.00     0.068 H 
ATOM     20  H   NM2 d   1       1.477   4.463  -4.759  0.00  0.00     0.068 H 
ATOM     21  H   NM2 d   1       1.197   4.338  -6.513  0.00  0.00     0.068 H 
ENDBRANCH   1  18
BRANCH   1  22
ATOM     22  C10 NM2 d   1       2.773   6.396  -6.008  0.00  0.00     0.067 C 
ATOM     23  H   NM2 d   1       2.342   6.695  -5.053  0.00  0.00     0.068 H 
ATOM     24  H   NM2 d   1       3.671   6.982  -6.202  0.00  0.00     0.068 H 
ATOM     25  H   NM2 d   1       2.048   6.565  -6.804  0.00  0.00     0.068 H 
ENDBRANCH   1  22
TORSDOF 7
