REMARK  7 active torsions:
REMARK  status: ('A' for Active; 'I' for Inactive)
REMARK    1  A    between atoms: C01_1  and  O02_2 
REMARK    2  A    between atoms: O02_2  and  C03_3 
REMARK    3  A    between atoms: C05_5  and  C06_6 
REMARK    4  A    between atoms: C09_9  and  N10_10 
REMARK    5  A    between atoms: C11_11  and  C12_12 
REMARK    6  A    between atoms: C15_15  and  C16_16 
REMARK       I    between atoms: C16_16  and  N17_17 
REMARK    7  A    between atoms: C24_24  and  O25_25 
ROOT
ATOM      1  C06 VGM d   1      -9.106  49.662   9.537  0.00  0.00    -0.007 A 
ATOM      2  C07 VGM d   1     -10.158  49.893  10.453  0.00  0.00     0.015 A 
ATOM      3  N08 VGM d   1     -11.576  49.616  10.086  0.00  0.00    -0.242 NA
ATOM      4  C09 VGM d   1     -11.905  49.120   8.771  0.00  0.00     0.132 A 
ATOM      5  C11 VGM d   1     -10.848  48.892   7.821  0.00  0.00     0.020 A 
ATOM      6  C21 VGM d   1      -9.444  49.147   8.194  0.00  0.00    -0.056 A 
ATOM      7  H5  VGM d   1      -9.929  50.279  11.440  0.00  0.00     0.116 H 
ATOM      8  H14 VGM d   1      -8.654  48.955   7.477  0.00  0.00     0.086 H 
ENDROOT
BRANCH   1   9
ATOM      9  C05 VGM d   1      -7.748  49.856   9.951  0.00  0.00    -0.022 A 
ATOM     10  C04 VGM d   1      -7.464  50.272  11.289  0.00  0.00    -0.037 A 
ATOM     11  C03 VGM d   1      -6.049  50.429  11.742  0.00  0.00     0.102 A 
ATOM     12  H4  VGM d   1      -8.277  50.474  11.976  0.00  0.00     0.089 H 
ATOM     13  C24 VGM d   1      -4.959  50.139  10.828  0.00  0.00     0.099 A 
ATOM     14  C23 VGM d   1      -5.239  49.701   9.499  0.00  0.00    -0.047 A 
ATOM     15  C22 VGM d   1      -6.650  49.547   9.045  0.00  0.00    -0.069 A 
ATOM     16  H16 VGM d   1      -4.424  49.480   8.819  0.00  0.00     0.087 H 
ATOM     17  H15 VGM d   1      -6.860  49.204   8.038  0.00  0.00     0.085 H 
BRANCH  11  18
ATOM     18  O02 VGM d   1      -5.734  50.849  13.088  0.00  0.00    -0.353 OA
BRANCH  18  19
ATOM     19  C01 VGM d   1      -4.963  50.007  13.956  0.00  0.00     0.010 C 
ATOM     20  H1  VGM d   1      -4.834  50.504  14.929  0.00  0.00     0.066 H 
ATOM     21  H2  VGM d   1      -3.977  49.821  13.505  0.00  0.00     0.066 H 
ATOM     22  H3  VGM d   1      -5.487  49.050  14.099  0.00  0.00     0.066 H 
ENDBRANCH  18  19
ENDBRANCH  11  18
BRANCH  13  23
ATOM     23  O25 VGM d   1      -3.629  50.316  11.262  0.00  0.00    -0.358 OA
ATOM     24  H17 VGM d   1      -3.628  50.609  12.166  0.00  0.00     0.217 HD
ENDBRANCH  13  23
ENDBRANCH   1   9
BRANCH   5  25
ATOM     25  C12 VGM d   1     -11.151  48.371   6.527  0.00  0.00    -0.022 A 
ATOM     26  C13 VGM d   1     -10.258  47.331   5.977  0.00  0.00    -0.071 A 
ATOM     27  C14 VGM d   1     -10.502  46.763   4.631  0.00  0.00    -0.067 A 
ATOM     28  H8  VGM d   1      -9.417  46.980   6.564  0.00  0.00     0.084 H 
ATOM     29  C15 VGM d   1     -11.634  47.227   3.830  0.00  0.00     0.031 A 
ATOM     30  H9  VGM d   1      -9.839  46.001   4.238  0.00  0.00     0.085 H 
ATOM     31  C19 VGM d   1     -12.534  48.273   4.386  0.00  0.00    -0.067 A 
ATOM     32  C20 VGM d   1     -12.296  48.845   5.731  0.00  0.00    -0.071 A 
ATOM     33  H12 VGM d   1     -13.376  48.621   3.798  0.00  0.00     0.085 H 
ATOM     34  H13 VGM d   1     -12.959  49.606   6.126  0.00  0.00     0.084 H 
BRANCH  29  35
ATOM     35  C16 VGM d   1     -11.839  46.616   2.400  0.00  0.00     0.249 C 
ATOM     36  N17 VGM d   1     -10.731  45.954   1.773  0.00  0.00    -0.366 N 
ATOM     37  H10 VGM d   1     -10.837  45.556   0.862  0.00  0.00     0.159 HD
ATOM     38  H11 VGM d   1      -9.853  45.890   2.248  0.00  0.00     0.159 HD
ATOM     39  O18 VGM d   1     -12.808  46.833   1.736  0.00  0.00    -0.268 OA
ENDBRANCH  29  35
ENDBRANCH   5  25
BRANCH   4  40
ATOM     40  N10 VGM d   1     -13.278  48.878   8.442  0.00  0.00    -0.383 N 
ATOM     41  H6  VGM d   1     -13.529  48.524   7.508  0.00  0.00     0.157 HD
ATOM     42  H7  VGM d   1     -14.014  49.058   9.140  0.00  0.00     0.157 HD
ENDBRANCH   4  40
TORSDOF 7
