REMARK  4 active torsions:
REMARK  status: ('A' for Active; 'I' for Inactive)
REMARK       I    between atoms: N01_1  and  C02_2 
REMARK    1  A    between atoms: C02_2  and  C04_4 
REMARK    2  A    between atoms: C07_7  and  C08_8 
REMARK    3  A    between atoms: C10_10  and  C11_11 
REMARK    4  A    between atoms: C22_22  and  N23_23 
ROOT
ATOM      1  C08 ZZK d   1      37.116 -33.611   7.677  0.00  0.00     0.020 A 
ATOM      2  C09 ZZK d   1      37.990 -32.618   7.297  0.00  0.00    -0.056 A 
ATOM      3  C10 ZZK d   1      38.570 -32.618   6.046  0.00  0.00    -0.004 A 
ATOM      4  C20 ZZK d   1      38.251 -33.644   5.149  0.00  0.00     0.015 A 
ATOM      5  N21 ZZK d   1      37.375 -34.630   5.520  0.00  0.00    -0.242 NA
ATOM      6  C22 ZZK d   1      36.798 -34.625   6.762  0.00  0.00     0.132 A 
ATOM      7  H5  ZZK d   1      38.227 -31.822   7.994  0.00  0.00     0.086 H 
ATOM      8  H11 ZZK d   1      38.697 -33.658   4.161  0.00  0.00     0.116 H 
ENDROOT
BRANCH   1   9
ATOM      9  C07 ZZK d   1      36.526 -33.575   8.942  0.00  0.00    -0.022 A 
ATOM     10  C06 ZZK d   1      36.068 -32.352   9.462  0.00  0.00    -0.071 A 
ATOM     11  C05 ZZK d   1      35.480 -32.295  10.735  0.00  0.00    -0.067 A 
ATOM     12  H4  ZZK d   1      36.170 -31.446   8.875  0.00  0.00     0.084 H 
ATOM     13  C04 ZZK d   1      35.342 -33.465  11.503  0.00  0.00     0.031 A 
ATOM     14  H3  ZZK d   1      35.131 -31.347  11.127  0.00  0.00     0.085 H 
ATOM     15  C25 ZZK d   1      35.801 -34.687  10.988  0.00  0.00    -0.067 A 
ATOM     16  C24 ZZK d   1      36.389 -34.740   9.715  0.00  0.00    -0.071 A 
ATOM     17  H15 ZZK d   1      35.701 -35.593  11.575  0.00  0.00     0.085 H 
ATOM     18  H14 ZZK d   1      36.741 -35.688   9.325  0.00  0.00     0.084 H 
BRANCH  13  19
ATOM     19  C02 ZZK d   1      34.761 -33.372  12.921  0.00  0.00     0.249 C 
ATOM     20  N01 ZZK d   1      35.078 -32.201  13.716  0.00  0.00    -0.366 N 
ATOM     21  H1  ZZK d   1      35.583 -31.441  13.307  0.00  0.00     0.159 HD
ATOM     22  H2  ZZK d   1      34.792 -32.154  14.673  0.00  0.00     0.159 HD
ATOM     23  O03 ZZK d   1      34.159 -34.268  13.426  0.00  0.00    -0.268 OA
ENDBRANCH  13  19
ENDBRANCH   1   9
BRANCH   6  24
ATOM     24  N23 ZZK d   1      35.864 -35.677   7.112  0.00  0.00    -0.383 N 
ATOM     25  H12 ZZK d   1      35.640 -36.415   6.429  0.00  0.00     0.157 HD
ATOM     26  H13 ZZK d   1      35.424 -35.686   8.043  0.00  0.00     0.157 HD
ENDBRANCH   6  24
BRANCH   3  27
ATOM     27  C11 ZZK d   1      39.401 -31.568   5.653  0.00  0.00     0.012 A 
ATOM     28  C12 ZZK d   1      39.419 -30.395   6.427  0.00  0.00    -0.069 A 
ATOM     29  C13 ZZK d   1      40.207 -29.297   6.052  0.00  0.00    -0.079 A 
ATOM     30  H6  ZZK d   1      38.816 -30.338   7.326  0.00  0.00     0.085 H 
ATOM     31  C14 ZZK d   1      40.947 -29.352   4.865  0.00  0.00    -0.048 A 
ATOM     32  H7  ZZK d   1      40.243 -28.412   6.677  0.00  0.00     0.083 H 
ATOM     33  C15 ZZK d   1      40.903 -30.498   4.058  0.00  0.00     0.105 A 
ATOM     34  H8  ZZK d   1      41.556 -28.506   4.569  0.00  0.00     0.087 H 
ATOM     35  O16 ZZK d   1      41.540 -30.810   2.809  0.00  0.00    -0.323 OA
ATOM     36  C19 ZZK d   1      40.115 -31.603   4.440  0.00  0.00     0.116 A 
ATOM     37  C17 ZZK d   1      40.979 -32.058   2.389  0.00  0.00     0.115 C 
ATOM     38  O18 ZZK d   1      40.245 -32.552   3.519  0.00  0.00    -0.322 OA
ATOM     39  H9  ZZK d   1      41.776 -32.763   2.111  0.00  0.00     0.118 H 
ATOM     40  H10 ZZK d   1      40.307 -31.907   1.531  0.00  0.00     0.118 H 
ENDBRANCH   3  27
TORSDOF 4
