REMARK  3 active torsions:
REMARK  status: ('A' for Active; 'I' for Inactive)
REMARK       I    between atoms: N01_1  and  C02_2 
REMARK    1  A    between atoms: C02_2  and  C04_4 
REMARK    2  A    between atoms: C07_7  and  C08_8 
REMARK    3  A    between atoms: C22_22  and  N23_23 
ROOT
ATOM      1  C08 WTI d   1     -47.738  15.187  -7.619  0.00  0.00     0.020 A 
ATOM      2  C09 WTI d   1     -47.244  16.457  -7.192  0.00  0.00    -0.056 A 
ATOM      3  C10 WTI d   1     -47.629  16.976  -5.909  0.00  0.00    -0.002 A 
ATOM      4  C11 WTI d   1     -47.120  18.210  -5.466  0.00  0.00     0.021 A 
ATOM      5  S12 WTI d   1     -46.026  19.125  -6.259  0.00  0.00    -0.128 SA
ATOM      6  C13 WTI d   1     -45.723  20.372  -5.361  0.00  0.00     0.008 A 
ATOM      7  C14 WTI d   1     -46.568  20.254  -4.068  0.00  0.00     0.076 A 
ATOM      8  O15 WTI d   1     -46.678  21.080  -2.901  0.00  0.00    -0.380 OA
ATOM      9  C16 WTI d   1     -47.817  20.753  -2.064  0.00  0.00     0.040 C 
ATOM     10  C17 WTI d   1     -48.026  19.228  -1.863  0.00  0.00     0.040 C 
ATOM     11  O18 WTI d   1     -48.324  18.531  -3.095  0.00  0.00    -0.376 OA
ATOM     12  C19 WTI d   1     -47.442  18.879  -4.160  0.00  0.00     0.096 A 
ATOM     13  C20 WTI d   1     -48.537  16.238  -5.050  0.00  0.00     0.015 A 
ATOM     14  N21 WTI d   1     -49.042  14.969  -5.486  0.00  0.00    -0.242 NA
ATOM     15  C22 WTI d   1     -48.663  14.441  -6.753  0.00  0.00     0.132 A 
ATOM     16  H5  WTI d   1     -46.581  17.027  -7.833  0.00  0.00     0.086 H 
ATOM     17  H6  WTI d   1     -45.992  21.293  -5.899  0.00  0.00     0.053 H 
ATOM     18  H7  WTI d   1     -44.653  20.396  -5.106  0.00  0.00     0.053 H 
ATOM     19  H8  WTI d   1     -47.363  20.860  -4.527  0.00  0.00     0.089 H 
ATOM     20  H9  WTI d   1     -48.722  21.169  -2.531  0.00  0.00     0.077 H 
ATOM     21  H10 WTI d   1     -47.667  21.216  -1.077  0.00  0.00     0.077 H 
ATOM     22  H11 WTI d   1     -48.862  19.078  -1.164  0.00  0.00     0.077 H 
ATOM     23  H12 WTI d   1     -47.108  18.802  -1.433  0.00  0.00     0.077 H 
ATOM     24  H13 WTI d   1     -46.664  18.284  -3.659  0.00  0.00     0.096 H 
ATOM     25  H14 WTI d   1     -48.831  16.642  -4.088  0.00  0.00     0.116 H 
ENDROOT
BRANCH   1  26
ATOM     26  C07 WTI d   1     -47.337  14.716  -8.881  0.00  0.00    -0.022 A 
ATOM     27  C06 WTI d   1     -46.270  15.425  -9.564  0.00  0.00    -0.071 A 
ATOM     28  C05 WTI d   1     -45.880  15.024 -10.891  0.00  0.00    -0.067 A 
ATOM     29  H4  WTI d   1     -45.769  16.253  -9.077  0.00  0.00     0.084 H 
ATOM     30  C04 WTI d   1     -46.549  13.889 -11.536  0.00  0.00     0.031 A 
ATOM     31  H3  WTI d   1     -45.094  15.559 -11.412  0.00  0.00     0.085 H 
ATOM     32  C25 WTI d   1     -47.610  13.179 -10.863  0.00  0.00    -0.067 A 
ATOM     33  C24 WTI d   1     -48.006  13.586  -9.531  0.00  0.00    -0.071 A 
ATOM     34  H18 WTI d   1     -48.106  12.348 -11.351  0.00  0.00     0.085 H 
ATOM     35  H17 WTI d   1     -48.797  13.055  -9.015  0.00  0.00     0.084 H 
BRANCH  30  36
ATOM     36  C02 WTI d   1     -46.106  13.479 -12.948  0.00  0.00     0.249 C 
ATOM     37  N01 WTI d   1     -45.148  14.320 -13.652  0.00  0.00    -0.366 N 
ATOM     38  H1  WTI d   1     -44.808  15.157 -13.223  0.00  0.00     0.159 HD
ATOM     39  H2  WTI d   1     -44.830  14.061 -14.564  0.00  0.00     0.159 HD
ATOM     40  O03 WTI d   1     -46.517  12.483 -13.447  0.00  0.00    -0.268 OA
ENDBRANCH  30  36
ENDBRANCH   1  26
BRANCH  15  41
ATOM     41  N23 WTI d   1     -49.233  13.165  -7.167  0.00  0.00    -0.383 N 
ATOM     42  H15 WTI d   1     -49.879  12.662  -6.542  0.00  0.00     0.157 HD
ATOM     43  H16 WTI d   1     -48.990  12.766  -8.085  0.00  0.00     0.157 HD
ENDBRANCH  15  41
TORSDOF 3
