REMARK  7 active torsions:
REMARK  status: ('A' for Active; 'I' for Inactive)
REMARK    1  A    between atoms: C01_1  and  N02_2 
REMARK    2  A    between atoms: N02_2  and  C03_3 
REMARK    3  A    between atoms: N02_2  and  C04_4 
REMARK    4  A    between atoms: C04_4  and  C05_5 
REMARK    5  A    between atoms: C05_5  and  N06_6 
REMARK       I    between atoms: N06_6  and  C07_7 
REMARK    6  A    between atoms: C07_7  and  C09_9 
REMARK    7  A    between atoms: C23_23  and  N24_24 
ROOT
ATOM      1  C09 WTJ d   1      10.669 -48.911   8.061  0.00  0.00     0.078 A 
ATOM      2  C10 WTJ d   1       9.361 -49.121   8.557  0.00  0.00    -0.052 A 
ATOM      3  C11 WTJ d   1       9.185 -49.623   9.869  0.00  0.00    -0.002 A 
ATOM      4  C12 WTJ d   1       7.910 -49.816  10.417  0.00  0.00     0.021 A 
ATOM      5  S13 WTJ d   1       6.491 -49.346   9.789  0.00  0.00    -0.128 SA
ATOM      6  C14 WTJ d   1       5.360 -49.788  10.800  0.00  0.00     0.008 A 
ATOM      7  C15 WTJ d   1       6.037 -50.493  12.011  0.00  0.00     0.076 A 
ATOM      8  O16 WTJ d   1       5.525 -51.059  13.215  0.00  0.00    -0.380 OA
ATOM      9  C17 WTJ d   1       6.450 -51.949  13.860  0.00  0.00     0.040 C 
ATOM     10  C18 WTJ d   1       7.878 -51.367  14.002  0.00  0.00     0.040 C 
ATOM     11  O19 WTJ d   1       8.511 -51.075  12.723  0.00  0.00    -0.376 OA
ATOM     12  C20 WTJ d   1       7.632 -50.495  11.759  0.00  0.00     0.096 A 
ATOM     13  C21 WTJ d   1      10.356 -49.931  10.691  0.00  0.00     0.015 A 
ATOM     14  N22 WTJ d   1      11.660 -49.732  10.192  0.00  0.00    -0.242 NA
ATOM     15  C23 WTJ d   1      11.841 -49.232   8.886  0.00  0.00     0.136 A 
ATOM     16  H13 WTJ d   1       8.500 -48.899   7.937  0.00  0.00     0.086 H 
ATOM     17  H14 WTJ d   1       4.668 -50.484  10.303  0.00  0.00     0.053 H 
ATOM     18  H15 WTJ d   1       4.805 -48.904  11.147  0.00  0.00     0.053 H 
ATOM     19  H16 WTJ d   1       5.895 -51.472  11.530  0.00  0.00     0.089 H 
ATOM     20  H17 WTJ d   1       6.510 -52.875  13.270  0.00  0.00     0.077 H 
ATOM     21  H18 WTJ d   1       6.067 -52.179  14.865  0.00  0.00     0.077 H 
ATOM     22  H19 WTJ d   1       8.500 -52.096  14.541  0.00  0.00     0.077 H 
ATOM     23  H20 WTJ d   1       7.819 -50.435  14.583  0.00  0.00     0.077 H 
ATOM     24  H21 WTJ d   1       7.765 -49.533  12.277  0.00  0.00     0.096 H 
ATOM     25  H22 WTJ d   1      10.220 -50.316  11.695  0.00  0.00     0.116 H 
ENDROOT
BRANCH   1  26
ATOM     26  C07 WTJ d   1      10.843 -48.327   6.640  0.00  0.00     0.255 C 
ATOM     27  N06 WTJ d   1       9.643 -47.814   5.970  0.00  0.00    -0.355 N 
ATOM     28  H12 WTJ d   1       8.768 -47.813   6.454  0.00  0.00     0.162 HD
ATOM     29  O08 WTJ d   1      11.916 -48.250   6.131  0.00  0.00    -0.268 OA
BRANCH  27  30
ATOM     30  C05 WTJ d   1       9.714 -47.297   4.581  0.00  0.00     0.018 C 
ATOM     31  H10 WTJ d   1      10.639 -46.709   4.489  0.00  0.00     0.066 H 
ATOM     32  H11 WTJ d   1       9.760 -48.162   3.904  0.00  0.00     0.066 H 
BRANCH  30  33
ATOM     33  C04 WTJ d   1       8.543 -46.404   4.123  0.00  0.00     0.097 C 
ATOM     34  H8  WTJ d   1       7.615 -46.887   4.463  0.00  0.00     0.078 H 
ATOM     35  H9  WTJ d   1       8.658 -45.434   4.629  0.00  0.00     0.078 H 
BRANCH  33  36
ATOM     36  N02 WTJ d   1       8.388 -46.129   2.688  0.00  0.00    -0.077 N 
ATOM     37  H4  WTJ d   1       9.009 -45.371   2.453  0.00  0.00     0.279 HD
BRANCH  36  38
ATOM     38  C01 WTJ d   1       7.026 -45.685   2.409  0.00  0.00     0.066 C 
ATOM     39  H1  WTJ d   1       6.920 -45.482   1.333  0.00  0.00     0.068 H 
ATOM     40  H2  WTJ d   1       6.816 -44.767   2.978  0.00  0.00     0.068 H 
ATOM     41  H3  WTJ d   1       6.316 -46.471   2.705  0.00  0.00     0.068 H 
ENDBRANCH  36  38
BRANCH  36  42
ATOM     42  C03 WTJ d   1       8.775 -47.273   1.872  0.00  0.00     0.066 C 
ATOM     43  H5  WTJ d   1       9.806 -47.568   2.119  0.00  0.00     0.068 H 
ATOM     44  H6  WTJ d   1       8.717 -47.001   0.808  0.00  0.00     0.068 H 
ATOM     45  H7  WTJ d   1       8.095 -48.114   2.073  0.00  0.00     0.068 H 
ENDBRANCH  36  42
ENDBRANCH  33  36
ENDBRANCH  30  33
ENDBRANCH  27  30
ENDBRANCH   1  26
BRANCH  15  46
ATOM     46  N24 WTJ d   1      13.189 -49.067   8.377  0.00  0.00    -0.383 N 
ATOM     47  H23 WTJ d   1      13.996 -49.298   8.973  0.00  0.00     0.157 HD
ATOM     48  H24 WTJ d   1      13.339 -48.718   7.419  0.00  0.00     0.157 HD
ENDBRANCH  15  46
TORSDOF 7
