REMARK  4 active torsions:
REMARK  status: ('A' for Active; 'I' for Inactive)
REMARK    1  A    between atoms: C15_2  and  C16_23 
REMARK    2  A    between atoms: C04_13  and  C02_11 
REMARK    3  A    between atoms: N08_17  and  C07_16 
REMARK    4  A    between atoms: C09_18  and  N08_17 
ROOT
ATOM      1  C13 ZZL d   1      14.560  62.259  66.308  0.00  0.00     0.110 C 
ATOM      2  C15 ZZL d   1      14.730  63.907  64.439  0.00  0.00     0.159 C 
ATOM      3  C24 ZZL d   1      15.054  63.144  63.169  0.00  0.00    -0.009 A 
ATOM      4  C26 ZZL d   1      15.949  63.013  60.911  0.00  0.00     0.034 A 
ATOM      5  C28 ZZL d   1      15.624  61.647  60.837  0.00  0.00    -0.061 A 
ATOM      6  C09 ZZL d   1      12.873  58.989  64.172  0.00  0.00     0.727 A 
ATOM      7  N10 ZZL d   1      12.725  59.144  65.551  0.00  0.00    -0.074 NA
ATOM      8  C11 ZZL d   1      13.269  60.214  66.175  0.00  0.00     0.031 A 
ATOM      9  C12 ZZL d   1      13.951  61.135  65.452  0.00  0.00     0.016 A 
ATOM     10  N14 ZZL d   1      14.812  63.528  65.651  0.00  0.00    -0.059 N 
ATOM     11  C25 ZZL d   1      15.660  63.759  62.071  0.00  0.00    -0.053 A 
ATOM     12 CL1  ZZL d   1      16.731  63.811  59.526  0.00  0.00    -0.084 Cl
ATOM     13  C29 ZZL d   1      15.013  61.028  61.933  0.00  0.00    -0.069 A 
ATOM     14  C30 ZZL d   1      14.735  61.781  63.092  0.00  0.00     0.003 A 
ATOM     15  C31 ZZL d   1      14.113  60.967  64.061  0.00  0.00     0.096 A 
ATOM     16  N32 ZZL d   1      13.584  59.926  63.443  0.00  0.00    -0.061 NA
ATOM     17  H1  ZZL d   1      15.520  61.893  66.701  0.00  0.00     0.083 H 
ATOM     18  H2  ZZL d   1      13.870  62.450  67.144  0.00  0.00     0.083 H 
ATOM     19  H3  ZZL d   1      13.702  63.516  64.428  0.00  0.00     0.100 H 
ATOM     20  H6  ZZL d   1      15.845  61.079  59.940  0.00  0.00     0.086 H 
ATOM     21  H10 ZZL d   1      13.160  60.334  67.247  0.00  0.00     0.116 H 
ATOM     22  H11 ZZL d   1      15.770  63.729  65.893  0.00  0.00     0.278 HD
ATOM     23  H12 ZZL d   1      14.201  64.166  66.136  0.00  0.00     0.278 HD
ATOM     24  H14 ZZL d   1      15.909  64.813  62.111  0.00  0.00     0.087 H 
ATOM     25  H15 ZZL d   1      14.755  59.976  61.891  0.00  0.00     0.085 H 
ENDROOT
BRANCH   6  26
ATOM     26  N08 ZZL d   1      12.307  57.833  63.496  0.00  0.00    -0.188 N 
ATOM     27  H9  ZZL d   1      11.942  57.177  64.201  0.00  0.00     0.184 HD
BRANCH  26  28
ATOM     28  C07 ZZL d   1      12.077  57.281  62.172  0.00  0.00     0.049 A 
ATOM     29  C06 ZZL d   1      12.499  58.001  61.048  0.00  0.00    -0.056 A 
ATOM     30  C05 ZZL d   1      12.358  57.460  59.766  0.00  0.00    -0.064 A 
ATOM     31  H8  ZZL d   1      12.938  58.984  61.172  0.00  0.00     0.087 H 
ATOM     32  C04 ZZL d   1      11.799  56.188  59.609  0.00  0.00     0.041 A 
ATOM     33  H7  ZZL d   1      12.681  58.024  58.898  0.00  0.00     0.085 H 
ATOM     34  C34 ZZL d   1      11.385  55.460  60.729  0.00  0.00    -0.064 A 
ATOM     35  C33 ZZL d   1      11.533  56.001  62.015  0.00  0.00    -0.056 A 
ATOM     36  H17 ZZL d   1      10.949  54.476  60.603  0.00  0.00     0.085 H 
ATOM     37  H16 ZZL d   1      11.227  55.430  62.884  0.00  0.00     0.087 H 
BRANCH  32  38
ATOM     38  C02 ZZL d   1      11.637  55.583  58.217  0.00  0.00     0.209 C 
ATOM     39  O01 ZZL d   1      11.975  56.188  57.255  0.00  0.00    -0.644 OA
ATOM     40  O03 ZZL d   1      11.080  54.304  58.079  0.00  0.00    -0.644 OA
ENDBRANCH  32  38
ENDBRANCH  26  28
ENDBRANCH   6  26
BRANCH   2  41
ATOM     41  C16 ZZL d   1      14.263  65.308  64.045  0.00  0.00     0.054 A 
ATOM     42  C17 ZZL d   1      13.186  65.463  63.160  0.00  0.00     0.128 A 
ATOM     43  F18 ZZL d   1      12.522  64.361  62.701  0.00  0.00    -0.205 F 
ATOM     44  C19 ZZL d   1      12.766  66.743  62.766  0.00  0.00    -0.045 A 
ATOM     45  C20 ZZL d   1      13.429  67.873  63.254  0.00  0.00    -0.077 A 
ATOM     46  H13 ZZL d   1      11.930  66.855  62.085  0.00  0.00     0.088 H 
ATOM     47  C21 ZZL d   1      14.501  67.720  64.137  0.00  0.00    -0.045 A 
ATOM     48  H4  ZZL d   1      13.113  68.864  62.949  0.00  0.00     0.083 H 
ATOM     49  C22 ZZL d   1      14.919  66.444  64.530  0.00  0.00     0.128 A 
ATOM     50  H5  ZZL d   1      15.012  68.596  64.520  0.00  0.00     0.088 H 
ATOM     51  F23 ZZL d   1      15.951  66.323  65.412  0.00  0.00    -0.205 F 
ENDBRANCH   2  41
TORSDOF 4
