REMARK  13 active torsions:
REMARK  status: ('A' for Active; 'I' for Inactive)
REMARK    1  A    between atoms: PBA_2  and  OAW_5 
REMARK    2  A    between atoms: OAW_5  and  CAG_6 
REMARK    3  A    between atoms: CAG_6  and  CAF_7 
REMARK    4  A    between atoms: CAE_9  and  OAU_10 
REMARK    5  A    between atoms: CAC_11  and  OAP_12 
REMARK    6  A    between atoms: CAB_13  and  OAO_14 
REMARK    7  A    between atoms: CAA_15  and  NAN_16 
REMARK    8  A    between atoms: NAN_16  and  CAM_17 
REMARK    9  A    between atoms: CAJ_19  and  OAT_20 
REMARK   10  A    between atoms: CAI_21  and  OAS_22 
REMARK   11  A    between atoms: CAH_23  and  OAR_24 
REMARK   12  A    between atoms: CAK_25  and  CAD_26 
REMARK   13  A    between atoms: CAD_26  and  OAQ_27 
ROOT
ATOM      1  CAF VDO d   1      21.854 -14.080  78.992  0.00  0.00    -0.004 C 
ATOM      2  CAV VDO d   1      21.500 -12.616  78.697  0.00  0.00    -0.028 C 
ATOM      3  CAE VDO d   1      21.230 -15.010  77.934  0.00  0.00     0.068 C 
ATOM      4  CAC VDO d   1      19.703 -14.947  78.081  0.00  0.00     0.087 C 
ATOM      5  CAB VDO d   1      19.213 -13.498  77.822  0.00  0.00     0.090 C 
ATOM      6  CAA VDO d   1      19.980 -12.370  78.599  0.00  0.00     0.130 C 
ATOM      7  H   VDO d   1      21.445 -14.385  79.955  0.00  0.00     0.047 H 
ATOM      8  H   VDO d   1      21.941 -12.356  77.735  0.00  0.00     0.036 H 
ATOM      9  H   VDO d   1      21.882 -12.010  79.519  0.00  0.00     0.036 H 
ATOM     10  H   VDO d   1      21.489 -14.683  76.927  0.00  0.00     0.087 H 
ATOM     11  H   VDO d   1      19.436 -15.250  79.093  0.00  0.00     0.091 H 
ATOM     12  H   VDO d   1      19.442 -13.325  76.770  0.00  0.00     0.090 H 
ATOM     13  H   VDO d   1      19.786 -11.498  77.974  0.00  0.00     0.088 H 
ENDROOT
BRANCH   6  14
ATOM     14  NAN VDO d   1      19.466 -12.070  79.961  0.00  0.00    -0.058 N 
ATOM     15  H   VDO d   1      20.066 -11.321  80.308  0.00  0.00     0.278 HD
ATOM     16  H   VDO d   1      19.464 -12.968  80.444  0.00  0.00     0.278 HD
BRANCH  14  17
ATOM     17  CAM VDO d   1      18.087 -11.554  80.113  0.00  0.00     0.146 C 
ATOM     18  CAL VDO d   1      17.566 -12.182  81.416  0.00  0.00    -0.064 C 
ATOM     19  CAK VDO d   1      17.159 -11.452  82.524  0.00  0.00    -0.027 C 
ATOM     20  H   VDO d   1      17.513 -13.269  81.473  0.00  0.00     0.080 H 
ATOM     21  CAH VDO d   1      17.080  -9.921  82.511  0.00  0.00     0.086 C 
ATOM     22  CAI VDO d   1      18.082  -9.343  81.513  0.00  0.00     0.091 C 
ATOM     23  H   VDO d   1      16.069  -9.643  82.214  0.00  0.00     0.094 H 
ATOM     24  CAJ VDO d   1      18.007  -9.991  80.128  0.00  0.00     0.093 C 
ATOM     25  H   VDO d   1      19.082  -9.530  81.903  0.00  0.00     0.091 H 
ATOM     26  H   VDO d   1      17.018  -9.786  79.719  0.00  0.00     0.090 H 
ATOM     27  H   VDO d   1      17.472 -11.828  79.256  0.00  0.00     0.095 H 
BRANCH  19  28
ATOM     28  CAD VDO d   1      16.677 -12.213  83.751  0.00  0.00     0.039 C 
ATOM     29  H   VDO d   1      16.898 -11.644  84.654  0.00  0.00     0.081 H 
ATOM     30  H   VDO d   1      17.186 -13.174  83.818  0.00  0.00     0.081 H 
BRANCH  28  31
ATOM     31  OAQ VDO d   1      15.272 -12.413  83.632  0.00  0.00    -0.397 OA
ATOM     32  H   VDO d   1      15.088 -12.919  82.837  0.00  0.00     0.209 HD
ENDBRANCH  28  31
ENDBRANCH  19  28
BRANCH  21  33
ATOM     33  OAR VDO d   1      17.353  -9.381  83.822  0.00  0.00    -0.388 OA
ATOM     34  H   VDO d   1      17.269  -8.425  83.797  0.00  0.00     0.210 HD
ENDBRANCH  21  33
BRANCH  22  35
ATOM     35  OAS VDO d   1      17.787  -7.964  81.365  0.00  0.00    -0.390 OA
ATOM     36  H   VDO d   1      18.428  -7.562  80.774  0.00  0.00     0.210 HD
ENDBRANCH  22  35
BRANCH  24  37
ATOM     37  OAT VDO d   1      19.056  -9.411  79.334  0.00  0.00    -0.390 OA
ATOM     38  H   VDO d   1      18.984  -8.454  79.360  0.00  0.00     0.210 HD
ENDBRANCH  24  37
ENDBRANCH  14  17
ENDBRANCH   6  14
BRANCH   5  39
ATOM     39  OAO VDO d   1      17.799 -13.383  78.054  0.00  0.00    -0.391 OA
ATOM     40  H   VDO d   1      17.330 -13.977  77.464  0.00  0.00     0.210 HD
ENDBRANCH   5  39
BRANCH   1  41
ATOM     41  CAG VDO d   1      23.376 -14.204  79.038  0.00  0.00     0.038 C 
ATOM     42  H   VDO d   1      23.766 -13.408  79.672  0.00  0.00     0.076 H 
ATOM     43  H   VDO d   1      23.628 -15.191  79.427  0.00  0.00     0.076 H 
BRANCH  41  44
ATOM     44  OAW VDO d   1      23.963 -14.069  77.728  0.00  0.00    -0.282 OA
BRANCH  44  45
ATOM     45  PBA VDO d   1      24.969 -15.199  77.202  0.00  0.00     0.422 P 
ATOM     46  OAY VDO d   1      25.504 -14.820  75.733  0.00  0.00    -0.617 OA
ATOM     47  OAZ VDO d   1      26.283 -15.138  78.170  0.00  0.00    -0.617 OA
ATOM     48  OAX VDO d   1      24.304 -16.530  77.218  0.00  0.00    -0.617 OA
ENDBRANCH  44  45
ENDBRANCH  41  44
ENDBRANCH   1  41
BRANCH   4  49
ATOM     49  OAP VDO d   1      19.077 -15.833  77.147  0.00  0.00    -0.390 OA
ATOM     50  H   VDO d   1      18.124 -15.783  77.250  0.00  0.00     0.210 HD
ENDBRANCH   4  49
BRANCH   3  51
ATOM     51  OAU VDO d   1      21.756 -16.341  78.058  0.00  0.00    -0.392 OA
ATOM     52  H   VDO d   1      22.708 -16.321  77.933  0.00  0.00     0.210 HD
ENDBRANCH   3  51
TORSDOF 13
