REMARK  6 active torsions:
REMARK  status: ('A' for Active; 'I' for Inactive)
REMARK    1  A    between atoms: CAZ_8  and  NAQ_9 
REMARK    2  A    between atoms: CAS_10  and  NBA_12 
REMARK    3  A    between atoms: CAX_17  and  NAR_18 
REMARK    4  A    between atoms: NAR_18  and  CAW_19 
REMARK    5  A    between atoms: CAY_24  and  SBB_25 
REMARK    6  A    between atoms: SBB_25  and  NAB_28 
ROOT
ATOM      1  NBA DKI d   1      37.179  55.852  13.362  0.00  0.00    -0.018 N 
ATOM      2  NAP DKI d   1      36.944  57.070  13.515  0.00  0.00     0.044 NA
ATOM      3  CAT DKI d   1      37.232  55.552  12.042  0.00  0.00     0.739 A 
ATOM      4  NAA DKI d   1      37.432  54.362  11.443  0.00  0.00    -0.230 N 
ATOM      5  NAO DKI d   1      37.054  56.671  11.373  0.00  0.00     0.131 NA
ATOM      6  CAX DKI d   1      36.868  57.630  12.312  0.00  0.00     0.760 A 
ATOM      7  H   DKI d   1      37.450  54.300  10.425  0.00  0.00     0.174 HD
ATOM      8  H   DKI d   1      37.565  53.523  12.007  0.00  0.00     0.174 HD
ENDROOT
BRANCH   6   9
ATOM      9  NAR DKI d   1      36.673  58.932  12.006  0.00  0.00    -0.186 N 
ATOM     10  H   DKI d   1      36.725  59.117  11.004  0.00  0.00     0.184 HD
BRANCH   9  11
ATOM     11  CAW DKI d   1      36.424  60.043  12.733  0.00  0.00     0.049 A 
ATOM     12  CAL DKI d   1      36.592  60.088  14.118  0.00  0.00    -0.055 A 
ATOM     13  CAN DKI d   1      36.335  61.266  14.829  0.00  0.00    -0.058 A 
ATOM     14  H   DKI d   1      36.926  59.198  14.651  0.00  0.00     0.087 H 
ATOM     15  CAY DKI d   1      35.907  62.414  14.151  0.00  0.00     0.079 A 
ATOM     16  H   DKI d   1      36.468  61.290  15.911  0.00  0.00     0.086 H 
ATOM     17  CAM DKI d   1      35.732  62.399  12.756  0.00  0.00    -0.058 A 
ATOM     18  CAK DKI d   1      35.992  61.208  12.059  0.00  0.00    -0.055 A 
ATOM     19  H   DKI d   1      35.402  63.293  12.227  0.00  0.00     0.086 H 
ATOM     20  H   DKI d   1      35.858  61.181  10.978  0.00  0.00     0.087 H 
BRANCH  15  21
ATOM     21  SBB DKI d   1      35.568  63.882  15.116  0.00  0.00     0.256 S 
ATOM     22  OAC DKI d   1      34.864  64.850  14.193  0.00  0.00    -0.201 OA
ATOM     23  OAD DKI d   1      34.722  63.507  16.300  0.00  0.00    -0.201 OA
BRANCH  21  24
ATOM     24  NAB DKI d   1      36.939  64.542  15.515  0.00  0.00    -0.324 N 
ATOM     25  H   DKI d   1      37.188  65.461  15.149  0.00  0.00     0.169 HD
ATOM     26  H   DKI d   1      37.578  64.051  16.140  0.00  0.00     0.169 HD
ENDBRANCH  21  24
ENDBRANCH  15  21
ENDBRANCH   9  11
ENDBRANCH   6   9
BRANCH   1  27
ATOM     27  CAS DKI d   1      37.249  55.005  14.419  0.00  0.00     0.218 C 
ATOM     28  NAQ DKI d   1      36.916  55.457  15.640  0.00  0.00    -0.326 N 
ATOM     29  H   DKI d   1      36.725  56.456  15.714  0.00  0.00     0.168 HD
ATOM     30  SAE DKI d   1      37.692  53.330  14.274  0.00  0.00    -0.038 SA
BRANCH  28  31
ATOM     31  CAZ DKI d   1      36.803  54.726  16.805  0.00  0.00     0.112 A 
ATOM     32  CAU DKI d   1      37.891  54.356  17.569  0.00  0.00     0.146 A 
ATOM     33  FAF DKI d   1      39.135  54.652  17.120  0.00  0.00    -0.204 F 
ATOM     34  CAI DKI d   1      37.705  53.648  18.767  0.00  0.00    -0.043 A 
ATOM     35  CAH DKI d   1      36.432  53.326  19.238  0.00  0.00    -0.077 A 
ATOM     36  H   DKI d   1      38.578  53.342  19.344  0.00  0.00     0.088 H 
ATOM     37  CAJ DKI d   1      35.334  53.725  18.496  0.00  0.00    -0.043 A 
ATOM     38  H   DKI d   1      36.305  52.773  20.169  0.00  0.00     0.083 H 
ATOM     39  CAV DKI d   1      35.536  54.410  17.297  0.00  0.00     0.146 A 
ATOM     40  H   DKI d   1      34.324  53.507  18.844  0.00  0.00     0.088 H 
ATOM     41  FAG DKI d   1      34.445  54.762  16.598  0.00  0.00    -0.204 F 
ENDBRANCH  28  31
ENDBRANCH   1  27
TORSDOF 6
