REMARK  7 active torsions:
REMARK  status: ('A' for Active; 'I' for Inactive)
REMARK    1  A    between atoms: CAA_1  and  CAL_2 
REMARK    2  A    between atoms: CAL_2  and  OAM_3 
REMARK    3  A    between atoms: OAM_3  and  CAN_4 
REMARK    4  A    between atoms: CAN_4  and  CAS_6 
REMARK    5  A    between atoms: NAV_7  and  CAB_8 
REMARK    6  A    between atoms: CAR_17  and  CAO_18 
REMARK    7  A    between atoms: CAO_18  and  CAI_21 
ROOT
ATOM      1  CAS V25 d   1      35.458  15.325  17.380  0.00  0.00     0.123 A 
ATOM      2  NAV V25 d   1      35.687  15.796  15.955  0.00  0.00    -0.344 N 
ATOM      3  CAU V25 d   1      35.700  14.782  15.131  0.00  0.00     0.069 A 
ATOM      4  CAQ V25 d   1      35.891  14.682  13.707  0.00  0.00     0.083 A 
ATOM      5 CL1  V25 d   1      36.096  16.133  12.727  0.00  0.00    -0.080 Cl
ATOM      6  CAP V25 d   1      35.873  13.463  13.096  0.00  0.00     0.058 A 
ATOM      7 CL2  V25 d   1      36.086  13.356  11.449  0.00  0.00    -0.082 Cl
ATOM      8  CAJ V25 d   1      35.650  12.250  13.879  0.00  0.00    -0.059 A 
ATOM      9  CAK V25 d   1      35.441  12.292  15.289  0.00  0.00    -0.068 A 
ATOM     10  CAT V25 d   1      35.465  13.546  15.946  0.00  0.00     0.006 A 
ATOM     11  CAR V25 d   1      35.322  13.941  17.283  0.00  0.00     0.024 A 
ATOM     12  H9  V25 d   1      35.643  11.291  13.374  0.00  0.00     0.086 H 
ATOM     13  H10 V25 d   1      35.267  11.380  15.848  0.00  0.00     0.085 H 
ENDROOT
BRANCH   1  14
ATOM     14  CAN V25 d   1      35.397  16.137  18.731  0.00  0.00     0.311 C 
ATOM     15  OAE V25 d   1      35.775  17.231  18.489  0.00  0.00    -0.258 OA
BRANCH  14  16
ATOM     16  OAM V25 d   1      35.209  15.809  19.991  0.00  0.00    -0.317 OA
BRANCH  16  17
ATOM     17  CAL V25 d   1      34.688  16.371  21.242  0.00  0.00     0.026 C 
ATOM     18  H4  V25 d   1      34.232  15.565  21.835  0.00  0.00     0.074 H 
ATOM     19  H5  V25 d   1      35.519  16.818  21.808  0.00  0.00     0.074 H 
BRANCH  17  20
ATOM     20  CAA V25 d   1      33.654  17.426  20.973  0.00  0.00    -0.056 C 
ATOM     21  H1  V25 d   1      33.283  17.828  21.927  0.00  0.00     0.030 H 
ATOM     22  H2  V25 d   1      32.818  16.985  20.411  0.00  0.00     0.030 H 
ATOM     23  H3  V25 d   1      34.104  18.238  20.384  0.00  0.00     0.030 H 
ENDBRANCH  17  20
ENDBRANCH  16  17
ENDBRANCH  14  16
ENDBRANCH   1  14
BRANCH   2  24
ATOM     24  CAB V25 d   1      35.939  17.189  15.438  0.00  0.00    -0.013 C 
ATOM     25  H6  V25 d   1      35.889  17.904  16.272  0.00  0.00     0.057 H 
ATOM     26  H7  V25 d   1      35.176  17.445  14.688  0.00  0.00     0.057 H 
ATOM     27  H8  V25 d   1      36.936  17.234  14.976  0.00  0.00     0.057 H 
ENDBRANCH   2  24
BRANCH  11  28
ATOM     28  CAO V25 d   1      35.062  12.958  18.128  0.00  0.00     0.025 C 
ATOM     29  CAH V25 d   1      35.688  11.803  18.617  0.00  0.00     0.123 C 
ATOM     30  NAC V25 d   1      35.822  10.939  19.132  0.00  0.00    -0.146 N 
BRANCH  28  31
ATOM     31  CAI V25 d   1      33.805  13.035  18.627  0.00  0.00    -0.016 C 
ATOM     32  NAD V25 d   1      32.778  13.780  18.556  0.00  0.00    -0.407 N 
ATOM     33  H12 V25 d   1      31.932  13.544  19.094  0.00  0.00     0.155 HD
ATOM     34  H13 V25 d   1      32.791  14.620  17.960  0.00  0.00     0.155 HD
ATOM     35  H11 V25 d   1      33.616  12.198  19.298  0.00  0.00     0.111 H 
ENDBRANCH  28  31
ENDBRANCH  11  28
TORSDOF 7
