REMARK WARNING: 32 MAX_TORS EXCEEDED!!!
REMARK  39 active torsions:
REMARK  status: ('A' for Active; 'I' for Inactive)
REMARK    1  A    between atoms: C2_2  and  S1_1 
REMARK    2  A    between atoms: S1_1  and  CP_12 
REMARK    3  A    between atoms: C3_3  and  C2_2 
REMARK    4  A    between atoms: N4_4  and  C3_3 
REMARK       I    between atoms: C5_5  and  N4_4 
REMARK    5  A    between atoms: C6_7  and  C5_5 
REMARK    6  A    between atoms: C7_8  and  C6_7 
REMARK    7  A    between atoms: N8_9  and  C7_8 
REMARK       I    between atoms: C9_10  and  N8_9 
REMARK    8  A    between atoms: C10_13  and  C9_10 
REMARK    9  A    between atoms: CP_12  and  C1M_22 
REMARK   10  A    between atoms: C10_13  and  O10_14 
REMARK   11  A    between atoms: C11_15  and  C10_13 
REMARK   12  A    between atoms: C12_16  and  C11_15 
REMARK   13  A    between atoms: C11_15  and  C13_17 
REMARK   14  A    between atoms: C11_15  and  C14_18 
REMARK   15  A    between atoms: O6A_49  and  C12_16 
REMARK   16  A    between atoms: P1A_21  and  O3A_32 
REMARK   17  A    between atoms: O5X_46  and  P1A_21 
REMARK   18  A    between atoms: C1M_22  and  C2M_28 
REMARK   19  A    between atoms: C1X_24  and  N9A_57 
REMARK   20  A    between atoms: O3A_32  and  P2A_27 
REMARK   21  A    between atoms: P2A_27  and  O6A_49 
REMARK   22  A    between atoms: C2M_28  and  C3M_33 
REMARK   23  A    between atoms: C2X_29  and  O2X_30 
REMARK   24  A    between atoms: C3M_33  and  C4M_39 
REMARK   25  A    between atoms: C3X_34  and  O3X_35 
REMARK   26  A    between atoms: O3X_35  and  P3X_36 
REMARK   27  A    between atoms: C4M_39  and  C5M_44 
REMARK   28  A    between atoms: C5X_45  and  C4X_40 
REMARK   29  A    between atoms: C5M_44  and  C6M_50 
REMARK   30  A    between atoms: C5X_45  and  O5X_46 
REMARK   31  A    between atoms: C6A_47  and  N6A_48 
REMARK   32  A    between atoms: C6M_50  and  C7M_53 
REMARK   33  A    between atoms: C7M_53  and  C8M_56 
REMARK   34  A    between atoms: C8M_56  and  C9M_59 
REMARK   35  A    between atoms: C9M_59  and  CAM_60 
REMARK   36  A    between atoms: CAM_60  and  CBM_61 
REMARK   37  A    between atoms: CBM_61  and  CCM_62 
REMARK   38  A    between atoms: CCM_62  and  CDM_63 
REMARK   39  A    between atoms: CDM_63  and  CEM_64 
ROOT
ATOM      1  C7  NHW d   1       1.576 -16.137   8.525  0.00  0.00     0.003 C 
ATOM      2  H   NHW d   1       1.224 -15.577   7.659  0.00  0.00     0.064 H 
ATOM      3  H   NHW d   1       1.930 -17.135   8.267  0.00  0.00     0.064 H 
ENDROOT
BRANCH   1   4
ATOM      4  C6  NHW d   1       0.395 -16.293   9.498  0.00  0.00     0.024 C 
ATOM      5  H   NHW d   1       0.063 -15.290   9.765  0.00  0.00     0.049 H 
ATOM      6  H   NHW d   1      -0.362 -16.892   8.993  0.00  0.00     0.049 H 
BRANCH   4   7
ATOM      7  C5  NHW d   1       0.753 -17.021  10.811  0.00  0.00     0.219 C 
ATOM      8  N4  NHW d   1       0.102 -16.554  11.862  0.00  0.00    -0.360 N 
ATOM      9  H   NHW d   1      -0.535 -15.768  11.731  0.00  0.00     0.162 HD
ATOM     10  O5  NHW d   1       1.670 -17.852  10.862  0.00  0.00    -0.274 OA
BRANCH   8  11
ATOM     11  C3  NHW d   1       0.258 -17.125  13.232  0.00  0.00     0.003 C 
ATOM     12  H   NHW d   1       1.305 -17.363  13.418  0.00  0.00     0.065 H 
ATOM     13  H   NHW d   1      -0.071 -16.400  13.976  0.00  0.00     0.065 H 
BRANCH  11  14
ATOM     14  C2  NHW d   1      -0.632 -18.457  13.336  0.00  0.00    -0.008 C 
ATOM     15  H   NHW d   1      -1.678 -18.213  13.151  0.00  0.00     0.051 H 
ATOM     16  H   NHW d   1      -0.295 -19.180  12.593  0.00  0.00     0.051 H 
BRANCH  14  17
ATOM     17  S1  NHW d   1      -0.456 -19.169  15.007  0.00  0.00    -0.160 SA
BRANCH  17  18
ATOM     18  CP  NHW d   1      -2.170 -18.766  15.723  0.00  0.00     0.032 C 
ATOM     19  H   NHW d   1      -2.401 -19.462  16.529  0.00  0.00     0.060 H 
ATOM     20  H   NHW d   1      -2.923 -18.857  14.940  0.00  0.00     0.060 H 
BRANCH  18  21
ATOM     21  C1M NHW d   1      -2.169 -17.302  16.280  0.00  0.00     0.136 C 
ATOM     22  O1M NHW d   1      -2.579 -16.443  15.524  0.00  0.00    -0.297 OA
BRANCH  21  23
ATOM     23  C2M NHW d   1      -1.456 -17.018  17.596  0.00  0.00    -0.009 C 
ATOM     24  H   NHW d   1      -0.584 -17.670  17.642  0.00  0.00     0.044 H 
ATOM     25  H   NHW d   1      -2.173 -17.189  18.399  0.00  0.00     0.044 H 
BRANCH  23  26
ATOM     26  C3M NHW d   1      -0.958 -15.578  17.726  0.00  0.00    -0.059 C 
ATOM     27  H   NHW d   1      -1.767 -14.885  17.495  0.00  0.00     0.033 H 
ATOM     28  H   NHW d   1      -0.139 -15.406  17.028  0.00  0.00     0.033 H 
BRANCH  26  29
ATOM     29  C4M NHW d   1      -0.486 -15.358  19.124  0.00  0.00    -0.065 C 
ATOM     30  H   NHW d   1       0.244 -16.133  19.358  0.00  0.00     0.033 H 
ATOM     31  H   NHW d   1      -1.355 -15.390  19.781  0.00  0.00     0.033 H 
BRANCH  29  32
ATOM     32  C5M NHW d   1       0.220 -13.947  19.314  0.00  0.00    -0.065 C 
ATOM     33  H   NHW d   1      -0.460 -13.171  18.964  0.00  0.00     0.033 H 
ATOM     34  H   NHW d   1       1.151 -13.948  18.747  0.00  0.00     0.033 H 
BRANCH  32  35
ATOM     35  C6M NHW d   1       0.551 -13.675  20.798  0.00  0.00    -0.065 C 
ATOM     36  H   NHW d   1       1.248 -12.837  20.832  0.00  0.00     0.033 H 
ATOM     37  H   NHW d   1       0.961 -14.594  21.218  0.00  0.00     0.033 H 
BRANCH  35  38
ATOM     38  C7M NHW d   1      -0.670 -13.293  21.628  0.00  0.00    -0.065 C 
ATOM     39  H   NHW d   1      -1.354 -14.141  21.653  0.00  0.00     0.033 H 
ATOM     40  H   NHW d   1      -1.141 -12.421  21.174  0.00  0.00     0.033 H 
BRANCH  38  41
ATOM     41  C8M NHW d   1      -0.272 -12.942  23.066  0.00  0.00    -0.065 C 
ATOM     42  H   NHW d   1       0.390 -12.077  23.023  0.00  0.00     0.033 H 
ATOM     43  H   NHW d   1       0.199 -13.823  23.502  0.00  0.00     0.033 H 
BRANCH  41  44
ATOM     44  C9M NHW d   1      -1.476 -12.566  23.958  0.00  0.00    -0.065 C 
ATOM     45  H   NHW d   1      -1.147 -12.543  24.997  0.00  0.00     0.033 H 
ATOM     46  H   NHW d   1      -2.263 -13.306  23.812  0.00  0.00     0.033 H 
BRANCH  44  47
ATOM     47  CAM NHW d   1      -2.040 -11.150  23.578  0.00  0.00    -0.065 C 
ATOM     48  H   NHW d   1      -2.352 -11.178  22.534  0.00  0.00     0.033 H 
ATOM     49  H   NHW d   1      -1.255 -10.414  23.753  0.00  0.00     0.033 H 
BRANCH  47  50
ATOM     50  CBM NHW d   1      -3.286 -10.754  24.451  0.00  0.00    -0.065 C 
ATOM     51  H   NHW d   1      -4.059 -11.509  24.310  0.00  0.00     0.033 H 
ATOM     52  H   NHW d   1      -3.627  -9.767  24.137  0.00  0.00     0.033 H 
BRANCH  50  53
ATOM     53  CCM NHW d   1      -2.930 -10.693  25.957  0.00  0.00    -0.065 C 
ATOM     54  H   NHW d   1      -2.111  -9.995  26.131  0.00  0.00     0.033 H 
ATOM     55  H   NHW d   1      -2.601 -11.669  26.315  0.00  0.00     0.033 H 
BRANCH  53  56
ATOM     56  CDM NHW d   1      -4.206 -10.237  26.708  0.00  0.00    -0.069 C 
ATOM     57  H   NHW d   1      -4.999 -10.966  26.537  0.00  0.00     0.032 H 
ATOM     58  H   NHW d   1      -4.505  -9.257  26.337  0.00  0.00     0.032 H 
BRANCH  56  59
ATOM     59  CEM NHW d   1      -3.933 -10.140  28.212  0.00  0.00    -0.077 C 
ATOM     60  H   NHW d   1      -3.628 -11.117  28.588  0.00  0.00     0.027 H 
ATOM     61  H   NHW d   1      -3.138  -9.416  28.390  0.00  0.00     0.027 H 
ATOM     62  H   NHW d   1      -4.840  -9.819  28.724  0.00  0.00     0.027 H 
ENDBRANCH  56  59
ENDBRANCH  53  56
ENDBRANCH  50  53
ENDBRANCH  47  50
ENDBRANCH  44  47
ENDBRANCH  41  44
ENDBRANCH  38  41
ENDBRANCH  35  38
ENDBRANCH  32  35
ENDBRANCH  29  32
ENDBRANCH  26  29
ENDBRANCH  23  26
ENDBRANCH  21  23
ENDBRANCH  18  21
ENDBRANCH  17  18
ENDBRANCH  14  17
ENDBRANCH  11  14
ENDBRANCH   8  11
ENDBRANCH   4   7
ENDBRANCH   1   4
BRANCH   1  63
ATOM     63  N8  NHW d   1       2.703 -15.397   9.112  0.00  0.00    -0.358 N 
ATOM     64  C9  NHW d   1       2.606 -14.077   9.289  0.00  0.00     0.247 C 
ATOM     65  O9  NHW d   1       1.553 -13.456   9.113  0.00  0.00    -0.271 OA
ATOM     66  H   NHW d   1       3.554 -15.889   9.383  0.00  0.00     0.162 HD
BRANCH  64  67
ATOM     67  C10 NHW d   1       3.839 -13.465   9.982  0.00  0.00     0.120 C 
ATOM     68  H   NHW d   1       3.968 -12.454   9.597  0.00  0.00     0.099 H 
BRANCH  67  69
ATOM     69  O10 NHW d   1       4.965 -14.234   9.683  0.00  0.00    -0.385 OA
ATOM     70  H   NHW d   1       5.734 -13.854  10.114  0.00  0.00     0.210 HD
ENDBRANCH  67  69
BRANCH  67  71
ATOM     71  C11 NHW d   1       3.660 -13.317  11.517  0.00  0.00     0.009 C 
BRANCH  71  72
ATOM     72  C12 NHW d   1       4.976 -12.781  12.143  0.00  0.00     0.041 C 
ATOM     73  H   NHW d   1       5.785 -13.496  11.994  0.00  0.00     0.076 H 
ATOM     74  H   NHW d   1       4.854 -12.637  13.216  0.00  0.00     0.076 H 
BRANCH  72  75
ATOM     75  O6A NHW d   1       5.290 -11.523  11.498  0.00  0.00    -0.289 OA
BRANCH  75  76
ATOM     76  P2A NHW d   1       6.708 -11.276  10.832  0.00  0.00     0.417 P 
ATOM     77  O4A NHW d   1       7.197 -12.549  10.248  0.00  0.00    -0.624 OA
ATOM     78  O5A NHW d   1       6.673 -10.071  10.038  0.00  0.00    -0.624 OA
BRANCH  76  79
ATOM     79  O3A NHW d   1       7.585 -11.038  12.102  0.00  0.00    -0.180 OA
BRANCH  79  80
ATOM     80  P1A NHW d   1       7.801  -9.641  12.928  0.00  0.00     0.417 P 
ATOM     81  O1A NHW d   1       6.542  -8.720  12.737  0.00  0.00    -0.624 OA
ATOM     82  O2A NHW d   1       9.163  -9.077  12.462  0.00  0.00    -0.624 OA
BRANCH  80  83
ATOM     83  O5X NHW d   1       7.834 -10.147  14.407  0.00  0.00    -0.287 OA
BRANCH  83  84
ATOM     84  C5X NHW d   1       8.738 -11.187  14.767  0.00  0.00     0.058 C 
ATOM     85  H   NHW d   1       8.676 -12.032  14.081  0.00  0.00     0.079 H 
ATOM     86  H   NHW d   1       9.775 -10.857  14.714  0.00  0.00     0.079 H 
BRANCH  84  87
ATOM     87  C4X NHW d   1       8.338 -11.584  16.198  0.00  0.00     0.090 C 
ATOM     88  C3X NHW d   1       9.310 -12.601  16.787  0.00  0.00     0.107 C 
ATOM     89  C2X NHW d   1       8.598 -13.914  16.562  0.00  0.00     0.106 C 
ATOM     90  H   NHW d   1      10.309 -12.609  16.352  0.00  0.00     0.092 H 
ATOM     91  C1X NHW d   1       7.160 -13.459  16.778  0.00  0.00     0.140 C 
ATOM     92  H   NHW d   1       8.791 -14.397  15.604  0.00  0.00     0.093 H 
ATOM     93  O4X NHW d   1       7.099 -12.244  16.028  0.00  0.00    -0.353 OA
ATOM     94  H   NHW d   1       6.889 -13.345  17.828  0.00  0.00     0.122 H 
ATOM     95  H   NHW d   1       8.317 -10.716  16.857  0.00  0.00     0.090 H 
BRANCH  88  96
ATOM     96  O3X NHW d   1       9.464 -12.298  18.184  0.00  0.00    -0.272 OA
BRANCH  96  97
ATOM     97  P3X NHW d   1      10.910 -12.462  18.839  0.00  0.00     0.422 P 
ATOM     98  O7A NHW d   1      11.326 -14.011  18.715  0.00  0.00    -0.617 OA
ATOM     99  O8A NHW d   1      10.819 -12.167  20.381  0.00  0.00    -0.617 OA
ATOM    100  O9A NHW d   1      11.878 -11.548  18.138  0.00  0.00    -0.617 OA
ENDBRANCH  96  97
ENDBRANCH  88  96
BRANCH  89 101
ATOM    101  O2X NHW d   1       8.997 -14.890  17.544  0.00  0.00    -0.388 OA
ATOM    102  H   NHW d   1       9.905 -15.155  17.380  0.00  0.00     0.210 HD
ENDBRANCH  89 101
BRANCH  91 103
ATOM    103  N9A NHW d   1       6.235 -14.449  16.179  0.00  0.00    -0.294 N 
ATOM    104  C4A NHW d   1       5.120 -14.896  16.787  0.00  0.00     0.167 A 
ATOM    105  N3A NHW d   1       4.567 -14.582  18.000  0.00  0.00    -0.222 NA
ATOM    106  C5A NHW d   1       4.528 -15.820  15.944  0.00  0.00     0.149 A 
ATOM    107  C2A NHW d   1       3.449 -15.191  18.356  0.00  0.00     0.091 A 
ATOM    108  N1A NHW d   1       2.845 -16.094  17.500  0.00  0.00    -0.222 NA
ATOM    109  H   NHW d   1       3.002 -14.981  19.328  0.00  0.00     0.146 H 
ATOM    110  C6A NHW d   1       3.370 -16.472  16.321  0.00  0.00     0.155 A 
ATOM    111  N7A NHW d   1       5.309 -15.925  14.830  0.00  0.00    -0.236 NA
ATOM    112  C8A NHW d   1       6.335 -15.087  14.966  0.00  0.00     0.071 A 
ATOM    113  H   NHW d   1       7.127 -14.932  14.233  0.00  0.00     0.144 H 
BRANCH 110 114
ATOM    114  N6A NHW d   1       2.762 -17.450  15.549  0.00  0.00    -0.382 N 
ATOM    115  H   NHW d   1       3.170 -17.720  14.654  0.00  0.00     0.157 HD
ATOM    116  H   NHW d   1       1.907 -17.900  15.876  0.00  0.00     0.157 HD
ENDBRANCH 110 114
ENDBRANCH  91 103
ENDBRANCH  84  87
ENDBRANCH  83  84
ENDBRANCH  80  83
ENDBRANCH  79  80
ENDBRANCH  76  79
ENDBRANCH  75  76
ENDBRANCH  72  75
ENDBRANCH  71  72
BRANCH  71 117
ATOM    117  C13 NHW d   1       3.337 -14.670  12.182  0.00  0.00    -0.065 C 
ATOM    118  H   NHW d   1       2.413 -15.068  11.763  0.00  0.00     0.028 H 
ATOM    119  H   NHW d   1       4.152 -15.369  11.995  0.00  0.00     0.028 H 
ATOM    120  H   NHW d   1       3.219 -14.527  13.256  0.00  0.00     0.028 H 
ENDBRANCH  71 117
BRANCH  71 121
ATOM    121  C14 NHW d   1       2.475 -12.402  11.801  0.00  0.00    -0.065 C 
ATOM    122  H   NHW d   1       2.659 -11.423  11.359  0.00  0.00     0.028 H 
ATOM    123  H   NHW d   1       1.573 -12.834  11.368  0.00  0.00     0.028 H 
ATOM    124  H   NHW d   1       2.348 -12.297  12.879  0.00  0.00     0.028 H 
ENDBRANCH  71 121
ENDBRANCH  67  71
ENDBRANCH  64  67
ENDBRANCH   1  63
TORSDOF 39
