REMARK  11 active torsions:
REMARK  status: ('A' for Active; 'I' for Inactive)
REMARK    1  A    between atoms: P2_2  and  O11_5 
REMARK    2  A    between atoms: O11_5  and  P1_6 
REMARK    3  A    between atoms: P1_6  and  O5G_9 
REMARK    4  A    between atoms: O5G_9  and  C5B_10 
REMARK    5  A    between atoms: C5B_10  and  C5A_11 
REMARK    6  A    between atoms: C5A_11  and  C5_12 
REMARK    7  A    between atoms: C4_13  and  C4A_14 
REMARK    8  A    between atoms: N3_17  and  C35_18 
REMARK    9  A    between atoms: C35_18  and  C5'_19 
REMARK   10  A    between atoms: C2'_22  and  C2A_23 
REMARK   11  A    between atoms: C4'_25  and  N4'_26 
ROOT
ATOM      1  C5  TPU d   1     -21.818  25.996 -74.965  0.00  0.00     0.078 A 
ATOM      2  C4  TPU d   1     -21.302  24.912 -74.355  0.00  0.00     0.049 A 
ATOM      3  N1  TPU d   1     -22.041  25.693 -76.308  0.00  0.00    -0.163 NA
ATOM      4  N2  TPU d   1     -21.649  24.437 -76.492  0.00  0.00     0.005 NA
ATOM      5  N3  TPU d   1     -21.178  23.919 -75.298  0.00  0.00    -0.272 N 
ENDROOT
BRANCH   5   6
ATOM      6  C35 TPU d   1     -20.696  22.552 -75.144  0.00  0.00     0.042 C 
ATOM      7  H8  TPU d   1     -21.277  21.893 -75.806  0.00  0.00     0.074 H 
ATOM      8  H9  TPU d   1     -20.838  22.240 -74.099  0.00  0.00     0.074 H 
BRANCH   6   9
ATOM      9  C5' TPU d   1     -19.211  22.428 -75.501  0.00  0.00     0.024 A 
ATOM     10  C6' TPU d   1     -18.370  22.140 -74.513  0.00  0.00     0.016 A 
ATOM     11  N1' TPU d   1     -17.038  22.034 -74.750  0.00  0.00    -0.245 NA
ATOM     12  H10 TPU d   1     -18.751  21.988 -73.510  0.00  0.00     0.116 H 
ATOM     13  C2' TPU d   1     -16.534  22.204 -76.039  0.00  0.00     0.124 A 
ATOM     14  N3' TPU d   1     -17.397  22.499 -77.081  0.00  0.00    -0.216 NA
ATOM     15  C4' TPU d   1     -18.681  22.621 -76.858  0.00  0.00     0.132 A 
BRANCH  13  16
ATOM     16  C2A TPU d   1     -15.027  22.056 -76.242  0.00  0.00    -0.019 C 
ATOM     17  H11 TPU d   1     -14.549  21.823 -75.279  0.00  0.00     0.037 H 
ATOM     18  H12 TPU d   1     -14.616  22.997 -76.637  0.00  0.00     0.037 H 
ATOM     19  H13 TPU d   1     -14.831  21.242 -76.956  0.00  0.00     0.037 H 
ENDBRANCH  13  16
BRANCH  15  20
ATOM     20  N4' TPU d   1     -19.575  22.898 -77.969  0.00  0.00    -0.383 N 
ATOM     21  H14 TPU d   1     -19.193  23.032 -78.916  0.00  0.00     0.157 HD
ATOM     22  H15 TPU d   1     -20.591  22.961 -77.809  0.00  0.00     0.157 HD
ENDBRANCH  15  20
ENDBRANCH   6   9
ENDBRANCH   5   6
BRANCH   2  23
ATOM     23  C4A TPU d   1     -20.897  24.858 -72.891  0.00  0.00    -0.034 C 
ATOM     24  H5  TPU d   1     -21.131  25.819 -72.410  0.00  0.00     0.035 H 
ATOM     25  H6  TPU d   1     -19.817  24.664 -72.816  0.00  0.00     0.035 H 
ATOM     26  H7  TPU d   1     -21.450  24.052 -72.387  0.00  0.00     0.035 H 
ENDBRANCH   2  23
BRANCH   1  27
ATOM     27  C5A TPU d   1     -22.124  27.332 -74.330  0.00  0.00    -0.001 C 
ATOM     28  H3  TPU d   1     -23.202  27.357 -74.113  0.00  0.00     0.045 H 
ATOM     29  H4  TPU d   1     -21.559  27.388 -73.388  0.00  0.00     0.045 H 
BRANCH  27  30
ATOM     30  C5B TPU d   1     -21.790  28.578 -75.141  0.00  0.00     0.037 C 
ATOM     31  H1  TPU d   1     -20.956  28.349 -75.821  0.00  0.00     0.075 H 
ATOM     32  H2  TPU d   1     -22.673  28.869 -75.729  0.00  0.00     0.075 H 
BRANCH  30  33
ATOM     33  O5G TPU d   1     -21.426  29.634 -74.323  0.00  0.00    -0.289 OA
BRANCH  33  34
ATOM     34  P1  TPU d   1     -21.432  31.180 -74.837  0.00  0.00     0.418 P 
ATOM     35  O12 TPU d   1     -21.733  32.208 -73.553  0.00  0.00    -0.624 OA
ATOM     36  O13 TPU d   1     -20.161  31.430 -75.527  0.00  0.00    -0.624 OA
BRANCH  34  37
ATOM     37  O11 TPU d   1     -22.577  31.332 -75.995  0.00  0.00    -0.173 OA
BRANCH  37  38
ATOM     38  P2  TPU d   1     -23.924  32.259 -75.748  0.00  0.00     0.431 P 
ATOM     39  O23 TPU d   1     -23.743  33.663 -76.617  0.00  0.00    -0.616 OA
ATOM     40  O22 TPU d   1     -25.171  31.378 -76.361  0.00  0.00    -0.616 OA
ATOM     41  O21 TPU d   1     -24.126  32.515 -74.308  0.00  0.00    -0.616 OA
ENDBRANCH  37  38
ENDBRANCH  34  37
ENDBRANCH  33  34
ENDBRANCH  30  33
ENDBRANCH  27  30
ENDBRANCH   1  27
TORSDOF 11
