REMARK  3 active torsions:
REMARK  status: ('A' for Active; 'I' for Inactive)
REMARK    1  A    between atoms: C1_1  and  O1_2 
REMARK    2  A    between atoms: C8_9  and  O13_10 
REMARK    3  A    between atoms: C7_11  and  O11_12 
ROOT
ATOM      1  C1  SWA d   1      45.452  21.797 101.707  0.00  0.00     0.066 C 
ATOM      2  C3  SWA d   1      46.318  22.866 101.021  0.00  0.00     0.155 C 
ATOM      3  N4  SWA d   1      45.696  23.408  99.766  0.00  0.00    -0.059 N 
ATOM      4  C5  SWA d   1      44.819  22.563  98.928  0.00  0.00     0.084 C 
ATOM      5  C6  SWA d   1      43.961  21.633  99.779  0.00  0.00    -0.040 C 
ATOM      6  C2  SWA d   1      44.841  20.838 100.714  0.00  0.00    -0.037 C 
ATOM      7  C9  SWA d   1      45.109  24.699 100.132  0.00  0.00     0.110 C 
ATOM      8  C8  SWA d   1      46.282  25.257 100.933  0.00  0.00     0.085 C 
ATOM      9  C7  SWA d   1      46.497  24.112 101.922  0.00  0.00     0.092 C 
ATOM     10  H1  SWA d   1      44.649  22.297 102.269  0.00  0.00     0.086 H 
ATOM     11  H3  SWA d   1      47.298  22.422 100.790  0.00  0.00     0.092 H 
ATOM     12  H4  SWA d   1      46.474  23.613  99.158  0.00  0.00     0.280 HD
ATOM     13  H5  SWA d   1      45.443  21.957  98.255  0.00  0.00     0.076 H 
ATOM     14  H6  SWA d   1      44.160  23.212  98.332  0.00  0.00     0.076 H 
ATOM     15  H7  SWA d   1      43.408  20.944  99.123  0.00  0.00     0.035 H 
ATOM     16  H8  SWA d   1      43.248  22.230 100.367  0.00  0.00     0.035 H 
ATOM     17  H9  SWA d   1      44.239  20.085 101.244  0.00  0.00     0.036 H 
ATOM     18  H10 SWA d   1      45.635  20.336 100.142  0.00  0.00     0.036 H 
ATOM     19  H11 SWA d   1      44.204  24.584 100.746  0.00  0.00     0.080 H 
ATOM     20  H12 SWA d   1      44.878  25.315  99.250  0.00  0.00     0.080 H 
ATOM     21  H13 SWA d   1      47.169  25.446 100.311  0.00  0.00     0.089 H 
ATOM     22  H15 SWA d   1      47.488  24.149 102.398  0.00  0.00     0.090 H 
ENDROOT
BRANCH   1  23
ATOM     23  O1  SWA d   1      46.256  21.042 102.592  0.00  0.00    -0.393 OA
ATOM     24  H2  SWA d   1      46.630  21.618 103.248  0.00  0.00     0.210 HD
ENDBRANCH   1  23
BRANCH   9  25
ATOM     25  O11 SWA d   1      45.454  24.132 102.901  0.00  0.00    -0.391 OA
ATOM     26  H16 SWA d   1      45.586  23.421 103.517  0.00  0.00     0.210 HD
ENDBRANCH   9  25
BRANCH   8  27
ATOM     27  O13 SWA d   1      45.882  26.449 101.608  0.00  0.00    -0.391 OA
ATOM     28  H14 SWA d   1      45.601  27.094 100.970  0.00  0.00     0.210 HD
ENDBRANCH   8  27
TORSDOF 3
