REMARK  3 active torsions:
REMARK  status: ('A' for Active; 'I' for Inactive)
REMARK    1  A    between atoms: C1_1  and  O1_2 
REMARK    2  A    between atoms: C8_9  and  O13_10 
REMARK    3  A    between atoms: C7_11  and  O11_12 
ROOT
ATOM      1  C1  SWA d   1     -25.352 -30.691  88.446  0.00  0.00     0.066 C 
ATOM      2  C3  SWA d   1     -26.129 -29.516  87.866  0.00  0.00     0.155 C 
ATOM      3  N4  SWA d   1     -25.708 -28.280  88.533  0.00  0.00    -0.059 N 
ATOM      4  C5  SWA d   1     -26.111 -28.305  89.952  0.00  0.00     0.084 C 
ATOM      5  C6  SWA d   1     -25.321 -29.416  90.662  0.00  0.00    -0.040 C 
ATOM      6  C2  SWA d   1     -25.551 -30.775  89.974  0.00  0.00    -0.037 C 
ATOM      7  C9  SWA d   1     -26.394 -27.250  87.729  0.00  0.00     0.110 C 
ATOM      8  C8  SWA d   1     -26.273 -27.779  86.279  0.00  0.00     0.085 C 
ATOM      9  C7  SWA d   1     -25.728 -29.211  86.429  0.00  0.00     0.092 C 
ATOM     10  H1  SWA d   1     -24.281 -30.546  88.243  0.00  0.00     0.086 H 
ATOM     11  H3  SWA d   1     -27.210 -29.695  87.959  0.00  0.00     0.092 H 
ATOM     12  H4  SWA d   1     -24.709 -28.159  88.481  0.00  0.00     0.280 HD
ATOM     13  H5  SWA d   1     -27.189 -28.509  90.028  0.00  0.00     0.076 H 
ATOM     14  H6  SWA d   1     -25.888 -27.334  90.419  0.00  0.00     0.076 H 
ATOM     15  H7  SWA d   1     -25.652 -29.481  91.709  0.00  0.00     0.035 H 
ATOM     16  H8  SWA d   1     -24.249 -29.173  90.631  0.00  0.00     0.035 H 
ATOM     17  H9  SWA d   1     -24.839 -31.506  90.385  0.00  0.00     0.036 H 
ATOM     18  H10 SWA d   1     -26.579 -31.108  90.180  0.00  0.00     0.036 H 
ATOM     19  H11 SWA d   1     -25.897 -26.274  87.834  0.00  0.00     0.080 H 
ATOM     20  H12 SWA d   1     -27.449 -27.158  88.026  0.00  0.00     0.080 H 
ATOM     21  H13 SWA d   1     -27.258 -27.791  85.790  0.00  0.00     0.089 H 
ATOM     22  H15 SWA d   1     -26.182 -29.907  85.709  0.00  0.00     0.090 H 
ENDROOT
BRANCH   1  23
ATOM     23  O1  SWA d   1     -25.786 -31.893  87.798  0.00  0.00    -0.393 OA
ATOM     24  H2  SWA d   1     -25.621 -31.826  86.865  0.00  0.00     0.210 HD
ENDBRANCH   1  23
BRANCH   9  25
ATOM     25  O11 SWA d   1     -24.296 -29.227  86.309  0.00  0.00    -0.391 OA
ATOM     26  H16 SWA d   1     -23.916 -28.681  86.988  0.00  0.00     0.210 HD
ENDBRANCH   9  25
BRANCH   8  27
ATOM     27  O13 SWA d   1     -25.369 -26.964  85.508  0.00  0.00    -0.391 OA
ATOM     28  H14 SWA d   1     -24.509 -26.978  85.912  0.00  0.00     0.210 HD
ENDBRANCH   8  27
TORSDOF 3
