REMARK  8 active torsions:
REMARK  status: ('A' for Active; 'I' for Inactive)
REMARK    1  A    between atoms: CAB_6  and  CAC_7 
REMARK    2  A    between atoms: CAC_7  and  OH_8 
REMARK    3  A    between atoms: OH_8  and  CZ_9 
REMARK    4  A    between atoms: CG_14  and  CB_15 
REMARK    5  A    between atoms: CB_15  and  CA_16 
REMARK    6  A    between atoms: CA_16  and  C_17 
REMARK    7  A    between atoms: CA_16  and  N_20 
REMARK       I    between atoms: N_20  and  CAR_21 
REMARK    8  A    between atoms: CAR_21  and  CAS_23 
ROOT
ATOM      1  CZ  Y28 d   1     -22.759 -20.948 -19.246  0.00  0.00     0.069 A 
ATOM      2  CE2 Y28 d   1     -22.218 -20.643 -20.497  0.00  0.00    -0.050 A 
ATOM      3  CD2 Y28 d   1     -23.058 -20.393 -21.597  0.00  0.00    -0.074 A 
ATOM      4  CE1 Y28 d   1     -24.160 -20.989 -19.152  0.00  0.00    -0.050 A 
ATOM      5  CD1 Y28 d   1     -25.004 -20.749 -20.252  0.00  0.00    -0.074 A 
ATOM      6  CG  Y28 d   1     -24.455 -20.446 -21.500  0.00  0.00    -0.056 A 
ATOM      7  H   Y28 d   1     -21.136 -20.598 -20.622  0.00  0.00     0.087 H 
ATOM      8  H   Y28 d   1     -22.607 -20.149 -22.559  0.00  0.00     0.084 H 
ATOM      9  H   Y28 d   1     -24.612 -21.216 -18.187  0.00  0.00     0.087 H 
ATOM     10  H   Y28 d   1     -26.086 -20.799 -20.130  0.00  0.00     0.084 H 
ENDROOT
BRANCH   1  11
ATOM     11  OH  Y28 d   1     -21.946 -21.214 -18.143  0.00  0.00    -0.347 OA
BRANCH  11  12
ATOM     12  CAC Y28 d   1     -20.634 -20.574 -18.219  0.00  0.00     0.050 C 
ATOM     13  H   Y28 d   1     -20.061 -20.979 -17.385  0.00  0.00     0.082 H 
ATOM     14  H   Y28 d   1     -20.267 -20.775 -19.226  0.00  0.00     0.082 H 
BRANCH  12  15
ATOM     15  CAB Y28 d   1     -20.584 -19.179 -18.070  0.00  0.00    -0.034 A 
ATOM     16  CAD Y28 d   1     -19.781 -18.408 -18.907  0.00  0.00    -0.075 A 
ATOM     17  CAF Y28 d   1     -19.760 -17.012 -18.746  0.00  0.00    -0.082 A 
ATOM     18  H   Y28 d   1     -19.175 -18.882 -19.679  0.00  0.00     0.084 H 
ATOM     19  CAH Y28 d   1     -20.521 -16.368 -17.761  0.00  0.00    -0.083 A 
ATOM     20  H   Y28 d   1     -19.134 -16.413 -19.407  0.00  0.00     0.083 H 
ATOM     21  CAG Y28 d   1     -21.332 -17.133 -16.925  0.00  0.00    -0.082 A 
ATOM     22  H   Y28 d   1     -20.479 -15.284 -17.650  0.00  0.00     0.083 H 
ATOM     23  CAE Y28 d   1     -21.359 -18.531 -17.089  0.00  0.00    -0.075 A 
ATOM     24  H   Y28 d   1     -21.937 -16.655 -16.154  0.00  0.00     0.083 H 
ATOM     25  H   Y28 d   1     -21.998 -19.128 -16.438  0.00  0.00     0.084 H 
ENDBRANCH  12  15
ENDBRANCH  11  12
ENDBRANCH   1  11
BRANCH   6  26
ATOM     26  CB  Y28 d   1     -25.359 -20.197 -22.746  0.00  0.00    -0.013 C 
ATOM     27  H   Y28 d   1     -24.841 -19.520 -23.425  0.00  0.00     0.043 H 
ATOM     28  H   Y28 d   1     -26.304 -19.767 -22.413  0.00  0.00     0.043 H 
BRANCH  26  29
ATOM     29  CA  Y28 d   1     -25.655 -21.545 -23.503  0.00  0.00     0.100 C 
ATOM     30  H   Y28 d   1     -25.583 -22.364 -22.788  0.00  0.00     0.090 H 
BRANCH  29  31
ATOM     31  C   Y28 d   1     -24.660 -21.803 -24.623  0.00  0.00     0.197 C 
ATOM     32  OXT Y28 d   1     -23.480 -22.065 -24.295  0.00  0.00    -0.646 OA
ATOM     33  O   Y28 d   1     -25.109 -21.786 -25.790  0.00  0.00    -0.646 OA
ENDBRANCH  29  31
BRANCH  29  34
ATOM     34  N   Y28 d   1     -26.973 -21.436 -24.096  0.00  0.00    -0.337 N 
ATOM     35  CAR Y28 d   1     -28.040 -21.424 -23.314  0.00  0.00     0.319 C 
ATOM     36  OAW Y28 d   1     -27.943 -21.599 -22.098  0.00  0.00    -0.261 OA
ATOM     37  H   Y28 d   1     -27.077 -21.369 -25.108  0.00  0.00     0.164 HD
BRANCH  35  38
ATOM     38  CAS Y28 d   1     -29.442 -21.161 -23.915  0.00  0.00     0.270 C 
ATOM     39  OAY Y28 d   1     -29.566 -21.006 -25.169  0.00  0.00    -0.640 OA
ATOM     40  OAX Y28 d   1     -30.387 -21.112 -23.080  0.00  0.00    -0.640 OA
ENDBRANCH  35  38
ENDBRANCH  29  34
ENDBRANCH  26  29
ENDBRANCH   6  26
TORSDOF 8
