REMARK  6 active torsions:
REMARK  status: ('A' for Active; 'I' for Inactive)
REMARK    1  A    between atoms: CAU_1  and  OAT_2 
REMARK    2  A    between atoms: OAT_2  and  CAP_3 
REMARK    3  A    between atoms: CAH_8  and  NAG_9 
REMARK    4  A    between atoms: CAO_20  and  CAS_21 
REMARK    5  A    between atoms: CAS_21  and  S6_22 
REMARK    6  A    between atoms: S6_22  and  C6_23 
ROOT
ATOM      1  NAG 039 d   1      -5.426  -1.873  22.003  0.00  0.00    -0.262 N 
ATOM      2  CAF 039 d   1      -4.838  -1.666  20.780  0.00  0.00     0.268 A 
ATOM      3  OAB 039 d   1      -3.915  -2.419  20.500  0.00  0.00    -0.267 OA
ATOM      4  CAE 039 d   1      -5.261  -0.599  19.969  0.00  0.00     0.083 A 
ATOM      5  CAD 039 d   1      -4.689  -0.299  18.721  0.00  0.00     0.052 A 
ATOM      6 CL   039 d   1      -3.390  -1.192  18.007  0.00  0.00    -0.083 Cl
ATOM      7  CAC 039 d   1      -5.164   0.774  17.968  0.00  0.00    -0.061 A 
ATOM      8  CAK 039 d   1      -6.210   1.533  18.457  0.00  0.00    -0.079 A 
ATOM      9  CAL 039 d   1      -6.802   1.260  19.693  0.00  0.00    -0.054 A 
ATOM     10  CAM 039 d   1      -6.321   0.186  20.456  0.00  0.00     0.076 A 
ATOM     11  NAN 039 d   1      -6.880  -0.070  21.654  0.00  0.00    -0.233 NA
ATOM     12  CAO 039 d   1      -6.476  -1.099  22.420  0.00  0.00     0.124 A 
ATOM     13  H8  039 d   1      -4.717   1.010  17.009  0.00  0.00     0.086 H 
ATOM     14  H9  039 d   1      -6.581   2.362  17.866  0.00  0.00     0.083 H 
ATOM     15  H10 039 d   1      -7.621   1.870  20.057  0.00  0.00     0.087 H 
ENDROOT
BRANCH  12  16
ATOM     16  CAS 039 d   1      -7.117  -1.400  23.775  0.00  0.00     0.038 C 
ATOM     17  H11 039 d   1      -6.320  -1.607  24.504  0.00  0.00     0.061 H 
ATOM     18  H12 039 d   1      -7.759  -2.287  23.672  0.00  0.00     0.061 H 
BRANCH  16  19
ATOM     19  S6  039 d   1      -8.141   0.003  24.399  0.00  0.00    -0.100 SA
BRANCH  19  20
ATOM     20  C6  039 d   1      -6.881   1.083  25.035  0.00  0.00     0.125 A 
ATOM     21  C5  039 d   1      -7.349   2.280  25.561  0.00  0.00     0.117 A 
ATOM     22  N7  039 d   1      -8.583   2.761  25.698  0.00  0.00    -0.345 N 
ATOM     23  C4  039 d   1      -6.453   3.189  26.082  0.00  0.00     0.181 A 
ATOM     24  C8  039 d   1      -8.453   3.968  26.301  0.00  0.00     0.067 A 
ATOM     25  H13 039 d   1      -9.460   2.307  25.405  0.00  0.00     0.167 HD
ATOM     26  N9  039 d   1      -7.176   4.223  26.519  0.00  0.00    -0.222 NA
ATOM     27  H14 039 d   1      -9.278   4.628  26.566  0.00  0.00     0.143 H 
ATOM     28  N3  039 d   1      -5.127   2.909  26.087  0.00  0.00    -0.220 NA
ATOM     29  C2  039 d   1      -4.688   1.764  25.548  0.00  0.00     0.090 A 
ATOM     30  N1  039 d   1      -5.559   0.856  25.041  0.00  0.00    -0.233 NA
ATOM     31  H15 039 d   1      -3.624   1.560  25.517  0.00  0.00     0.146 H 
ENDBRANCH  19  20
ENDBRANCH  16  19
ENDBRANCH  12  16
BRANCH   1  32
ATOM     32  CAH 039 d   1      -5.045  -2.999  22.783  0.00  0.00     0.077 A 
ATOM     33  CAP 039 d   1      -4.046  -2.965  23.698  0.00  0.00     0.095 A 
ATOM     34  CAQ 039 d   1      -3.720  -4.122  24.453  0.00  0.00    -0.049 A 
ATOM     35  CAR 039 d   1      -4.465  -5.275  24.226  0.00  0.00    -0.080 A 
ATOM     36  H4  039 d   1      -2.918  -4.108  25.182  0.00  0.00     0.087 H 
ATOM     37  CAJ 039 d   1      -5.494  -5.317  23.268  0.00  0.00    -0.081 A 
ATOM     38  H5  039 d   1      -4.246  -6.166  24.804  0.00  0.00     0.083 H 
ATOM     39  CAI 039 d   1      -5.787  -4.170  22.544  0.00  0.00    -0.054 A 
ATOM     40  H6  039 d   1      -6.050  -6.232  23.098  0.00  0.00     0.083 H 
ATOM     41  H7  039 d   1      -6.578  -4.176  21.803  0.00  0.00     0.087 H 
BRANCH  33  42
ATOM     42  OAT 039 d   1      -3.389  -1.810  23.837  0.00  0.00    -0.354 OA
BRANCH  42  43
ATOM     43  CAU 039 d   1      -2.324  -2.127  24.781  0.00  0.00     0.010 C 
ATOM     44  H1  039 d   1      -1.717  -1.228  24.965  0.00  0.00     0.066 H 
ATOM     45  H2  039 d   1      -1.687  -2.920  24.363  0.00  0.00     0.066 H 
ATOM     46  H3  039 d   1      -2.764  -2.472  25.728  0.00  0.00     0.066 H 
ENDBRANCH  42  43
ENDBRANCH  33  42
ENDBRANCH   1  32
TORSDOF 6
