REMARK  8 active torsions:
REMARK  status: ('A' for Active; 'I' for Inactive)
REMARK    1  A    between atoms: CAT_1  and  CAP_2 
REMARK    2  A    between atoms: CAH_7  and  NAG_8 
REMARK    3  A    between atoms: CAD_12  and  CAA_13 
REMARK    4  A    between atoms: CAO_19  and  CAS_20 
REMARK    5  A    between atoms: CAS_20  and  NAV_21 
REMARK    6  A    between atoms: C4_27  and  NBK_28 
REMARK    7  A    between atoms: CBD_30  and  CBC_31 
REMARK    8  A    between atoms: CBA_37  and  OAZ_38 
ROOT
ATOM      1  NAG ZZN d   1       5.147 -34.341 -22.154  0.00  0.00    -0.264 N 
ATOM      2  CAF ZZN d   1       4.590 -34.175 -20.863  0.00  0.00     0.267 A 
ATOM      3  OAB ZZN d   1       3.651 -34.897 -20.563  0.00  0.00    -0.267 OA
ATOM      4  CAE ZZN d   1       5.065 -33.169 -20.002  0.00  0.00     0.067 A 
ATOM      5  CAD ZZN d   1       4.526 -32.926 -18.718  0.00  0.00    -0.044 A 
ATOM      6  CAC ZZN d   1       5.064 -31.894 -17.941  0.00  0.00    -0.076 A 
ATOM      7  CAK ZZN d   1       6.122 -31.129 -18.404  0.00  0.00    -0.080 A 
ATOM      8  CAL ZZN d   1       6.670 -31.366 -19.674  0.00  0.00    -0.054 A 
ATOM      9  CAM ZZN d   1       6.125 -32.376 -20.478  0.00  0.00     0.075 A 
ATOM     10  NAN ZZN d   1       6.661 -32.594 -21.714  0.00  0.00    -0.232 NA
ATOM     11  CAO ZZN d   1       6.222 -33.557 -22.545  0.00  0.00     0.134 A 
ATOM     12  H11 ZZN d   1       4.646 -31.690 -16.962  0.00  0.00     0.084 H 
ATOM     13  H12 ZZN d   1       6.530 -30.341 -17.781  0.00  0.00     0.083 H 
ATOM     14  H13 ZZN d   1       7.506 -30.774 -20.029  0.00  0.00     0.087 H 
ENDROOT
BRANCH  11  15
ATOM     15  CAS ZZN d   1       6.859 -33.751 -23.967  0.00  0.00     0.074 C 
ATOM     16  H14 ZZN d   1       6.101 -34.087 -24.689  0.00  0.00     0.079 H 
ATOM     17  H15 ZZN d   1       7.679 -34.483 -23.928  0.00  0.00     0.079 H 
BRANCH  15  18
ATOM     18  NAV ZZN d   1       7.373 -32.410 -24.335  0.00  0.00    -0.243 N 
ATOM     19  NAU ZZN d   1       8.508 -32.001 -24.019  0.00  0.00    -0.169 NA
ATOM     20  CBD ZZN d   1       8.694 -30.750 -24.441  0.00  0.00     0.105 A 
ATOM     21  C5  ZZN d   1       7.495 -30.371 -25.081  0.00  0.00     0.088 A 
ATOM     22  C6  ZZN d   1       6.676 -31.502 -24.984  0.00  0.00     0.164 A 
ATOM     23  C4  ZZN d   1       6.954 -29.253 -25.746  0.00  0.00     0.139 A 
ATOM     24  N1  ZZN d   1       5.414 -31.521 -25.468  0.00  0.00    -0.222 NA
ATOM     25  C2  ZZN d   1       4.941 -30.442 -26.076  0.00  0.00     0.091 A 
ATOM     26  N3  ZZN d   1       5.709 -29.344 -26.203  0.00  0.00    -0.224 NA
ATOM     27  H16 ZZN d   1       3.932 -30.444 -26.472  0.00  0.00     0.146 H 
BRANCH  20  28
ATOM     28  CBC ZZN d   1       9.911 -30.087 -24.181  0.00  0.00     0.001 A 
ATOM     29  CBB ZZN d   1      10.749 -29.497 -25.118  0.00  0.00    -0.039 A 
ATOM     30  CBA ZZN d   1      11.955 -28.890 -24.714  0.00  0.00     0.069 A 
ATOM     31  H19 ZZN d   1      10.474 -29.503 -26.166  0.00  0.00     0.089 H 
ATOM     32  CBH ZZN d   1      12.382 -28.917 -23.394  0.00  0.00    -0.014 A 
ATOM     33  CBI ZZN d   1      11.556 -29.527 -22.449  0.00  0.00     0.119 A 
ATOM     34  H21 ZZN d   1      13.330 -28.477 -23.105  0.00  0.00     0.092 H 
ATOM     35  CBJ ZZN d   1      10.345 -30.111 -22.835  0.00  0.00    -0.033 A 
ATOM     36  F   ZZN d   1      11.956 -29.535 -21.168  0.00  0.00    -0.206 F 
ATOM     37  H20 ZZN d   1       9.726 -30.592 -22.087  0.00  0.00     0.089 H 
BRANCH  30  38
ATOM     38  OAZ ZZN d   1      12.776 -28.302 -25.617  0.00  0.00    -0.361 OA
ATOM     39  H22 ZZN d   1      12.379 -28.345 -26.479  0.00  0.00     0.217 HD
ENDBRANCH  30  38
ENDBRANCH  20  28
BRANCH  23  40
ATOM     40  NBK ZZN d   1       7.609 -28.094 -25.939  0.00  0.00    -0.383 N 
ATOM     41  H17 ZZN d   1       8.575 -27.986 -25.599  0.00  0.00     0.157 HD
ATOM     42  H18 ZZN d   1       7.144 -27.315 -26.427  0.00  0.00     0.157 HD
ENDBRANCH  23  40
ENDBRANCH  15  18
ENDBRANCH  11  15
BRANCH   1  43
ATOM     43  CAH ZZN d   1       4.684 -35.406 -22.971  0.00  0.00     0.050 A 
ATOM     44  CAP ZZN d   1       3.599 -35.354 -23.836  0.00  0.00    -0.035 A 
ATOM     45  CAQ ZZN d   1       3.229 -36.494 -24.600  0.00  0.00    -0.075 A 
ATOM     46  CAR ZZN d   1       3.961 -37.663 -24.433  0.00  0.00    -0.082 A 
ATOM     47  H4  ZZN d   1       2.398 -36.453 -25.294  0.00  0.00     0.084 H 
ATOM     48  CAJ ZZN d   1       5.047 -37.733 -23.556  0.00  0.00    -0.081 A 
ATOM     49  H5  ZZN d   1       3.682 -38.545 -24.998  0.00  0.00     0.083 H 
ATOM     50  CAI ZZN d   1       5.410 -36.610 -22.811  0.00  0.00    -0.056 A 
ATOM     51  H6  ZZN d   1       5.606 -38.657 -23.455  0.00  0.00     0.083 H 
ATOM     52  H7  ZZN d   1       6.240 -36.660 -22.116  0.00  0.00     0.087 H 
BRANCH  44  53
ATOM     53  CAT ZZN d   1       2.831 -34.065 -23.993  0.00  0.00    -0.049 C 
ATOM     54  H1  ZZN d   1       2.012 -34.211 -24.713  0.00  0.00     0.033 H 
ATOM     55  H2  ZZN d   1       3.506 -33.278 -24.360  0.00  0.00     0.033 H 
ATOM     56  H3  ZZN d   1       2.414 -33.766 -23.020  0.00  0.00     0.033 H 
ENDBRANCH  44  53
ENDBRANCH   1  43
BRANCH   5  57
ATOM     57  CAA ZZN d   1       3.358 -33.728 -18.113  0.00  0.00    -0.050 C 
ATOM     58  H8  ZZN d   1       3.131 -33.343 -17.108  0.00  0.00     0.033 H 
ATOM     59  H9  ZZN d   1       3.639 -34.789 -18.044  0.00  0.00     0.033 H 
ATOM     60  H10 ZZN d   1       2.471 -33.624 -18.755  0.00  0.00     0.033 H 
ENDBRANCH   5  57
TORSDOF 8
