REMARK  8 active torsions:
REMARK  status: ('A' for Active; 'I' for Inactive)
REMARK    1  A    between atoms: CAT_1  and  CAL_2 
REMARK    2  A    between atoms: CAK_7  and  NAJ_8 
REMARK    3  A    between atoms: CAG_12  and  CAA_13 
REMARK    4  A    between atoms: CAR_19  and  CAS_20 
REMARK    5  A    between atoms: CAS_20  and  NAV_21 
REMARK    6  A    between atoms: C4_27  and  NBG_28 
REMARK    7  A    between atoms: CAZ_30  and  CBE_31 
REMARK    8  A    between atoms: CBI_35  and  OBL_36 
ROOT
ATOM      1  NAJ ZZO d   1      -5.513 -33.996  22.149  0.00  0.00    -0.264 N 
ATOM      2  CAI ZZO d   1      -4.944 -33.855  20.874  0.00  0.00     0.267 A 
ATOM      3  OAB ZZO d   1      -4.031 -34.641  20.568  0.00  0.00    -0.267 OA
ATOM      4  CAH ZZO d   1      -5.375 -32.798  20.050  0.00  0.00     0.067 A 
ATOM      5  CAG ZZO d   1      -4.839 -32.559  18.758  0.00  0.00    -0.044 A 
ATOM      6  CAF ZZO d   1      -5.332 -31.491  18.003  0.00  0.00    -0.076 A 
ATOM      7  CAN ZZO d   1      -6.361 -30.694  18.466  0.00  0.00    -0.080 A 
ATOM      8  CAO ZZO d   1      -6.899 -30.940  19.738  0.00  0.00    -0.054 A 
ATOM      9  CAP ZZO d   1      -6.411 -31.980  20.524  0.00  0.00     0.075 A 
ATOM     10  NAQ ZZO d   1      -6.969 -32.169  21.752  0.00  0.00    -0.232 NA
ATOM     11  CAR ZZO d   1      -6.541 -33.175  22.549  0.00  0.00     0.134 A 
ATOM     12  H11 ZZO d   1      -4.897 -31.283  17.032  0.00  0.00     0.084 H 
ATOM     13  H12 ZZO d   1      -6.748 -29.888  17.854  0.00  0.00     0.083 H 
ATOM     14  H13 ZZO d   1      -7.702 -30.315  20.112  0.00  0.00     0.087 H 
ENDROOT
BRANCH  11  15
ATOM     15  CAS ZZO d   1      -7.176 -33.371  23.938  0.00  0.00     0.074 C 
ATOM     16  H14 ZZO d   1      -6.433 -33.752  24.655  0.00  0.00     0.079 H 
ATOM     17  H15 ZZO d   1      -8.024 -34.070  23.883  0.00  0.00     0.079 H 
BRANCH  15  18
ATOM     18  NAV ZZO d   1      -7.640 -32.011  24.333  0.00  0.00    -0.243 N 
ATOM     19  NAU ZZO d   1      -8.782 -31.584  24.058  0.00  0.00    -0.169 NA
ATOM     20  CAZ ZZO d   1      -8.931 -30.327  24.527  0.00  0.00     0.105 A 
ATOM     21  C5  ZZO d   1      -7.707 -30.001  25.141  0.00  0.00     0.088 A 
ATOM     22  C6  ZZO d   1      -6.902 -31.129  25.000  0.00  0.00     0.164 A 
ATOM     23  C4  ZZO d   1      -7.145 -28.913  25.800  0.00  0.00     0.139 A 
ATOM     24  N1  ZZO d   1      -5.629 -31.167  25.461  0.00  0.00    -0.222 NA
ATOM     25  C2  ZZO d   1      -5.117 -30.103  26.075  0.00  0.00     0.091 A 
ATOM     26  N3  ZZO d   1      -5.910 -29.017  26.239  0.00  0.00    -0.224 NA
ATOM     27  H16 ZZO d   1      -4.094 -30.105  26.434  0.00  0.00     0.146 H 
BRANCH  20  28
ATOM     28  CBE ZZO d   1     -10.156 -29.676  24.311  0.00  0.00    -0.002 A 
ATOM     29  CBD ZZO d   1     -10.592 -29.624  22.968  0.00  0.00    -0.031 A 
ATOM     30  CBH ZZO d   1     -11.834 -29.050  22.724  0.00  0.00     0.150 A 
ATOM     31  H19 ZZO d   1      -9.983 -30.016  22.161  0.00  0.00     0.089 H 
ATOM     32  F   ZZO d   1     -12.353 -28.931  21.480  0.00  0.00    -0.203 F 
ATOM     33  CBI ZZO d   1     -12.590 -28.553  23.762  0.00  0.00     0.104 A 
ATOM     34  CBJ ZZO d   1     -12.185 -28.580  25.068  0.00  0.00    -0.047 A 
ATOM     35  CBF ZZO d   1     -10.958 -29.176  25.318  0.00  0.00    -0.068 A 
ATOM     36  H21 ZZO d   1     -12.789 -28.159  25.863  0.00  0.00     0.087 H 
ATOM     37  H22 ZZO d   1     -10.615 -29.252  26.343  0.00  0.00     0.085 H 
BRANCH  33  38
ATOM     38  OBL ZZO d   1     -13.761 -27.997  23.475  0.00  0.00    -0.358 OA
ATOM     39  H20 ZZO d   1     -14.174 -27.699  24.277  0.00  0.00     0.217 HD
ENDBRANCH  33  38
ENDBRANCH  20  28
BRANCH  23  40
ATOM     40  NBG ZZO d   1      -7.864 -27.789  26.019  0.00  0.00    -0.383 N 
ATOM     41  H17 ZZO d   1      -8.831 -27.720  25.670  0.00  0.00     0.157 HD
ATOM     42  H18 ZZO d   1      -7.445 -27.002  26.535  0.00  0.00     0.157 HD
ENDBRANCH  23  40
ENDBRANCH  15  18
ENDBRANCH  11  15
BRANCH   1  43
ATOM     43  CAK ZZO d   1      -5.105 -35.070  22.970  0.00  0.00     0.050 A 
ATOM     44  CAL ZZO d   1      -4.053 -34.975  23.839  0.00  0.00    -0.035 A 
ATOM     45  CAM ZZO d   1      -3.697 -36.084  24.640  0.00  0.00    -0.075 A 
ATOM     46  CAE ZZO d   1      -4.423 -37.263  24.514  0.00  0.00    -0.082 A 
ATOM     47  H4  ZZO d   1      -2.872 -36.016  25.340  0.00  0.00     0.084 H 
ATOM     48  CAD ZZO d   1      -5.490 -37.372  23.619  0.00  0.00    -0.081 A 
ATOM     49  H5  ZZO d   1      -4.155 -38.118  25.125  0.00  0.00     0.083 H 
ATOM     50  CAC ZZO d   1      -5.846 -36.265  22.847  0.00  0.00    -0.056 A 
ATOM     51  H6  ZZO d   1      -6.035 -38.305  23.525  0.00  0.00     0.083 H 
ATOM     52  H7  ZZO d   1      -6.683 -36.322  22.160  0.00  0.00     0.087 H 
BRANCH  44  53
ATOM     53  CAT ZZO d   1      -3.303 -33.683  23.961  0.00  0.00    -0.049 C 
ATOM     54  H1  ZZO d   1      -2.497 -33.795  24.702  0.00  0.00     0.033 H 
ATOM     55  H2  ZZO d   1      -3.991 -32.889  24.285  0.00  0.00     0.033 H 
ATOM     56  H3  ZZO d   1      -2.870 -33.417  22.985  0.00  0.00     0.033 H 
ENDBRANCH  44  53
ENDBRANCH   1  43
BRANCH   5  57
ATOM     57  CAA ZZO d   1      -3.706 -33.408  18.130  0.00  0.00    -0.050 C 
ATOM     58  H8  ZZO d   1      -3.471 -33.022  17.127  0.00  0.00     0.033 H 
ATOM     59  H9  ZZO d   1      -4.033 -34.456  18.052  0.00  0.00     0.033 H 
ATOM     60  H10 ZZO d   1      -2.809 -33.350  18.764  0.00  0.00     0.033 H 
ENDBRANCH   5  57
TORSDOF 8
