REMARK  7 active torsions:
REMARK  status: ('A' for Active; 'I' for Inactive)
REMARK    1  A    between atoms: NAI_3  and  CAJ_4 
REMARK    2  A    between atoms: NAH_7  and  CAG_8 
REMARK    3  A    between atoms: CAO_17  and  CAR_18 
REMARK    4  A    between atoms: CAR_18  and  NAV_19 
REMARK    5  A    between atoms: C4_25  and  NAZ_26 
REMARK    6  A    between atoms: CBB_28  and  CBD_29 
REMARK       I    between atoms: NBM_38  and  CBL_39 
REMARK    7  A    between atoms: CBL_39  and  CBK_40 
ROOT
ATOM      1  CAR RW3 d   1      -6.049 -33.588  23.998  0.00  0.00     0.046 C 
ATOM      2  H   RW3 d   1      -5.256 -33.883  24.685  0.00  0.00     0.075 H 
ATOM      3  H   RW3 d   1      -6.806 -34.372  23.979  0.00  0.00     0.075 H 
ENDROOT
BRANCH   1   4
ATOM      4  CAO RW3 d   1      -5.476 -33.390  22.604  0.00  0.00     0.008 A 
ATOM      5  CAG RW3 d   1      -4.290 -33.866  22.123  0.00  0.00     0.134 A 
ATOM      6  NAF RW3 d   1      -3.915 -33.589  20.898  0.00  0.00    -0.230 NA
ATOM      7  CAE RW3 d   1      -4.640 -32.867  20.058  0.00  0.00     0.069 A 
ATOM      8  CAD RW3 d   1      -4.215 -32.592  18.775  0.00  0.00    -0.054 A 
ATOM      9  CAM RW3 d   1      -5.824 -32.367  20.471  0.00  0.00    -0.007 A 
ATOM     10  CAC RW3 d   1      -4.965 -31.821  17.922  0.00  0.00    -0.081 A 
ATOM     11  H   RW3 d   1      -3.263 -32.996  18.431  0.00  0.00     0.087 H 
ATOM     12  CAK RW3 d   1      -6.158 -31.328  18.347  0.00  0.00    -0.082 A 
ATOM     13  H   RW3 d   1      -4.608 -31.607  16.915  0.00  0.00     0.083 H 
ATOM     14  CAL RW3 d   1      -6.580 -31.605  19.615  0.00  0.00    -0.071 A 
ATOM     15  H   RW3 d   1      -6.771 -30.718  17.683  0.00  0.00     0.083 H 
ATOM     16  H   RW3 d   1      -7.538 -31.213  19.956  0.00  0.00     0.084 H 
ATOM     17  CAN RW3 d   1      -6.240 -32.640  21.734  0.00  0.00    -0.059 A 
ATOM     18  H   RW3 d   1      -7.203 -32.256  22.070  0.00  0.00     0.086 H 
BRANCH   5  19
ATOM     19  NAH RW3 d   1      -3.398 -34.586  22.812  0.00  0.00    -0.362 N 
ATOM     20  CAA RW3 d   1      -3.722 -35.771  23.566  0.00  0.00     0.021 C 
ATOM     21  CAB RW3 d   1      -2.767 -35.952  24.710  0.00  0.00     0.127 C 
ATOM     22  H   RW3 d   1      -4.732 -35.670  23.964  0.00  0.00     0.067 H 
ATOM     23  H   RW3 d   1      -3.651 -36.637  22.908  0.00  0.00     0.067 H 
ATOM     24  NAI RW3 d   1      -1.414 -35.851  24.241  0.00  0.00     0.087 N 
ATOM     25  H   RW3 d   1      -2.920 -36.936  25.153  0.00  0.00     0.082 H 
ATOM     26  H   RW3 d   1      -2.947 -35.176  25.454  0.00  0.00     0.082 H 
ATOM     27  CAQ RW3 d   1      -1.177 -34.516  23.789  0.00  0.00     0.127 C 
ATOM     28  CAP RW3 d   1      -2.040 -34.187  22.613  0.00  0.00     0.021 C 
ATOM     29  H   RW3 d   1      -0.132 -34.428  23.491  0.00  0.00     0.082 H 
ATOM     30  H   RW3 d   1      -1.412 -33.826  24.599  0.00  0.00     0.082 H 
ATOM     31  H   RW3 d   1      -1.652 -34.723  21.747  0.00  0.00     0.067 H 
ATOM     32  H   RW3 d   1      -2.021 -33.107  22.470  0.00  0.00     0.067 H 
BRANCH  24  33
ATOM     33  CAJ RW3 d   1      -0.510 -36.057  25.354  0.00  0.00     0.095 C 
ATOM     34  H   RW3 d   1       0.518 -35.931  25.014  0.00  0.00     0.071 H 
ATOM     35  H   RW3 d   1      -0.727 -35.330  26.136  0.00  0.00     0.071 H 
ATOM     36  H   RW3 d   1      -0.643 -37.065  25.747  0.00  0.00     0.071 H 
ENDBRANCH  24  33
ENDBRANCH   5  19
ENDBRANCH   1   4
BRANCH   1  37
ATOM     37  NAV RW3 d   1      -6.652 -32.323  24.446  0.00  0.00    -0.246 N 
ATOM     38  NBA RW3 d   1      -7.804 -32.044  24.251  0.00  0.00    -0.169 NA
ATOM     39  CBB RW3 d   1      -8.131 -30.870  24.683  0.00  0.00     0.105 A 
ATOM     40  C5  RW3 d   1      -6.977 -30.376  25.263  0.00  0.00     0.088 A 
ATOM     41  C6  RW3 d   1      -6.064 -31.356  25.050  0.00  0.00     0.164 A 
ATOM     42  C4  RW3 d   1      -6.518 -29.233  25.904  0.00  0.00     0.139 A 
ATOM     43  N1  RW3 d   1      -4.841 -31.196  25.462  0.00  0.00    -0.222 NA
ATOM     44  C2  RW3 d   1      -4.473 -30.113  26.063  0.00  0.00     0.091 A 
ATOM     45  N3  RW3 d   1      -5.287 -29.149  26.281  0.00  0.00    -0.224 NA
ATOM     46  H   RW3 d   1      -3.439 -30.017  26.394  0.00  0.00     0.146 H 
BRANCH  39  47
ATOM     47  CBD RW3 d   1      -9.426 -30.363  24.589  0.00  0.00    -0.003 A 
ATOM     48  CBC RW3 d   1     -10.278 -30.648  23.540  0.00  0.00    -0.052 A 
ATOM     49  CBF RW3 d   1     -11.581 -30.166  23.463  0.00  0.00     0.038 A 
ATOM     50  H   RW3 d   1      -9.912 -31.282  22.733  0.00  0.00     0.087 H 
ATOM     51  CBG RW3 d   1     -12.044 -29.403  24.493  0.00  0.00     0.076 A 
ATOM     52  SBJ RW3 d   1     -12.839 -30.280  22.417  0.00  0.00    -0.050 SA
ATOM     53  CBH RW3 d   1     -11.217 -29.140  25.524  0.00  0.00    -0.053 A 
ATOM     54  NBO RW3 d   1     -13.285 -29.013  24.342  0.00  0.00    -0.223 NA
ATOM     55  CBE RW3 d   1      -9.945 -29.613  25.582  0.00  0.00    -0.068 A 
ATOM     56  H   RW3 d   1     -11.584 -28.523  26.344  0.00  0.00     0.087 H 
ATOM     57  H   RW3 d   1      -9.330 -29.381  26.451  0.00  0.00     0.085 H 
ATOM     58  CBN RW3 d   1     -13.852 -29.425  23.253  0.00  0.00     0.174 A 
ATOM     59  NBM RW3 d   1     -15.074 -29.110  22.945  0.00  0.00    -0.306 N 
ATOM     60  CBL RW3 d   1     -15.492 -29.589  21.822  0.00  0.00     0.219 C 
ATOM     61  H   RW3 d   1     -15.659 -28.528  23.545  0.00  0.00     0.171 HD
ATOM     62  OBI RW3 d   1     -14.774 -30.294  21.176  0.00  0.00    -0.274 OA
BRANCH  60  63
ATOM     63  CBK RW3 d   1     -16.886 -29.246  21.386  0.00  0.00    -0.002 C 
ATOM     64  H   RW3 d   1     -16.849 -28.734  20.424  0.00  0.00     0.040 H 
ATOM     65  H   RW3 d   1     -17.471 -30.161  21.290  0.00  0.00     0.040 H 
ATOM     66  H   RW3 d   1     -17.348 -28.595  22.128  0.00  0.00     0.040 H 
ENDBRANCH  60  63
ENDBRANCH  39  47
BRANCH  42  67
ATOM     67  NAZ RW3 d   1      -7.236 -28.213  26.189  0.00  0.00    -0.383 N 
ATOM     68  H   RW3 d   1      -8.226 -28.201  25.943  0.00  0.00     0.157 HD
ATOM     69  H   RW3 d   1      -6.819 -27.412  26.663  0.00  0.00     0.157 HD
ENDBRANCH  42  67
ENDBRANCH   1  37
TORSDOF 7
