REMARK  7 active torsions:
REMARK  status: ('A' for Active; 'I' for Inactive)
REMARK    1  A    between atoms: NAI_3  and  CAJ_4 
REMARK    2  A    between atoms: NAH_7  and  CAG_8 
REMARK    3  A    between atoms: CAO_17  and  CAR_18 
REMARK    4  A    between atoms: CAR_18  and  NAV_19 
REMARK    5  A    between atoms: C4_25  and  NAZ_26 
REMARK    6  A    between atoms: CBB_28  and  CBD_29 
REMARK    7  A    between atoms: CBK_33  and  NBJ_34 
ROOT
ATOM      1  CAG RW4 d   1      13.505  -3.913  22.223  0.00  0.00     0.134 A 
ATOM      2  NAF RW4 d   1      13.207  -3.535  20.943  0.00  0.00    -0.230 NA
ATOM      3  CAE RW4 d   1      12.555  -4.394  20.125  0.00  0.00     0.069 A 
ATOM      4  CAD RW4 d   1      12.256  -3.955  18.817  0.00  0.00    -0.054 A 
ATOM      5  CAC RW4 d   1      11.561  -4.842  17.965  0.00  0.00    -0.081 A 
ATOM      6  CAK RW4 d   1      11.171  -6.144  18.442  0.00  0.00    -0.082 A 
ATOM      7  CAL RW4 d   1      11.460  -6.573  19.763  0.00  0.00    -0.071 A 
ATOM      8  CAM RW4 d   1      12.168  -5.688  20.601  0.00  0.00    -0.007 A 
ATOM      9  CAN RW4 d   1      12.465  -6.083  21.913  0.00  0.00    -0.059 A 
ATOM     10  CAO RW4 d   1      13.146  -5.183  22.738  0.00  0.00     0.008 A 
ATOM     11  H   RW4 d   1      12.552  -2.963  18.475  0.00  0.00     0.087 H 
ATOM     12  H   RW4 d   1      11.320  -4.541  16.946  0.00  0.00     0.083 H 
ATOM     13  H   RW4 d   1      10.639  -6.818  17.770  0.00  0.00     0.083 H 
ATOM     14  H   RW4 d   1      11.145  -7.554  20.118  0.00  0.00     0.084 H 
ATOM     15  H   RW4 d   1      12.172  -7.067  22.280  0.00  0.00     0.086 H 
ENDROOT
BRANCH  10  16
ATOM     16  CAR RW4 d   1      13.436  -5.639  24.158  0.00  0.00     0.046 C 
ATOM     17  H   RW4 d   1      13.688  -4.811  24.820  0.00  0.00     0.075 H 
ATOM     18  H   RW4 d   1      14.311  -6.286  24.219  0.00  0.00     0.075 H 
BRANCH  16  19
ATOM     19  NAV RW4 d   1      12.178  -6.335  24.562  0.00  0.00    -0.246 N 
ATOM     20  NBA RW4 d   1      11.984  -7.560  24.380  0.00  0.00    -0.169 NA
ATOM     21  CBB RW4 d   1      10.741  -7.865  24.844  0.00  0.00     0.105 A 
ATOM     22  C5  RW4 d   1      10.153  -6.732  25.345  0.00  0.00     0.088 A 
ATOM     23  C6  RW4 d   1      11.099  -5.741  25.130  0.00  0.00     0.164 A 
ATOM     24  C4  RW4 d   1       8.936  -6.404  25.922  0.00  0.00     0.139 A 
ATOM     25  N1  RW4 d   1      10.820  -4.480  25.492  0.00  0.00    -0.222 NA
ATOM     26  C2  RW4 d   1       9.627  -4.194  26.047  0.00  0.00     0.091 A 
ATOM     27  N3  RW4 d   1       8.678  -5.114  26.254  0.00  0.00    -0.224 NA
ATOM     28  H   RW4 d   1       9.425  -3.164  26.342  0.00  0.00     0.146 H 
BRANCH  21  29
ATOM     29  CBD RW4 d   1      10.156  -9.114  24.828  0.00  0.00    -0.003 A 
ATOM     30  CBC RW4 d   1      10.506  -9.974  23.786  0.00  0.00    -0.052 A 
ATOM     31  CBF RW4 d   1       9.962 -11.232  23.764  0.00  0.00     0.038 A 
ATOM     32  H   RW4 d   1      11.197  -9.652  23.007  0.00  0.00     0.087 H 
ATOM     33  SBI RW4 d   1      10.189 -12.535  22.646  0.00  0.00    -0.050 SA
ATOM     34  CBG RW4 d   1       9.040 -11.686  24.754  0.00  0.00     0.076 A 
ATOM     35  CBK RW4 d   1       9.089 -13.592  23.484  0.00  0.00     0.165 A 
ATOM     36  NBL RW4 d   1       8.586 -12.968  24.571  0.00  0.00    -0.224 NA
ATOM     37  CBH RW4 d   1       8.700 -10.810  25.790  0.00  0.00    -0.053 A 
ATOM     38  CBE RW4 d   1       9.269  -9.522  25.825  0.00  0.00    -0.068 A 
ATOM     39  H   RW4 d   1       8.000 -11.122  26.565  0.00  0.00     0.087 H 
ATOM     40  H   RW4 d   1       9.015  -8.840  26.636  0.00  0.00     0.085 H 
BRANCH  35  41
ATOM     41  NBJ RW4 d   1       8.802 -14.832  23.087  0.00  0.00    -0.378 N 
ATOM     42  H   RW4 d   1       8.146 -15.400  23.623  0.00  0.00     0.158 HD
ATOM     43  H   RW4 d   1       9.238 -15.212  22.247  0.00  0.00     0.158 HD
ENDBRANCH  35  41
ENDBRANCH  21  29
BRANCH  24  44
ATOM     44  NAZ RW4 d   1       7.992  -7.327  26.119  0.00  0.00    -0.383 N 
ATOM     45  H   RW4 d   1       8.159  -8.295  25.843  0.00  0.00     0.157 HD
ATOM     46  H   RW4 d   1       7.103  -7.065  26.545  0.00  0.00     0.157 HD
ENDBRANCH  24  44
ENDBRANCH  16  19
ENDBRANCH  10  16
BRANCH   1  47
ATOM     47  NAH RW4 d   1      14.198  -2.973  22.989  0.00  0.00    -0.362 N 
ATOM     48  CAA RW4 d   1      13.522  -1.613  23.158  0.00  0.00     0.021 C 
ATOM     49  CAB RW4 d   1      14.027  -0.882  24.447  0.00  0.00     0.127 C 
ATOM     50  H   RW4 d   1      13.763  -0.996  22.293  0.00  0.00     0.067 H 
ATOM     51  H   RW4 d   1      12.447  -1.769  23.247  0.00  0.00     0.067 H 
ATOM     52  NAI RW4 d   1      15.546  -1.044  24.429  0.00  0.00     0.087 N 
ATOM     53  H   RW4 d   1      13.588  -1.307  25.349  0.00  0.00     0.082 H 
ATOM     54  H   RW4 d   1      13.734   0.168  24.455  0.00  0.00     0.082 H 
ATOM     55  CAQ RW4 d   1      15.952  -2.512  24.713  0.00  0.00     0.127 C 
ATOM     56  CAP RW4 d   1      15.548  -3.388  23.503  0.00  0.00     0.021 C 
ATOM     57  H   RW4 d   1      15.445  -2.867  25.610  0.00  0.00     0.082 H 
ATOM     58  H   RW4 d   1      17.029  -2.573  24.868  0.00  0.00     0.082 H 
ATOM     59  H   RW4 d   1      15.505  -4.431  23.816  0.00  0.00     0.067 H 
ATOM     60  H   RW4 d   1      16.285  -3.263  22.710  0.00  0.00     0.067 H 
BRANCH  52  61
ATOM     61  CAJ RW4 d   1      16.040  -0.625  23.045  0.00  0.00     0.095 C 
ATOM     62  H   RW4 d   1      17.126  -0.712  23.007  0.00  0.00     0.071 H 
ATOM     63  H   RW4 d   1      15.595  -1.274  22.290  0.00  0.00     0.071 H 
ATOM     64  H   RW4 d   1      15.750   0.408  22.855  0.00  0.00     0.071 H 
ENDBRANCH  52  61
ENDBRANCH   1  47
TORSDOF 7
