REMARK  4 active torsions:
REMARK  status: ('A' for Active; 'I' for Inactive)
REMARK    1  A    between atoms: NAV_6  and  CAU_7 
REMARK    2  A    between atoms: CAS_10  and  NAY_11 
REMARK    3  A    between atoms: CAO_18  and  NAJ_19 
REMARK    4  A    between atoms: CAD_27  and  CAC_28 
ROOT
ATOM      1  CAU ZS4 d   1      -7.788 -30.157  24.543  0.00  0.00     0.756 A 
ATOM      2  NAP ZS4 d   1      -9.029 -29.793  24.199  0.00  0.00     0.132 NA
ATOM      3  NAT ZS4 d   1      -7.281 -31.314  24.076  0.00  0.00     0.131 NA
ATOM      4  CAS ZS4 d   1      -8.034 -32.080  23.273  0.00  0.00     0.756 A 
ATOM      5  NAN ZS4 d   1      -9.278 -31.707  22.916  0.00  0.00     0.132 NA
ATOM      6  CAO ZS4 d   1      -9.764 -30.537  23.377  0.00  0.00     0.766 A 
ENDROOT
BRANCH   6   7
ATOM      7  NAJ ZS4 d   1     -10.995 -30.182  23.043  0.00  0.00    -0.122 N 
ATOM      8  CAK ZS4 d   1     -11.809 -29.445  23.773  0.00  0.00     0.087 A 
ATOM      9  CAL ZS4 d   1     -11.663 -28.795  24.998  0.00  0.00    -0.054 A 
ATOM     10  CAF ZS4 d   1     -12.994 -29.358  23.057  0.00  0.00     0.086 A 
ATOM     11  CAM ZS4 d   1     -12.735 -28.054  25.482  0.00  0.00    -0.081 A 
ATOM     12  H17 ZS4 d   1     -10.738 -28.866  25.558  0.00  0.00     0.087 H 
ATOM     13  CAH ZS4 d   1     -13.930 -27.969  24.766  0.00  0.00    -0.081 A 
ATOM     14  H18 ZS4 d   1     -12.641 -27.535  26.429  0.00  0.00     0.083 H 
ATOM     15  CAG ZS4 d   1     -14.057 -28.619  23.537  0.00  0.00    -0.053 A 
ATOM     16  H19 ZS4 d   1     -14.761 -27.398  25.165  0.00  0.00     0.083 H 
ATOM     17  H20 ZS4 d   1     -14.977 -28.545  22.968  0.00  0.00     0.087 H 
ATOM     18  NAE ZS4 d   1     -12.862 -30.032  21.930  0.00  0.00    -0.227 NA
ATOM     19  CAD ZS4 d   1     -11.659 -30.561  21.954  0.00  0.00     0.193 A 
BRANCH  19  20
ATOM     20  CAC ZS4 d   1     -11.097 -31.358  20.813  0.00  0.00     0.265 C 
ATOM     21  FA  ZS4 d   1     -11.990 -31.491  19.805  0.00  0.00    -0.206 F 
ATOM     22  FB  ZS4 d   1     -10.251 -30.446  20.282  0.00  0.00    -0.206 F 
ATOM     23  H21 ZS4 d   1     -10.644 -32.311  21.124  0.00  0.00     0.158 H 
ENDBRANCH  19  20
ENDBRANCH   6   7
BRANCH   1  24
ATOM     24  NAV ZS4 d   1      -6.992 -29.346  25.359  0.00  0.00    -0.209 N 
ATOM     25  CAQ ZS4 d   1      -7.511 -28.078  25.918  0.00  0.00     0.032 C 
ATOM     26  CAR ZS4 d   1      -7.030 -27.980  27.350  0.00  0.00     0.035 C 
ATOM     27  H1  ZS4 d   1      -7.130 -27.227  25.335  0.00  0.00     0.068 H 
ATOM     28  H2  ZS4 d   1      -8.611 -28.078  25.891  0.00  0.00     0.068 H 
ATOM     29  OAW ZS4 d   1      -5.583 -28.215  27.513  0.00  0.00    -0.388 OA
ATOM     30  H3  ZS4 d   1      -7.572 -28.727  27.949  0.00  0.00     0.076 H 
ATOM     31  H4  ZS4 d   1      -7.261 -26.972  27.725  0.00  0.00     0.076 H 
ATOM     32  CBB ZS4 d   1      -5.246 -29.530  27.116  0.00  0.00     0.035 C 
ATOM     33  CBA ZS4 d   1      -5.584 -29.667  25.630  0.00  0.00     0.032 C 
ATOM     34  H5  ZS4 d   1      -5.826 -30.259  27.701  0.00  0.00     0.076 H 
ATOM     35  H6  ZS4 d   1      -4.172 -29.706  27.274  0.00  0.00     0.076 H 
ATOM     36  H7  ZS4 d   1      -5.388 -30.702  25.314  0.00  0.00     0.068 H 
ATOM     37  H8  ZS4 d   1      -4.945 -28.981  25.055  0.00  0.00     0.068 H 
ENDBRANCH   1  24
BRANCH   4  38
ATOM     38  NAY ZS4 d   1      -7.515 -33.295  22.833  0.00  0.00    -0.209 N 
ATOM     39  CAZ ZS4 d   1      -6.166 -33.713  23.238  0.00  0.00     0.032 C 
ATOM     40  CAI ZS4 d   1      -6.175 -35.153  23.739  0.00  0.00     0.035 C 
ATOM     41  H9  ZS4 d   1      -5.810 -33.053  24.043  0.00  0.00     0.068 H 
ATOM     42  H10 ZS4 d   1      -5.489 -33.636  22.374  0.00  0.00     0.068 H 
ATOM     43  OBD ZS4 d   1      -7.278 -35.988  23.292  0.00  0.00    -0.388 OA
ATOM     44  H11 ZS4 d   1      -6.202 -35.124  24.838  0.00  0.00     0.076 H 
ATOM     45  H12 ZS4 d   1      -5.240 -35.628  23.407  0.00  0.00     0.076 H 
ATOM     46  CBC ZS4 d   1      -8.540 -35.489  22.760  0.00  0.00     0.035 C 
ATOM     47  CAX ZS4 d   1      -8.358 -34.178  22.026  0.00  0.00     0.032 C 
ATOM     48  H13 ZS4 d   1      -9.243 -35.337  23.593  0.00  0.00     0.076 H 
ATOM     49  H14 ZS4 d   1      -8.953 -36.233  22.063  0.00  0.00     0.076 H 
ATOM     50  H15 ZS4 d   1      -7.876 -34.363  21.055  0.00  0.00     0.068 H 
ATOM     51  H16 ZS4 d   1      -9.338 -33.706  21.865  0.00  0.00     0.068 H 
ENDBRANCH   4  38
TORSDOF 4
