REMARK  6 active torsions:
REMARK  status: ('A' for Active; 'I' for Inactive)
REMARK    1  A    between atoms: CAA_1  and  CAB_2 
REMARK    2  A    between atoms: CAB_2  and  CAC_3 
REMARK    3  A    between atoms: CAB_2  and  NAE_4 
REMARK    4  A    between atoms: C4_10  and  NAN_11 
REMARK    5  A    between atoms: CAI_13  and  CAM_14 
REMARK    6  A    between atoms: CAO_15  and  CAP_16 
ROOT
ATOM      1  NAE ZZM d   1      -6.419  -0.692  24.192  0.00  0.00    -0.246 N 
ATOM      2  NAD ZZM d   1      -7.562  -0.329  23.873  0.00  0.00    -0.160 NA
ATOM      3  C6  ZZM d   1      -5.825   0.281  24.920  0.00  0.00     0.164 A 
ATOM      4  N1  ZZM d   1      -4.623   0.449  25.504  0.00  0.00    -0.222 NA
ATOM      5  C2  ZZM d   1      -4.288   1.547  26.182  0.00  0.00     0.091 A 
ATOM      6  N3  ZZM d   1      -5.138   2.537  26.328  0.00  0.00    -0.224 NA
ATOM      7  C4  ZZM d   1      -6.375   2.466  25.758  0.00  0.00     0.139 A 
ATOM      8  C5  ZZM d   1      -6.731   1.320  25.038  0.00  0.00     0.096 A 
ATOM      9  CAI ZZM d   1      -7.808   0.893  24.313  0.00  0.00     0.148 A 
ATOM     10  H   ZZM d   1      -3.294   1.624  26.622  0.00  0.00     0.146 H 
ENDROOT
BRANCH   9  11
ATOM     11  CAM ZZM d   1      -9.047   1.548  24.157  0.00  0.00    -0.038 C 
ATOM     12  CAO ZZM d   1     -10.110   1.999  23.946  0.00  0.00    -0.058 C 
BRANCH  12  13
ATOM     13  CAP ZZM d   1     -11.389   2.455  23.640  0.00  0.00     0.035 A 
ATOM     14  CAQ ZZM d   1     -11.976   3.437  24.412  0.00  0.00    -0.062 A 
ATOM     15  CAR ZZM d   1     -13.248   3.866  24.055  0.00  0.00    -0.065 A 
ATOM     16  H   ZZM d   1     -11.459   3.861  25.273  0.00  0.00     0.085 H 
ATOM     17  CAU ZZM d   1     -13.881   3.286  22.965  0.00  0.00     0.002 A 
ATOM     18  H   ZZM d   1     -13.744   4.651  24.626  0.00  0.00     0.085 H 
ATOM     19  NAT ZZM d   1     -13.293   2.349  22.252  0.00  0.00    -0.272 NA
ATOM     20  H   ZZM d   1     -14.885   3.613  22.694  0.00  0.00     0.114 H 
ATOM     21  CAS ZZM d   1     -12.079   1.905  22.567  0.00  0.00     0.020 A 
ATOM     22  H   ZZM d   1     -11.624   1.107  21.981  0.00  0.00     0.117 H 
ENDBRANCH  12  13
ENDBRANCH   9  11
BRANCH   1  23
ATOM     23  CAB ZZM d   1      -5.910  -2.027  23.696  0.00  0.00     0.029 C 
ATOM     24  H   ZZM d   1      -5.847  -1.946  22.611  0.00  0.00     0.074 H 
BRANCH  23  25
ATOM     25  CAA ZZM d   1      -4.484  -2.390  24.109  0.00  0.00    -0.056 C 
ATOM     26  H   ZZM d   1      -3.794  -1.639  23.726  0.00  0.00     0.030 H 
ATOM     27  H   ZZM d   1      -4.420  -2.424  25.197  0.00  0.00     0.030 H 
ATOM     28  H   ZZM d   1      -4.225  -3.366  23.698  0.00  0.00     0.030 H 
ENDBRANCH  23  25
BRANCH  23  29
ATOM     29  CAC ZZM d   1      -6.893  -3.106  24.114  0.00  0.00    -0.056 C 
ATOM     30  H   ZZM d   1      -6.975  -3.120  25.201  0.00  0.00     0.030 H 
ATOM     31  H   ZZM d   1      -7.869  -2.895  23.678  0.00  0.00     0.030 H 
ATOM     32  H   ZZM d   1      -6.538  -4.075  23.763  0.00  0.00     0.030 H 
ENDBRANCH  23  29
ENDBRANCH   1  23
BRANCH   7  33
ATOM     33  NAN ZZM d   1      -7.218   3.486  25.875  0.00  0.00    -0.383 N 
ATOM     34  H   ZZM d   1      -8.138   3.440  25.437  0.00  0.00     0.157 HD
ATOM     35  H   ZZM d   1      -6.945   4.315  26.403  0.00  0.00     0.157 HD
ENDBRANCH   7  33
TORSDOF 6
