REMARK  7 active torsions:
REMARK  status: ('A' for Active; 'I' for Inactive)
REMARK    1  A    between atoms: C19_2  and  C20_1 
REMARK    2  A    between atoms: C19_2  and  C21_3 
REMARK    3  A    between atoms: N7_4  and  C19_2 
REMARK    4  A    between atoms: C5_10  and  N10_11 
REMARK    5  A    between atoms: C11_13  and  C12_14 
REMARK    6  A    between atoms: C14_19  and  O18_20 
REMARK    7  A    between atoms: CAI_21  and  CAM_22 
ROOT
ATOM      1  N7  DLN d   1       6.394  -0.671 -24.320  0.00  0.00    -0.246 N 
ATOM      2  N8  DLN d   1       7.534  -0.328 -23.972  0.00  0.00    -0.160 NA
ATOM      3  C3  DLN d   1       5.788   0.320 -25.025  0.00  0.00     0.164 A 
ATOM      4  N2  DLN d   1       4.565   0.518 -25.579  0.00  0.00    -0.222 NA
ATOM      5  C1  DLN d   1       4.297   1.660 -26.269  0.00  0.00     0.091 A 
ATOM      6  N6  DLN d   1       5.180   2.685 -26.340  0.00  0.00    -0.224 NA
ATOM      7  C5  DLN d   1       6.405   2.520 -25.772  0.00  0.00     0.139 A 
ATOM      8  C4  DLN d   1       6.717   1.351 -25.122  0.00  0.00     0.096 A 
ATOM      9  CAI DLN d   1       7.807   0.900 -24.441  0.00  0.00     0.148 A 
ATOM     10  H   DLN d   1       3.340   1.753 -26.782  0.00  0.00     0.146 H 
ENDROOT
BRANCH   9  11
ATOM     11  CAM DLN d   1       8.998   1.613 -24.260  0.00  0.00    -0.038 C 
ATOM     12  C11 DLN d   1      10.073   2.102 -24.105  0.00  0.00    -0.060 C 
BRANCH  12  13
ATOM     13  C12 DLN d   1      11.418   2.530 -24.044  0.00  0.00     0.020 A 
ATOM     14  C13 DLN d   1      12.146   2.205 -22.939  0.00  0.00    -0.033 A 
ATOM     15  C14 DLN d   1      13.472   2.604 -22.906  0.00  0.00     0.067 A 
ATOM     16  H   DLN d   1      11.701   1.652 -22.112  0.00  0.00     0.090 H 
ATOM     17  C15 DLN d   1      14.058   3.308 -23.972  0.00  0.00    -0.051 A 
ATOM     18  C16 DLN d   1      13.342   3.606 -25.098  0.00  0.00    -0.079 A 
ATOM     19  H   DLN d   1      15.100   3.621 -23.900  0.00  0.00     0.087 H 
ATOM     20  C17 DLN d   1      12.005   3.193 -25.125  0.00  0.00    -0.065 A 
ATOM     21  H   DLN d   1      13.791   4.140 -25.935  0.00  0.00     0.083 H 
ATOM     22  H   DLN d   1      11.406   3.394 -26.013  0.00  0.00     0.085 H 
BRANCH  15  23
ATOM     23  O18 DLN d   1      14.230   2.293 -21.791  0.00  0.00    -0.361 OA
ATOM     24  H   DLN d   1      14.974   1.746 -22.054  0.00  0.00     0.217 HD
ENDBRANCH  15  23
ENDBRANCH  12  13
ENDBRANCH   9  11
BRANCH   1  25
ATOM     25  C19 DLN d   1       5.857  -1.970 -23.841  0.00  0.00     0.029 C 
ATOM     26  H   DLN d   1       5.528  -1.835 -22.811  0.00  0.00     0.074 H 
BRANCH  25  27
ATOM     27  C20 DLN d   1       6.970  -3.032 -23.851  0.00  0.00    -0.056 C 
ATOM     28  H   DLN d   1       7.348  -3.151 -24.866  0.00  0.00     0.030 H 
ATOM     29  H   DLN d   1       7.780  -2.713 -23.195  0.00  0.00     0.030 H 
ATOM     30  H   DLN d   1       6.567  -3.982 -23.498  0.00  0.00     0.030 H 
ENDBRANCH  25  27
BRANCH  25  31
ATOM     31  C21 DLN d   1       4.595  -2.414 -24.580  0.00  0.00    -0.056 C 
ATOM     32  H   DLN d   1       3.814  -1.666 -24.444  0.00  0.00     0.030 H 
ATOM     33  H   DLN d   1       4.816  -2.522 -25.642  0.00  0.00     0.030 H 
ATOM     34  H   DLN d   1       4.258  -3.370 -24.179  0.00  0.00     0.030 H 
ENDBRANCH  25  31
ENDBRANCH   1  25
BRANCH   7  35
ATOM     35  N10 DLN d   1       7.330   3.424 -25.851  0.00  0.00    -0.383 N 
ATOM     36  H   DLN d   1       8.247   3.252 -25.439  0.00  0.00     0.157 HD
ATOM     37  H   DLN d   1       7.141   4.307 -26.325  0.00  0.00     0.157 HD
ENDBRANCH   7  35
TORSDOF 7
