REMARK  9 active torsions:
REMARK  status: ('A' for Active; 'I' for Inactive)
REMARK    1  A    between atoms: CAY_1  and  OBE_2 
REMARK    2  A    between atoms: OBE_2  and  CAK_3 
REMARK    3  A    between atoms: CBB_6  and  OBC_7 
REMARK    4  A    between atoms: OBC_7  and  CBD_8 
REMARK    5  A    between atoms: CAZ_10  and  NAX_11 
REMARK    6  A    between atoms: NAX_11  and  CAR_12 
REMARK    7  A    between atoms: CAM_21  and  NAL_22 
REMARK    8  A    between atoms: NAL_22  and  SAI_23 
REMARK    9  A    between atoms: SAI_23  and  CAG_26 
ROOT
ATOM      1  CAR ZZP d   1      -9.135   1.059  23.674  0.00  0.00     0.176 A 
ATOM      2  NAS ZZP d   1      -9.742   1.939  24.512  0.00  0.00    -0.225 NA
ATOM      3  CAT ZZP d   1     -11.050   2.233  24.362  0.00  0.00     0.088 A 
ATOM      4  CAU ZZP d   1     -11.691   3.120  25.224  0.00  0.00    -0.053 A 
ATOM      5  CAV ZZP d   1     -13.042   3.437  25.046  0.00  0.00    -0.081 A 
ATOM      6  CAQ ZZP d   1     -13.758   2.862  24.005  0.00  0.00    -0.081 A 
ATOM      7  CAP ZZP d   1     -13.129   1.960  23.139  0.00  0.00    -0.053 A 
ATOM      8  CAO ZZP d   1     -11.775   1.656  23.328  0.00  0.00     0.088 A 
ATOM      9  NAN ZZP d   1     -11.161   0.808  22.494  0.00  0.00    -0.225 NA
ATOM     10  CAM ZZP d   1      -9.877   0.493  22.627  0.00  0.00     0.184 A 
ATOM     11  H11 ZZP d   1     -11.137   3.569  26.041  0.00  0.00     0.087 H 
ATOM     12  H12 ZZP d   1     -13.530   4.131  25.721  0.00  0.00     0.083 H 
ATOM     13  H13 ZZP d   1     -14.803   3.111  23.863  0.00  0.00     0.083 H 
ATOM     14  H14 ZZP d   1     -13.685   1.501  22.329  0.00  0.00     0.087 H 
ENDROOT
BRANCH   1  15
ATOM     15  NAX ZZP d   1      -7.842   0.712  23.799  0.00  0.00    -0.338 N 
ATOM     16  H10 ZZP d   1      -7.490   0.041  23.102  0.00  0.00     0.167 HD
BRANCH  15  17
ATOM     17  CAZ ZZP d   1      -6.955   1.121  24.705  0.00  0.00     0.039 A 
ATOM     18  CBF ZZP d   1      -7.162   2.152  25.635  0.00  0.00    -0.025 A 
ATOM     19  CAK ZZP d   1      -6.136   2.488  26.531  0.00  0.00     0.073 A 
ATOM     20  H4  ZZP d   1      -8.106   2.684  25.661  0.00  0.00     0.091 H 
ATOM     21  CAW ZZP d   1      -4.913   1.803  26.505  0.00  0.00    -0.019 A 
ATOM     22  CBB ZZP d   1      -4.710   0.775  25.573  0.00  0.00     0.073 A 
ATOM     23  H5  ZZP d   1      -4.127   2.067  27.203  0.00  0.00     0.092 H 
ATOM     24  CBA ZZP d   1      -5.734   0.444  24.684  0.00  0.00    -0.025 A 
ATOM     25  H9  ZZP d   1      -5.579  -0.352  23.965  0.00  0.00     0.091 H 
BRANCH  19  26
ATOM     26  OBE ZZP d   1      -6.256   3.484  27.451  0.00  0.00    -0.356 OA
BRANCH  26  27
ATOM     27  CAY ZZP d   1      -7.564   4.052  27.591  0.00  0.00     0.010 C 
ATOM     28  H1  ZZP d   1      -7.541   4.841  28.357  0.00  0.00     0.066 H 
ATOM     29  H2  ZZP d   1      -8.274   3.268  27.894  0.00  0.00     0.066 H 
ATOM     30  H3  ZZP d   1      -7.881   4.483  26.630  0.00  0.00     0.066 H 
ENDBRANCH  26  27
ENDBRANCH  19  26
BRANCH  22  31
ATOM     31  OBC ZZP d   1      -3.520   0.098  25.530  0.00  0.00    -0.356 OA
BRANCH  31  32
ATOM     32  CBD ZZP d   1      -3.584  -1.123  24.728  0.00  0.00     0.010 C 
ATOM     33  H6  ZZP d   1      -2.601  -1.617  24.734  0.00  0.00     0.066 H 
ATOM     34  H7  ZZP d   1      -3.860  -0.869  23.694  0.00  0.00     0.066 H 
ATOM     35  H8  ZZP d   1      -4.338  -1.802  25.153  0.00  0.00     0.066 H 
ENDBRANCH  31  32
ENDBRANCH  22  31
ENDBRANCH  15  17
ENDBRANCH   1  15
BRANCH  10  36
ATOM     36  NAL ZZP d   1      -9.340  -0.371  21.762  0.00  0.00    -0.261 N 
ATOM     37  H15 ZZP d   1      -8.353  -0.529  21.785  0.00  0.00     0.180 HD
BRANCH  36  38
ATOM     38  SAI ZZP d   1     -10.262  -1.194  20.646  0.00  0.00     0.264 S 
ATOM     39  OAJ ZZP d   1      -9.368  -1.923  19.711  0.00  0.00    -0.200 OA
ATOM     40  OAH ZZP d   1     -11.165  -0.216  19.892  0.00  0.00    -0.200 OA
BRANCH  38  41
ATOM     41  CAG ZZP d   1     -11.253  -2.336  21.528  0.00  0.00     0.080 A 
ATOM     42  CAF ZZP d   1     -12.614  -2.432  21.252  0.00  0.00    -0.057 A 
ATOM     43  CAE ZZP d   1     -13.394  -3.334  21.964  0.00  0.00    -0.044 A 
ATOM     44  H16 ZZP d   1     -13.062  -1.808  20.487  0.00  0.00     0.086 H 
ATOM     45  CAB ZZP d   1     -12.794  -4.136  22.945  0.00  0.00     0.116 A 
ATOM     46  H17 ZZP d   1     -14.456  -3.417  21.763  0.00  0.00     0.088 H 
ATOM     47  FAA ZZP d   1     -13.555  -5.006  23.626  0.00  0.00    -0.206 F 
ATOM     48  CAC ZZP d   1     -11.426  -4.057  23.219  0.00  0.00    -0.044 A 
ATOM     49  CAD ZZP d   1     -10.656  -3.141  22.502  0.00  0.00    -0.057 A 
ATOM     50  H18 ZZP d   1     -10.974  -4.693  23.971  0.00  0.00     0.088 H 
ATOM     51  H19 ZZP d   1      -9.594  -3.054  22.701  0.00  0.00     0.086 H 
ENDBRANCH  38  41
ENDBRANCH  36  38
ENDBRANCH  10  36
TORSDOF 9
