REMARK  5 active torsions:
REMARK  status: ('A' for Active; 'I' for Inactive)
REMARK    1  A    between atoms: C4_2  and  N3_13 
REMARK    2  A    between atoms: C7_6  and  C5_3 
REMARK    3  A    between atoms: N4_17  and  C7_6 
REMARK    4  A    between atoms: S2_19  and  C13_14 
REMARK    5  A    between atoms: S2_19  and  N5_21 
ROOT
ATOM      1  C4  GD9 d   1      -7.980   0.579  24.683  0.00  0.00     0.147 A 
ATOM      2  C5  GD9 d   1      -6.716  -2.964  23.827  0.00  0.00     0.011 A 
ATOM      3  C6  GD9 d   1      -7.935  -2.757  23.336  0.00  0.00    -0.039 A 
ATOM      4  N1  GD9 d   1      -9.631  -1.048  23.229  0.00  0.00    -0.227 NA
ATOM      5  C8  GD9 d   1     -11.232   0.657  23.219  0.00  0.00     0.026 A 
ATOM      6  N2  GD9 d   1      -9.160   1.003  24.286  0.00  0.00    -0.209 NA
ATOM      7  S1  GD9 d   1      -6.162  -1.621  24.614  0.00  0.00    -0.087 SA
ATOM      8  C2  GD9 d   1      -8.434  -1.537  23.572  0.00  0.00     0.081 A 
ATOM      9  C1  GD9 d   1      -7.579  -0.711  24.330  0.00  0.00     0.080 A 
ATOM     10  C3  GD9 d   1      -9.974   0.210  23.564  0.00  0.00     0.163 A 
ATOM     11  C18 GD9 d   1     -11.875   0.098  22.116  0.00  0.00    -0.068 A 
ATOM     12  C19 GD9 d   1     -13.178   0.524  21.781  0.00  0.00    -0.080 A 
ATOM     13  C20 GD9 d   1     -13.821   1.483  22.574  0.00  0.00    -0.053 A 
ATOM     14  C21 GD9 d   1     -13.182   2.013  23.701  0.00  0.00     0.089 A 
ATOM     15  N6  GD9 d   1     -13.551   2.906  24.631  0.00  0.00    -0.175 NA
ATOM     16  C22 GD9 d   1     -11.905   1.597  24.017  0.00  0.00     0.025 A 
ATOM     17  C23 GD9 d   1     -11.610   2.280  25.120  0.00  0.00     0.009 A 
ATOM     18  N7  GD9 d   1     -12.647   3.059  25.453  0.00  0.00    -0.288 N 
ATOM     19  H1  GD9 d   1      -8.484  -3.520  22.785  0.00  0.00     0.088 H 
ATOM     20  H20 GD9 d   1     -11.378  -0.658  21.520  0.00  0.00     0.085 H 
ATOM     21  H21 GD9 d   1     -13.679   0.111  20.913  0.00  0.00     0.083 H 
ATOM     22  H22 GD9 d   1     -14.819   1.817  22.314  0.00  0.00     0.087 H 
ATOM     23  H23 GD9 d   1     -10.671   2.216  25.667  0.00  0.00     0.115 H 
ATOM     24  H24 GD9 d   1     -12.683   3.687  26.268  0.00  0.00     0.188 HD
ENDROOT
BRANCH   2  25
ATOM     25  C7  GD9 d   1      -5.851  -4.211  23.728  0.00  0.00     0.113 C 
ATOM     26  H2  GD9 d   1      -6.380  -5.059  24.188  0.00  0.00     0.084 H 
ATOM     27  H3  GD9 d   1      -4.902  -4.040  24.258  0.00  0.00     0.084 H 
BRANCH  25  28
ATOM     28  N4  GD9 d   1      -5.578  -4.512  22.342  0.00  0.00    -0.064 N 
ATOM     29  C9  GD9 d   1      -5.763  -5.957  22.150  0.00  0.00     0.095 C 
ATOM     30  C10 GD9 d   1      -5.846  -6.271  20.641  0.00  0.00     0.016 C 
ATOM     31  H4  GD9 d   1      -4.912  -6.497  22.590  0.00  0.00     0.077 H 
ATOM     32  H5  GD9 d   1      -6.694  -6.276  22.642  0.00  0.00     0.077 H 
ATOM     33  N5  GD9 d   1      -5.173  -5.213  19.846  0.00  0.00    -0.208 NA
ATOM     34  H6  GD9 d   1      -6.903  -6.330  20.342  0.00  0.00     0.059 H 
ATOM     35  H7  GD9 d   1      -5.356  -7.236  20.446  0.00  0.00     0.059 H 
ATOM     36  C11 GD9 d   1      -3.958  -4.673  20.511  0.00  0.00     0.016 C 
ATOM     37  C12 GD9 d   1      -4.279  -4.014  21.876  0.00  0.00     0.095 C 
ATOM     38  H8  GD9 d   1      -3.248  -5.497  20.674  0.00  0.00     0.059 H 
ATOM     39  H9  GD9 d   1      -3.500  -3.920  19.853  0.00  0.00     0.059 H 
ATOM     40  H10 GD9 d   1      -4.321  -2.921  21.759  0.00  0.00     0.077 H 
ATOM     41  H11 GD9 d   1      -3.499  -4.275  22.606  0.00  0.00     0.077 H 
ATOM     42  H19 GD9 d   1      -6.276  -4.042  21.787  0.00  0.00     0.280 HD
BRANCH  33  43
ATOM     43  S2  GD9 d   1      -4.884  -5.740  18.252  0.00  0.00     0.207 S 
ATOM     44  O2  GD9 d   1      -6.187  -5.740  17.514  0.00  0.00    -0.212 OA
ATOM     45  O1  GD9 d   1      -3.920  -4.800  17.566  0.00  0.00    -0.212 OA
BRANCH  43  46
ATOM     46  C13 GD9 d   1      -4.179  -7.391  18.258  0.00  0.00     0.028 C 
ATOM     47  H12 GD9 d   1      -4.873  -8.084  18.756  0.00  0.00     0.050 H 
ATOM     48  H13 GD9 d   1      -3.222  -7.379  18.800  0.00  0.00     0.050 H 
ATOM     49  H14 GD9 d   1      -4.010  -7.721  17.223  0.00  0.00     0.050 H 
ENDBRANCH  43  46
ENDBRANCH  33  43
ENDBRANCH  25  28
ENDBRANCH   2  25
BRANCH   1  50
ATOM     50  N3  GD9 d   1      -7.184   1.471  25.399  0.00  0.00    -0.361 N 
ATOM     51  C14 GD9 d   1      -5.746   1.246  25.519  0.00  0.00     0.016 C 
ATOM     52  C15 GD9 d   1      -5.195   1.573  26.919  0.00  0.00     0.034 C 
ATOM     53  H15 GD9 d   1      -5.230   1.881  24.784  0.00  0.00     0.067 H 
ATOM     54  H16 GD9 d   1      -5.538   0.188  25.300  0.00  0.00     0.067 H 
ATOM     55  O3  GD9 d   1      -5.997   2.505  27.656  0.00  0.00    -0.388 OA
ATOM     56  H17 GD9 d   1      -5.134   0.637  27.494  0.00  0.00     0.076 H 
ATOM     57  H18 GD9 d   1      -4.187   1.999  26.804  0.00  0.00     0.076 H 
ATOM     58  C16 GD9 d   1      -6.856   3.355  26.921  0.00  0.00     0.034 C 
ATOM     59  C17 GD9 d   1      -7.784   2.704  25.946  0.00  0.00     0.016 C 
ATOM     60  H25 GD9 d   1      -6.225   4.059  26.359  0.00  0.00     0.076 H 
ATOM     61  H26 GD9 d   1      -7.471   3.911  27.644  0.00  0.00     0.076 H 
ATOM     62  H27 GD9 d   1      -8.725   2.452  26.456  0.00  0.00     0.067 H 
ATOM     63  H28 GD9 d   1      -7.989   3.402  25.121  0.00  0.00     0.067 H 
ENDBRANCH   1  50
TORSDOF 5
