REMARK  7 active torsions:
REMARK  status: ('A' for Active; 'I' for Inactive)
REMARK    1  A    between atoms: CBC_1  and  OBB_2 
REMARK    2  A    between atoms: OBB_2  and  CBG_3 
REMARK    3  A    between atoms: CBF_8  and  NAT_9 
REMARK    4  A    between atoms: CAF_19  and  SAG_20 
REMARK    5  A    between atoms: SAG_20  and  CAH_21 
REMARK    6  A    between atoms: CAH_21  and  CAI_22 
REMARK       I    between atoms: CAI_22  and  NAJ_24 
REMARK    7  A    between atoms: NAJ_24  and  CAK_25 
ROOT
ATOM      1  NAT ZZQ d   1      -5.182  -4.978  19.664  0.00  0.00    -0.254 N 
ATOM      2  CAS ZZQ d   1      -4.265  -4.441  18.724  0.00  0.00     0.262 A 
ATOM      3  OBA ZZQ d   1      -4.320  -4.705  17.513  0.00  0.00    -0.267 OA
ATOM      4  CAR ZZQ d   1      -3.267  -3.580  19.183  0.00  0.00     0.035 A 
ATOM      5  CAQ ZZQ d   1      -2.294  -2.986  18.192  0.00  0.00    -0.034 C 
ATOM      6  CAP ZZQ d   1      -1.058  -2.392  18.888  0.00  0.00    -0.061 C 
ATOM      7  CAB ZZQ d   1      -1.314  -1.598  20.191  0.00  0.00    -0.060 C 
ATOM      8  CAC ZZQ d   1      -2.139  -2.354  21.246  0.00  0.00    -0.024 C 
ATOM      9  CAD ZZQ d   1      -3.201  -3.280  20.565  0.00  0.00     0.049 A 
ATOM     10  NAE ZZQ d   1      -4.093  -3.829  21.400  0.00  0.00    -0.228 NA
ATOM     11  CAF ZZQ d   1      -5.052  -4.642  20.987  0.00  0.00     0.177 A 
ATOM     12  H   ZZQ d   1      -2.801  -2.185  17.653  0.00  0.00     0.040 H 
ATOM     13  H   ZZQ d   1      -1.961  -3.779  17.522  0.00  0.00     0.040 H 
ATOM     14  H   ZZQ d   1      -0.626  -1.682  18.182  0.00  0.00     0.033 H 
ATOM     15  H   ZZQ d   1      -0.433  -3.240  19.169  0.00  0.00     0.033 H 
ATOM     16  H   ZZQ d   1      -1.883  -0.710  19.917  0.00  0.00     0.033 H 
ATOM     17  H   ZZQ d   1      -0.340  -1.391  20.635  0.00  0.00     0.033 H 
ATOM     18  H   ZZQ d   1      -2.657  -1.628  21.873  0.00  0.00     0.042 H 
ATOM     19  H   ZZQ d   1      -1.466  -2.971  21.841  0.00  0.00     0.042 H 
ENDROOT
BRANCH  11  20
ATOM     20  SAG ZZQ d   1      -6.211  -5.317  22.098  0.00  0.00    -0.082 SA
BRANCH  20  21
ATOM     21  CAH ZZQ d   1      -5.995  -4.238  23.596  0.00  0.00     0.058 C 
ATOM     22  H   ZZQ d   1      -5.033  -3.733  23.681  0.00  0.00     0.064 H 
ATOM     23  H   ZZQ d   1      -5.969  -4.757  24.554  0.00  0.00     0.064 H 
BRANCH  21  24
ATOM     24  CAI ZZQ d   1      -7.203  -3.331  23.365  0.00  0.00     0.231 C 
ATOM     25  OAA ZZQ d   1      -8.187  -3.729  22.712  0.00  0.00    -0.272 OA
ATOM     26  NAJ ZZQ d   1      -7.145  -2.080  23.694  0.00  0.00    -0.326 N 
ATOM     27  H   ZZQ d   1      -7.974  -1.593  23.353  0.00  0.00     0.169 HD
BRANCH  26  28
ATOM     28  CAK ZZQ d   1      -6.359  -1.237  24.327  0.00  0.00     0.037 A 
ATOM     29  CAL ZZQ d   1      -7.107  -0.111  24.681  0.00  0.00    -0.027 A 
ATOM     30  CAM ZZQ d   1      -6.577   0.962  25.320  0.00  0.00     0.087 A 
ATOM     31  H   ZZQ d   1      -8.168  -0.094  24.432  0.00  0.00     0.090 H 
ATOM     32  NAN ZZQ d   1      -7.376   2.009  25.634  0.00  0.00    -0.257 NA
ATOM     33  CAX ZZQ d   1      -5.222   0.925  25.608  0.00  0.00     0.085 A 
ATOM     34  CAO ZZQ d   1      -6.880   3.074  26.255  0.00  0.00     0.020 A 
ATOM     35  CAZ ZZQ d   1      -5.519   3.048  26.574  0.00  0.00     0.020 A 
ATOM     36  H   ZZQ d   1      -7.507   3.930  26.505  0.00  0.00     0.117 H 
ATOM     37  NAY ZZQ d   1      -4.733   2.003  26.258  0.00  0.00    -0.257 NA
ATOM     38  H   ZZQ d   1      -5.082   3.900  27.094  0.00  0.00     0.117 H 
ATOM     39  CAW ZZQ d   1      -4.432  -0.191  25.260  0.00  0.00    -0.051 A 
ATOM     40  CAV ZZQ d   1      -4.999  -1.311  24.598  0.00  0.00    -0.055 A 
ATOM     41  H   ZZQ d   1      -3.369  -0.193  25.503  0.00  0.00     0.087 H 
ATOM     42  H   ZZQ d   1      -4.402  -2.179  24.319  0.00  0.00     0.087 H 
ENDBRANCH  26  28
ENDBRANCH  21  24
ENDBRANCH  20  21
ENDBRANCH  11  20
BRANCH   1  43
ATOM     43  CBF ZZQ d   1      -6.232  -5.890  19.382  0.00  0.00     0.078 A 
ATOM     44  CBG ZZQ d   1      -7.572  -5.493  19.400  0.00  0.00     0.095 A 
ATOM     45  CBH ZZQ d   1      -8.597  -6.433  19.152  0.00  0.00    -0.049 A 
ATOM     46  CBE ZZQ d   1      -8.266  -7.764  18.931  0.00  0.00    -0.080 A 
ATOM     47  H   ZZQ d   1      -9.640  -6.116  19.134  0.00  0.00     0.087 H 
ATOM     48  CBD ZZQ d   1      -6.932  -8.162  18.957  0.00  0.00    -0.081 A 
ATOM     49  H   ZZQ d   1      -9.050  -8.496  18.737  0.00  0.00     0.083 H 
ATOM     50  CAU ZZQ d   1      -5.909  -7.240  19.185  0.00  0.00    -0.054 A 
ATOM     51  H   ZZQ d   1      -6.682  -9.211  18.797  0.00  0.00     0.083 H 
ATOM     52  H   ZZQ d   1      -4.869  -7.566  19.210  0.00  0.00     0.087 H 
BRANCH  44  53
ATOM     53  OBB ZZQ d   1      -7.841  -4.167  19.645  0.00  0.00    -0.354 OA
BRANCH  53  54
ATOM     54  CBC ZZQ d   1      -8.351  -3.575  18.439  0.00  0.00     0.010 C 
ATOM     55  H   ZZQ d   1      -7.606  -3.664  17.649  0.00  0.00     0.066 H 
ATOM     56  H   ZZQ d   1      -9.263  -4.091  18.140  0.00  0.00     0.066 H 
ATOM     57  H   ZZQ d   1      -8.569  -2.522  18.617  0.00  0.00     0.066 H 
ENDBRANCH  53  54
ENDBRANCH  44  53
ENDBRANCH   1  43
TORSDOF 7
