REMARK  7 active torsions:
REMARK  status: ('A' for Active; 'I' for Inactive)
REMARK    1  A    between atoms: C5_5  and  C9_9 
REMARK    2  A    between atoms: N7_7  and  C8_8 
REMARK       I    between atoms: C9_9  and  N18_18 
REMARK    3  A    between atoms: C14_14  and  N17_17 
REMARK    4  A    between atoms: N17_17  and  C19_19 
REMARK    5  A    between atoms: N18_18  and  C29_29 
REMARK    6  A    between atoms: N22_22  and  S25_25 
REMARK    7  A    between atoms: S25_25  and  C26_26 
ROOT
ATOM      1  C1  WXV d   1     -34.874 176.846  87.274  0.00  0.00    -0.034 C 
ATOM      2  C2  WXV d   1     -33.889 176.791  86.068  0.00  0.00    -0.032 C 
ATOM      3  C3  WXV d   1     -33.976 174.222  86.140  0.00  0.00     0.091 A 
ATOM      4  C4  WXV d   1     -33.377 175.413  85.670  0.00  0.00     0.009 A 
ATOM      5  C5  WXV d   1     -32.293 174.914  84.817  0.00  0.00     0.153 A 
ATOM      6  N6  WXV d   1     -32.256 173.619  84.785  0.00  0.00    -0.166 NA
ATOM      7  N7  WXV d   1     -33.256 173.191  85.569  0.00  0.00    -0.271 N 
ATOM      8  C11 WXV d   1     -35.602 175.536  87.629  0.00  0.00    -0.008 A 
ATOM      9  C12 WXV d   1     -35.141 174.195  87.054  0.00  0.00     0.112 A 
ATOM     10  N13 WXV d   1     -35.698 173.059  87.314  0.00  0.00    -0.060 NA
ATOM     11  C14 WXV d   1     -36.821 173.091  88.203  0.00  0.00     0.723 A 
ATOM     12  N15 WXV d   1     -37.313 174.181  88.757  0.00  0.00    -0.075 NA
ATOM     13  C16 WXV d   1     -36.700 175.398  88.466  0.00  0.00     0.029 A 
ATOM     14  H   WXV d   1     -35.652 177.557  86.996  0.00  0.00     0.040 H 
ATOM     15  H   WXV d   1     -34.270 177.101  88.145  0.00  0.00     0.040 H 
ATOM     16  H   WXV d   1     -33.011 177.363  86.369  0.00  0.00     0.040 H 
ATOM     17  H   WXV d   1     -34.444 177.166  85.208  0.00  0.00     0.040 H 
ATOM     18  H   WXV d   1     -37.109 176.298  88.925  0.00  0.00     0.116 H 
ENDROOT
BRANCH  11  19
ATOM     19  N17 WXV d   1     -37.403 171.908  88.480  0.00  0.00    -0.218 N 
ATOM     20  H   WXV d   1     -38.204 171.925  89.111  0.00  0.00     0.178 HD
BRANCH  19  21
ATOM     21  C19 WXV d   1     -37.000 170.610  87.967  0.00  0.00     0.029 C 
ATOM     22  C20 WXV d   1     -37.199 170.415  86.418  0.00  0.00    -0.030 C 
ATOM     23  C21 WXV d   1     -38.232 169.356  86.068  0.00  0.00     0.007 C 
ATOM     24  H   WXV d   1     -36.244 170.091  86.003  0.00  0.00     0.038 H 
ATOM     25  H   WXV d   1     -37.551 171.363  86.011  0.00  0.00     0.038 H 
ATOM     26  N22 WXV d   1     -37.970 168.061  86.758  0.00  0.00    -0.311 N 
ATOM     27  H   WXV d   1     -38.187 169.182  84.993  0.00  0.00     0.065 H 
ATOM     28  H   WXV d   1     -39.209 169.718  86.388  0.00  0.00     0.065 H 
ATOM     29  C23 WXV d   1     -37.553 168.089  88.197  0.00  0.00     0.007 C 
ATOM     30  C24 WXV d   1     -37.722 169.500  88.820  0.00  0.00    -0.030 C 
ATOM     31  H   WXV d   1     -36.500 167.814  88.253  0.00  0.00     0.065 H 
ATOM     32  H   WXV d   1     -38.184 167.393  88.750  0.00  0.00     0.065 H 
ATOM     33  H   WXV d   1     -38.786 169.733  88.853  0.00  0.00     0.038 H 
ATOM     34  H   WXV d   1     -37.276 169.490  89.815  0.00  0.00     0.038 H 
ATOM     35  H   WXV d   1     -35.919 170.529  88.079  0.00  0.00     0.073 H 
BRANCH  26  36
ATOM     36  S25 WXV d   1     -38.157 166.664  85.945  0.00  0.00     0.224 S 
ATOM     37  O27 WXV d   1     -38.639 165.637  86.838  0.00  0.00    -0.206 OA
ATOM     38  O28 WXV d   1     -38.885 166.934  84.727  0.00  0.00    -0.206 OA
BRANCH  36  39
ATOM     39  C26 WXV d   1     -36.500 166.220  85.518  0.00  0.00     0.032 C 
ATOM     40  H   WXV d   1     -35.893 166.173  86.422  0.00  0.00     0.051 H 
ATOM     41  H   WXV d   1     -36.501 165.246  85.028  0.00  0.00     0.051 H 
ATOM     42  H   WXV d   1     -36.088 166.968  84.841  0.00  0.00     0.051 H 
ENDBRANCH  36  39
ENDBRANCH  26  36
ENDBRANCH  19  21
ENDBRANCH  11  19
BRANCH   7  43
ATOM     43  C8  WXV d   1     -33.489 171.757  85.744  0.00  0.00     0.003 C 
ATOM     44  H   WXV d   1     -33.701 171.304  84.776  0.00  0.00     0.059 H 
ATOM     45  H   WXV d   1     -32.601 171.296  86.175  0.00  0.00     0.059 H 
ATOM     46  H   WXV d   1     -34.338 171.607  86.411  0.00  0.00     0.059 H 
ENDBRANCH   7  43
BRANCH   5  47
ATOM     47  C9  WXV d   1     -31.310 175.733  84.044  0.00  0.00     0.272 C 
ATOM     48  O10 WXV d   1     -31.320 176.964  84.055  0.00  0.00    -0.266 OA
ATOM     49  N18 WXV d   1     -30.449 174.956  83.356  0.00  0.00    -0.360 N 
ATOM     50  H   WXV d   1     -30.558 173.945  83.441  0.00  0.00     0.162 HD
BRANCH  49  51
ATOM     51  C29 WXV d   1     -29.390 175.438  82.512  0.00  0.00    -0.018 C 
ATOM     52  H   WXV d   1     -29.813 176.045  81.711  0.00  0.00     0.056 H 
ATOM     53  H   WXV d   1     -28.702 176.043  83.103  0.00  0.00     0.056 H 
ATOM     54  H   WXV d   1     -28.855 174.591  82.084  0.00  0.00     0.056 H 
ENDBRANCH  49  51
ENDBRANCH   5  47
TORSDOF 7
