REMARK  3 active torsions:
REMARK  status: ('A' for Active; 'I' for Inactive)
REMARK    1  A    between atoms: C1_1  and  O1_2 
REMARK    2  A    between atoms: C8_9  and  O13_10 
REMARK    3  A    between atoms: C7_11  and  O11_12 
ROOT
ATOM      1  C1  NON d   1       7.194 -33.721  -3.074  0.00  0.00     0.068 C 
ATOM      2  C3  NON d   1       7.130 -34.840  -4.120  0.00  0.00     0.186 C 
ATOM      3  N4  NON d   1       6.397 -34.446  -5.361  0.00  0.00     0.100 N 
ATOM      4  C5  NON d   1       5.749 -33.124  -5.322  0.00  0.00     0.114 C 
ATOM      5  C6  NON d   1       4.914 -32.986  -4.045  0.00  0.00    -0.038 C 
ATOM      6  C2  NON d   1       5.784 -33.169  -2.787  0.00  0.00    -0.037 C 
ATOM      7  C9  NON d   1       7.301 -34.624  -6.509  0.00  0.00     0.140 C 
ATOM      8  C8  NON d   1       8.281 -35.711  -6.054  0.00  0.00     0.088 C 
ATOM      9  C7  NON d   1       8.501 -35.432  -4.557  0.00  0.00     0.094 C 
ATOM     10  H   NON d   1       7.816 -32.909  -3.450  0.00  0.00     0.086 H 
ATOM     11  H   NON d   1       6.585 -35.613  -3.579  0.00  0.00     0.097 H 
ATOM     12  H   NON d   1       5.097 -33.019  -6.189  0.00  0.00     0.079 H 
ATOM     13  H   NON d   1       6.515 -32.349  -5.334  0.00  0.00     0.079 H 
ATOM     14  H   NON d   1       4.143 -33.756  -4.049  0.00  0.00     0.035 H 
ATOM     15  H   NON d   1       4.476 -31.988  -4.022  0.00  0.00     0.035 H 
ATOM     16  H   NON d   1       5.908 -32.185  -2.334  0.00  0.00     0.036 H 
ATOM     17  H   NON d   1       5.278 -33.892  -2.147  0.00  0.00     0.036 H 
ATOM     18  H   NON d   1       7.810 -33.699  -6.778  0.00  0.00     0.084 H 
ATOM     19  H   NON d   1       6.764 -34.908  -7.414  0.00  0.00     0.084 H 
ATOM     20  H   NON d   1       7.899 -36.716  -6.233  0.00  0.00     0.089 H 
ATOM     21  H   NON d   1       8.771 -36.318  -3.982  0.00  0.00     0.090 H 
ENDROOT
BRANCH   1  22
ATOM     22  O1  NON d   1       7.738 -34.260  -1.873  0.00  0.00    -0.393 OA
ATOM     23  H   NON d   1       8.619 -34.599  -2.046  0.00  0.00     0.210 HD
ENDBRANCH   1  22
BRANCH   9  24
ATOM     24  O11 NON d   1       9.623 -34.568  -4.309  0.00  0.00    -0.391 OA
ATOM     25  H   NON d   1       9.714 -34.428  -3.364  0.00  0.00     0.210 HD
ENDBRANCH   9  24
BRANCH   8  26
ATOM     26  O13 NON d   1       9.512 -35.617  -6.777  0.00  0.00    -0.391 OA
ATOM     27  H   NON d   1      10.111 -36.305  -6.478  0.00  0.00     0.210 HD
ENDBRANCH   8  26
TORSDOF 3
