REMARK  13 active torsions:
REMARK  status: ('A' for Active; 'I' for Inactive)
REMARK    1  A    between atoms: C9_2  and  O4_1 
REMARK    2  A    between atoms: C1_3  and  C9_2 
REMARK    3  A    between atoms: C4_5  and  O1_6 
REMARK    4  A    between atoms: C6_7  and  O2_8 
REMARK    5  A    between atoms: C7_9  and  C8_10 
REMARK    6  A    between atoms: C8_10  and  O3_11 
REMARK    7  A    between atoms: O1_21  and  C2_14 
REMARK    8  A    between atoms: C1_15  and  O1_21 
REMARK    9  A    between atoms: C2_16  and  O2_22 
REMARK   10  A    between atoms: C3_17  and  O3_23 
REMARK   11  A    between atoms: C4_18  and  O4_24 
REMARK   12  A    between atoms: C5_19  and  C6_20 
REMARK   13  A    between atoms: C6_20  and  O6_26 
ROOT
ATOM      1  C1  LG9 d   1       4.851 -38.570  84.616  0.00  0.00     0.015 C 
ATOM      2  C5  LG9 d   1       6.061 -38.374  85.530  0.00  0.00     0.043 C 
ATOM      3  C4  LG9 d   1       6.461 -39.628  86.339  0.00  0.00     0.082 C 
ATOM      4  C6  LG9 d   1       6.684 -39.116  87.768  0.00  0.00     0.083 C 
ATOM      5  C7  LG9 d   1       5.513 -38.136  87.991  0.00  0.00     0.055 C 
ATOM      6  N4  LG9 d   1       5.344 -37.689  86.612  0.00  0.00    -0.394 N 
ATOM      7  C3  LG9 d   1       4.224 -36.871  86.227  0.00  0.00     0.016 C 
ATOM      8  C2  LG9 d   1       3.633 -37.995  85.352  0.00  0.00     0.064 C 
ATOM      9  H   LG9 d   1       4.820 -39.630  84.362  0.00  0.00     0.050 H 
ATOM     10  H   LG9 d   1       6.913 -37.979  84.977  0.00  0.00     0.077 H 
ATOM     11  H   LG9 d   1       5.678 -40.379  86.238  0.00  0.00     0.090 H 
ATOM     12  H   LG9 d   1       7.655 -38.642  87.908  0.00  0.00     0.090 H 
ATOM     13  H   LG9 d   1       4.661 -38.613  88.475  0.00  0.00     0.079 H 
ATOM     14  H   LG9 d   1       4.415 -35.898  85.774  0.00  0.00     0.067 H 
ATOM     15  H   LG9 d   1       3.603 -36.430  87.007  0.00  0.00     0.067 H 
ATOM     16  H   LG9 d   1       2.810 -37.547  84.795  0.00  0.00     0.086 H 
ENDROOT
BRANCH   8  17
ATOM     17  O1  GLC d   1       3.138 -39.171  86.047  0.00  0.00    -0.351 OA
BRANCH  17  18
ATOM     18  C1  GLC d   1       2.063 -38.996  86.981  0.00  0.00     0.159 C 
ATOM     19  C2  GLC d   1       1.628 -40.347  87.533  0.00  0.00     0.110 C 
ATOM     20  C3  GLC d   1       0.868 -41.097  86.465  0.00  0.00     0.092 C 
ATOM     21  H   LG9 d   1       1.004 -40.174  88.410  0.00  0.00     0.094 H 
ATOM     22  C4  GLC d   1      -0.351 -40.255  86.045  0.00  0.00     0.090 C 
ATOM     23  H   LG9 d   1       1.501 -41.278  85.596  0.00  0.00     0.091 H 
ATOM     24  C5  GLC d   1       0.196 -38.949  85.448  0.00  0.00     0.089 C 
ATOM     25  H   LG9 d   1      -1.009 -40.018  86.881  0.00  0.00     0.091 H 
ATOM     26  O5  GLC d   1       0.959 -38.268  86.434  0.00  0.00    -0.348 OA
ATOM     27  H   LG9 d   1       0.841 -39.183  84.601  0.00  0.00     0.090 H 
ATOM     28  H   LG9 d   1       2.439 -38.384  87.801  0.00  0.00     0.133 H 
BRANCH  19  29
ATOM     29  O2  GLC d   1       2.751 -41.125  87.901  0.00  0.00    -0.388 OA
ATOM     30  H   LG9 d   1       3.309 -41.263  87.132  0.00  0.00     0.210 HD
ENDBRANCH  19  29
BRANCH  20  31
ATOM     31  O3  GLC d   1       0.444 -42.318  86.993  0.00  0.00    -0.390 OA
ATOM     32  H   LG9 d   1       1.209 -42.836  87.252  0.00  0.00     0.210 HD
ENDBRANCH  20  31
BRANCH  22  33
ATOM     33  O4  GLC d   1      -1.113 -41.002  85.099  0.00  0.00    -0.390 OA
ATOM     34  H   LG9 d   1      -1.434 -41.807  85.512  0.00  0.00     0.210 HD
ENDBRANCH  22  33
BRANCH  24  35
ATOM     35  C6  GLC d   1      -0.934 -38.074  84.918  0.00  0.00     0.043 C 
ATOM     36  H   LG9 d   1      -1.643 -37.886  85.725  0.00  0.00     0.078 H 
ATOM     37  H   LG9 d   1      -1.421 -38.590  84.090  0.00  0.00     0.078 H 
BRANCH  35  38
ATOM     38  O6  GLC d   1      -0.431 -36.837  84.454  0.00  0.00    -0.398 OA
ATOM     39  H   LG9 d   1       0.005 -36.379  85.176  0.00  0.00     0.209 HD
ENDBRANCH  35  38
ENDBRANCH  24  35
ENDBRANCH  17  18
ENDBRANCH   8  17
BRANCH   1  40
ATOM     40  C9  LG9 d   1       4.902 -37.693  83.359  0.00  0.00     0.024 C 
ATOM     41  H   LG9 d   1       4.016 -37.921  82.766  0.00  0.00     0.074 H 
ATOM     42  H   LG9 d   1       4.953 -36.655  83.687  0.00  0.00     0.074 H 
BRANCH  40  43
ATOM     43  O4  LG9 d   1       6.036 -37.936  82.540  0.00  0.00    -0.400 OA
ATOM     44  H   LG9 d   1       6.030 -38.851  82.251  0.00  0.00     0.209 HD
ENDBRANCH  40  43
ENDBRANCH   1  40
BRANCH   3  45
ATOM     45  O1  LG9 d   1       7.653 -40.283  85.887  0.00  0.00    -0.391 OA
ATOM     46  H   LG9 d   1       7.536 -40.567  84.977  0.00  0.00     0.210 HD
ENDBRANCH   3  45
BRANCH   5  47
ATOM     47  C8  LG9 d   1       5.597 -37.033  89.053  0.00  0.00     0.038 C 
ATOM     48  H   LG9 d   1       5.525 -37.501  90.035  0.00  0.00     0.077 H 
ATOM     49  H   LG9 d   1       4.786 -36.327  88.873  0.00  0.00     0.077 H 
BRANCH  47  50
ATOM     50  O3  LG9 d   1       6.823 -36.322  88.992  0.00  0.00    -0.399 OA
ATOM     51  H   LG9 d   1       6.911 -35.912  88.128  0.00  0.00     0.209 HD
ENDBRANCH  47  50
ENDBRANCH   5  47
BRANCH   4  52
ATOM     52  O2  LG9 d   1       6.639 -40.196  88.697  0.00  0.00    -0.391 OA
ATOM     53  H   LG9 d   1       6.780 -39.859  89.585  0.00  0.00     0.210 HD
ENDBRANCH   4  52
TORSDOF 13
