REMARK  4 active torsions:
REMARK  status: ('A' for Active; 'I' for Inactive)
REMARK    1  A    between atoms: S1_1  and  N5_5 
REMARK    2  A    between atoms: N5_5  and  C6_6 
REMARK       I    between atoms: N9_9  and  C13_13 
REMARK    3  A    between atoms: C10_10  and  C11_11 
REMARK       I    between atoms: C13_13  and  N15_15 
REMARK    4  A    between atoms: N15_15  and  C16_16 
ROOT
ATOM      1  C6  ZX0 d   1       3.688  11.902  19.051  0.00  0.00     0.049 C 
ATOM      2  C7  ZX0 d   1       3.584  12.821  17.847  0.00  0.00    -0.028 C 
ATOM      3  C8  ZX0 d   1       4.833  13.688  17.903  0.00  0.00     0.002 C 
ATOM      4  N9  ZX0 d   1       5.750  12.935  18.723  0.00  0.00    -0.321 N 
ATOM      5  C10 ZX0 d   1       5.164  11.760  19.281  0.00  0.00     0.086 C 
ATOM      6  C13 ZX0 d   1       7.105  13.133  18.843  0.00  0.00     0.319 C 
ATOM      7  O14 ZX0 d   1       7.841  12.252  19.266  0.00  0.00    -0.247 OA
ATOM      8  N15 ZX0 d   1       7.518  14.382  18.466  0.00  0.00    -0.338 N 
ATOM      9  H   ZX0 d   1       3.105  12.315  19.874  0.00  0.00     0.077 H 
ATOM     10  H   ZX0 d   1       2.675  13.421  17.875  0.00  0.00     0.038 H 
ATOM     11  H   ZX0 d   1       3.524  12.259  16.915  0.00  0.00     0.038 H 
ATOM     12  H   ZX0 d   1       4.629  14.676  18.315  0.00  0.00     0.064 H 
ATOM     13  H   ZX0 d   1       5.238  13.890  16.912  0.00  0.00     0.064 H 
ATOM     14  H   ZX0 d   1       5.435  11.620  20.327  0.00  0.00     0.087 H 
ATOM     15  H   ZX0 d   1       6.830  15.110  18.273  0.00  0.00     0.164 HD
ENDROOT
BRANCH   8  16
ATOM     16  C16 ZX0 d   1       8.924  14.667  18.342  0.00  0.00     0.015 C 
ATOM     17  C17 ZX0 d   1       9.190  14.982  16.887  0.00  0.00    -0.044 C 
ATOM     18  C18 ZX0 d   1      10.654  15.269  16.646  0.00  0.00    -0.041 C 
ATOM     19  H   ZX0 d   1       8.614  15.865  16.612  0.00  0.00     0.036 H 
ATOM     20  H   ZX0 d   1       8.902  14.119  16.287  0.00  0.00     0.036 H 
ATOM     21  C19 ZX0 d   1      10.932  16.759  16.738  0.00  0.00     0.082 C 
ATOM     22  H   ZX0 d   1      10.921  14.922  15.648  0.00  0.00     0.035 H 
ATOM     23  H   ZX0 d   1      11.243  14.753  17.404  0.00  0.00     0.035 H 
ATOM     24  N20 ZX0 d   1      10.809  17.262  18.137  0.00  0.00    -0.075 N 
ATOM     25  H   ZX0 d   1      10.201  17.282  16.121  0.00  0.00     0.075 H 
ATOM     26  H   ZX0 d   1      11.952  16.938  16.399  0.00  0.00     0.075 H 
ATOM     27  C21 ZX0 d   1      10.711  16.230  19.205  0.00  0.00     0.083 C 
ATOM     28  H   ZX0 d   1       9.937  17.790  18.172  0.00  0.00     0.277 HD
ATOM     29  H   ZX0 d   1      11.664  17.785  18.326  0.00  0.00     0.277 HD
ATOM     30  C22 ZX0 d   1       9.259  15.810  19.285  0.00  0.00    -0.024 C 
ATOM     31  H   ZX0 d   1      11.049  16.631  20.160  0.00  0.00     0.075 H 
ATOM     32  H   ZX0 d   1      11.347  15.375  18.974  0.00  0.00     0.075 H 
ATOM     33  H   ZX0 d   1       9.065  15.471  20.303  0.00  0.00     0.038 H 
ATOM     34  H   ZX0 d   1       8.648  16.667  19.002  0.00  0.00     0.038 H 
ATOM     35  H   ZX0 d   1       9.562  13.829  18.623  0.00  0.00     0.072 H 
ENDBRANCH   8  16
BRANCH   5  36
ATOM     36  C11 ZX0 d   1       5.588  10.609  18.422  0.00  0.00     0.112 C 
ATOM     37  O12 ZX0 d   1       5.717  10.537  17.202  0.00  0.00    -0.305 OA
ATOM     38  H   ZX0 d   1       5.818   9.691  18.964  0.00  0.00     0.146 H 
ENDBRANCH   5  36
BRANCH   1  39
ATOM     39  N5  ZX0 d   1       3.201  10.534  18.775  0.00  0.00    -0.294 N 
ATOM     40  H   ZX0 d   1       3.833   9.734  18.812  0.00  0.00     0.175 HD
BRANCH  39  41
ATOM     41  S1  ZX0 d   1       1.544  10.333  18.391  0.00  0.00     0.204 S 
ATOM     42  O2  ZX0 d   1       1.439  10.663  16.981  0.00  0.00    -0.578 OA
ATOM     43  O3  ZX0 d   1       0.817  11.223  19.277  0.00  0.00    -0.578 OA
ATOM     44  O4  ZX0 d   1       1.290   8.924  18.631  0.00  0.00    -0.578 OA
ENDBRANCH  39  41
ENDBRANCH   1  39
TORSDOF 4
