REMARK  9 active torsions:
REMARK  status: ('A' for Active; 'I' for Inactive)
REMARK    1  A    between atoms: C2_4  and  C8_8 
REMARK    2  A    between atoms: C4_6  and  C7_7 
REMARK    3  A    between atoms: C13_9  and  C14_10 
REMARK    4  A    between atoms: C16_16  and  C19_17 
REMARK    5  A    between atoms: C17_18  and  O20_19 
REMARK    6  A    between atoms: C51_30  and  C53_31 
REMARK    7  A    between atoms: C51_30  and  O52_32 
REMARK    8  A    between atoms: C29_46  and  C6_47 
REMARK    9  A    between atoms: C46_48  and  C22_49 
ROOT
ATOM      1  C8  SQX d   1     -32.061   3.312  43.862  0.00  0.00    -0.048 C 
ATOM      2  C13 SQX d   1     -31.484   2.413  43.029  0.00  0.00    -0.070 C 
ATOM      3  C12 SQX d   1     -31.259   0.969  43.423  0.00  0.00    -0.003 C 
ATOM      4  C27 SQX d   1     -32.066   0.536  44.665  0.00  0.00     0.011 C 
ATOM      5  C10 SQX d   1     -31.985   1.601  45.751  0.00  0.00    -0.049 C 
ATOM      6  C9  SQX d   1     -32.346   3.015  45.323  0.00  0.00    -0.041 C 
ATOM      7  C15 SQX d   1     -31.591   0.075  42.239  0.00  0.00    -0.090 C 
ATOM      8  C16 SQX d   1     -30.728  -0.610  41.468  0.00  0.00    -0.058 C 
ATOM      9  C17 SQX d   1     -31.352  -1.404  40.365  0.00  0.00     0.059 C 
ATOM     10  C18 SQX d   1     -31.453  -2.876  40.726  0.00  0.00    -0.013 C 
ATOM     11  C21 SQX d   1     -32.151  -3.662  39.623  0.00  0.00     0.045 C 
ATOM     12  O48 SQX d   1     -31.889  -5.055  39.808  0.00  0.00    -0.350 OA
ATOM     13  C81 SQX d   1     -33.671  -3.488  39.654  0.00  0.00    -0.036 C 
ATOM     14  C80 SQX d   1     -34.233  -4.890  39.456  0.00  0.00    -0.010 C 
ATOM     15  C23 SQX d   1     -33.107  -5.794  39.943  0.00  0.00     0.168 C 
ATOM     16  O44 SQX d   1     -33.318  -6.099  41.309  0.00  0.00    -0.316 OA
ATOM     17  C55 SQX d   1     -32.988  -7.161  39.286  0.00  0.00    -0.008 C 
ATOM     18  C42 SQX d   1     -32.595  -8.115  40.414  0.00  0.00    -0.005 C 
ATOM     19  C43 SQX d   1     -32.663  -7.292  41.708  0.00  0.00     0.198 C 
ATOM     20  C51 SQX d   1     -33.438  -7.984  42.846  0.00  0.00     0.110 C 
ATOM     21  C50 SQX d   1     -33.442  -7.111  44.107  0.00  0.00    -0.029 C 
ATOM     22  C49 SQX d   1     -32.083  -6.475  44.429  0.00  0.00    -0.038 C 
ATOM     23  O47 SQX d   1     -31.351  -6.874  42.110  0.00  0.00    -0.347 OA
ATOM     24  C48 SQX d   1     -31.293  -5.959  43.215  0.00  0.00     0.045 C 
ATOM     25  C37 SQX d   1     -29.807  -5.825  43.568  0.00  0.00    -0.021 C 
ATOM     26  C36 SQX d   1     -29.557  -4.779  44.629  0.00  0.00    -0.087 C 
ATOM     27  C38 SQX d   1     -28.915  -5.122  45.738  0.00  0.00    -0.119 C 
ATOM     28  C35 SQX d   1     -30.054  -3.375  44.398  0.00  0.00    -0.045 C 
ATOM     29  C34 SQX d   1     -29.474  -2.393  45.396  0.00  0.00    -0.057 C 
ATOM     30  C33 SQX d   1     -29.912  -0.970  45.071  0.00  0.00    -0.028 C 
ATOM     31  C32 SQX d   1     -31.386  -0.664  45.305  0.00  0.00     0.016 C 
ATOM     32  N31 SQX d   1     -32.045  -1.420  46.092  0.00  0.00    -0.297 NA
ATOM     33  C30 SQX d   1     -33.455  -1.390  46.527  0.00  0.00     0.018 C 
ATOM     34  C29 SQX d   1     -34.319  -1.892  45.371  0.00  0.00    -0.037 C 
ATOM     35  C46 SQX d   1     -33.939  -1.194  44.062  0.00  0.00    -0.052 C 
ATOM     36  C28 SQX d   1     -33.539   0.269  44.292  0.00  0.00    -0.049 C 
ATOM     37  H   SQX d   1     -30.209   0.868  43.699  0.00  0.00     0.054 H 
ATOM     38  H   SQX d   1     -30.944   1.634  46.072  0.00  0.00     0.035 H 
ATOM     39  H   SQX d   1     -32.709   1.317  46.514  0.00  0.00     0.035 H 
ATOM     40  H   SQX d   1     -33.419   3.133  45.473  0.00  0.00     0.039 H 
ATOM     41  H   SQX d   1     -31.736   3.697  45.916  0.00  0.00     0.039 H 
ATOM     42  H   SQX d   1     -32.647  -0.022  41.987  0.00  0.00     0.078 H 
ATOM     43  H   SQX d   1     -32.368  -1.046  40.197  0.00  0.00     0.090 H 
ATOM     44  H   SQX d   1     -32.032  -2.972  41.644  0.00  0.00     0.041 H 
ATOM     45  H   SQX d   1     -30.447  -3.274  40.856  0.00  0.00     0.041 H 
ATOM     46  H   SQX d   1     -31.768  -3.287  38.674  0.00  0.00     0.083 H 
ATOM     47  H   SQX d   1     -34.015  -2.802  38.880  0.00  0.00     0.037 H 
ATOM     48  H   SQX d   1     -34.008  -3.047  40.592  0.00  0.00     0.037 H 
ATOM     49  H   SQX d   1     -34.510  -5.088  38.420  0.00  0.00     0.041 H 
ATOM     50  H   SQX d   1     -35.163  -5.049  40.002  0.00  0.00     0.041 H 
ATOM     51  H   SQX d   1     -32.249  -7.159  38.485  0.00  0.00     0.041 H 
ATOM     52  H   SQX d   1     -33.922  -7.462  38.812  0.00  0.00     0.041 H 
ATOM     53  H   SQX d   1     -31.596  -8.521  40.257  0.00  0.00     0.041 H 
ATOM     54  H   SQX d   1     -33.266  -8.973  40.456  0.00  0.00     0.041 H 
ATOM     55  H   SQX d   1     -33.705  -7.755  44.946  0.00  0.00     0.037 H 
ATOM     56  H   SQX d   1     -34.147  -6.298  43.935  0.00  0.00     0.037 H 
ATOM     57  H   SQX d   1     -31.475  -7.255  44.888  0.00  0.00     0.036 H 
ATOM     58  H   SQX d   1     -32.286  -5.609  45.060  0.00  0.00     0.036 H 
ATOM     59  H   SQX d   1     -31.741  -5.003  42.945  0.00  0.00     0.083 H 
ATOM     60  H   SQX d   1     -29.273  -5.524  42.667  0.00  0.00     0.043 H 
ATOM     61  H   SQX d   1     -29.465  -6.785  43.955  0.00  0.00     0.043 H 
ATOM     62  H   SQX d   1     -28.575  -6.148  45.876  0.00  0.00     0.067 H 
ATOM     63  H   SQX d   1     -28.728  -4.378  46.512  0.00  0.00     0.067 H 
ATOM     64  H   SQX d   1     -31.138  -3.375  44.512  0.00  0.00     0.039 H 
ATOM     65  H   SQX d   1     -29.747  -3.066  43.399  0.00  0.00     0.039 H 
ATOM     66  H   SQX d   1     -28.386  -2.446  45.350  0.00  0.00     0.034 H 
ATOM     67  H   SQX d   1     -29.831  -2.652  46.393  0.00  0.00     0.034 H 
ATOM     68  H   SQX d   1     -29.732  -0.827  44.005  0.00  0.00     0.041 H 
ATOM     69  H   SQX d   1     -29.351  -0.314  45.737  0.00  0.00     0.041 H 
ATOM     70  H   SQX d   1     -33.743  -0.374  46.798  0.00  0.00     0.067 H 
ATOM     71  H   SQX d   1     -33.592  -2.026  47.402  0.00  0.00     0.067 H 
ATOM     72  H   SQX d   1     -35.362  -1.632  45.550  0.00  0.00     0.042 H 
ATOM     73  H   SQX d   1     -33.080  -1.740  43.672  0.00  0.00     0.040 H 
ATOM     74  H   SQX d   1     -33.705   0.778  43.342  0.00  0.00     0.035 H 
ATOM     75  H   SQX d   1     -34.130   0.611  45.142  0.00  0.00     0.035 H 
ENDROOT
BRANCH   1  76
ATOM     76  C2  SQX d   1     -32.490   4.664  43.358  0.00  0.00     0.071 C 
ATOM     77  O1  SQX d   1     -33.912   4.689  43.465  0.00  0.00    -0.311 OA
ATOM     78  C5  SQX d   1     -34.272   5.916  44.132  0.00  0.00     0.263 C 
ATOM     79  O6  SQX d   1     -35.423   6.155  44.451  0.00  0.00    -0.265 OA
ATOM     80  C4  SQX d   1     -33.115   6.816  44.351  0.00  0.00     0.029 C 
ATOM     81  C3  SQX d   1     -31.957   5.836  44.187  0.00  0.00    -0.025 C 
ATOM     82  H   SQX d   1     -33.032   7.662  43.669  0.00  0.00     0.055 H 
ATOM     83  H   SQX d   1     -31.112   6.312  43.690  0.00  0.00     0.038 H 
ATOM     84  H   SQX d   1     -31.596   5.494  45.157  0.00  0.00     0.038 H 
ATOM     85  H   SQX d   1     -32.103   4.787  42.346  0.00  0.00     0.091 H 
BRANCH  80  86
ATOM     86  C7  SQX d   1     -33.197   7.549  45.684  0.00  0.00    -0.064 C 
ATOM     87  H   SQX d   1     -33.302   6.823  46.490  0.00  0.00     0.028 H 
ATOM     88  H   SQX d   1     -32.288   8.131  45.834  0.00  0.00     0.028 H 
ATOM     89  H   SQX d   1     -34.060   8.215  45.678  0.00  0.00     0.028 H 
ENDBRANCH  80  86
ENDBRANCH   1  76
BRANCH   2  90
ATOM     90  C14 SQX d   1     -31.039   2.832  41.654  0.00  0.00    -0.054 C 
ATOM     91  H   SQX d   1     -31.898   3.197  41.091  0.00  0.00     0.033 H 
ATOM     92  H   SQX d   1     -30.296   3.624  41.740  0.00  0.00     0.033 H 
ATOM     93  H   SQX d   1     -30.602   1.977  41.139  0.00  0.00     0.033 H 
ENDBRANCH   2  90
BRANCH   8  94
ATOM     94  C19 SQX d   1     -29.230  -0.569  41.640  0.00  0.00    -0.052 C 
ATOM     95  H   SQX d   1     -28.879   0.455  41.514  0.00  0.00     0.033 H 
ATOM     96  H   SQX d   1     -28.970  -0.924  42.637  0.00  0.00     0.033 H 
ATOM     97  H   SQX d   1     -28.762  -1.209  40.892  0.00  0.00     0.033 H 
ENDBRANCH   8  94
BRANCH  35  98
ATOM     98  C22 SQX d   1     -35.057  -1.252  43.035  0.00  0.00    -0.072 C 
ATOM     99  H   SQX d   1     -35.288  -2.293  42.810  0.00  0.00     0.028 H 
ATOM    100  H   SQX d   1     -35.943  -0.761  43.437  0.00  0.00     0.028 H 
ATOM    101  H   SQX d   1     -34.739  -0.744  42.125  0.00  0.00     0.028 H 
ENDBRANCH  35  98
BRANCH   9 102
ATOM    102  O20 SQX d   1     -30.569  -1.232  39.187  0.00  0.00    -0.391 OA
ATOM    103  H   SQX d   1     -30.548  -0.302  38.951  0.00  0.00     0.210 HD
ENDBRANCH   9 102
BRANCH  34 104
ATOM    104  C6  SQX d   1     -34.251  -3.417  45.296  0.00  0.00    -0.071 C 
ATOM    105  H   SQX d   1     -33.218  -3.726  45.135  0.00  0.00     0.028 H 
ATOM    106  H   SQX d   1     -34.617  -3.842  46.231  0.00  0.00     0.028 H 
ATOM    107  H   SQX d   1     -34.870  -3.767  44.469  0.00  0.00     0.028 H 
ENDBRANCH  34 104
BRANCH  20 108
ATOM    108  C53 SQX d   1     -32.882  -9.369  43.166  0.00  0.00    -0.043 C 
ATOM    109  H   SQX d   1     -32.948  -9.999  42.279  0.00  0.00     0.031 H 
ATOM    110  H   SQX d   1     -31.840  -9.279  43.472  0.00  0.00     0.031 H 
ATOM    111  H   SQX d   1     -33.462  -9.814  43.974  0.00  0.00     0.031 H 
ENDBRANCH  20 108
BRANCH  20 112
ATOM    112  O52 SQX d   1     -34.787  -8.160  42.411  0.00  0.00    -0.385 OA
ATOM    113  H   SQX d   1     -35.168  -7.304  42.201  0.00  0.00     0.210 HD
ENDBRANCH  20 112
TORSDOF 9
