REMARK  4 active torsions:
REMARK  status: ('A' for Active; 'I' for Inactive)
REMARK    1  A    between atoms: S1_1  and  N5_5 
REMARK    2  A    between atoms: N5_5  and  C6_6 
REMARK       I    between atoms: N9_9  and  C13_13 
REMARK    3  A    between atoms: C10_10  and  C11_11 
REMARK       I    between atoms: C13_13  and  N15_15 
REMARK    4  A    between atoms: N15_15  and  C16_16 
ROOT
ATOM      1  C6  ZX1 d   1       3.687  11.985  19.096  0.00  0.00     0.049 C 
ATOM      2  C7  ZX1 d   1       3.567  12.903  17.892  0.00  0.00    -0.028 C 
ATOM      3  C8  ZX1 d   1       4.794  13.802  17.948  0.00  0.00     0.002 C 
ATOM      4  N9  ZX1 d   1       5.734  13.067  18.761  0.00  0.00    -0.321 N 
ATOM      5  C10 ZX1 d   1       5.164  11.888  19.332  0.00  0.00     0.086 C 
ATOM      6  C13 ZX1 d   1       7.081  13.349  18.908  0.00  0.00     0.319 C 
ATOM      7  O14 ZX1 d   1       7.871  12.529  19.364  0.00  0.00    -0.247 OA
ATOM      8  N15 ZX1 d   1       7.448  14.614  18.517  0.00  0.00    -0.338 N 
ATOM      9  H   ZX1 d   1       3.081  12.389  19.907  0.00  0.00     0.077 H 
ATOM     10  H   ZX1 d   1       2.644  13.482  17.920  0.00  0.00     0.038 H 
ATOM     11  H   ZX1 d   1       3.525  12.339  16.960  0.00  0.00     0.038 H 
ATOM     12  H   ZX1 d   1       4.567  14.783  18.366  0.00  0.00     0.064 H 
ATOM     13  H   ZX1 d   1       5.190  14.020  16.956  0.00  0.00     0.064 H 
ATOM     14  H   ZX1 d   1       5.415  11.767  20.386  0.00  0.00     0.087 H 
ATOM     15  H   ZX1 d   1       6.757  15.262  18.139  0.00  0.00     0.164 HD
ENDROOT
BRANCH   8  16
ATOM     16  C16 ZX1 d   1       8.831  15.007  18.652  0.00  0.00     0.015 C 
ATOM     17  C17 ZX1 d   1       8.903  16.148  19.651  0.00  0.00    -0.044 C 
ATOM     18  C18 ZX1 d   1      10.316  16.356  20.150  0.00  0.00    -0.041 C 
ATOM     19  H   ZX1 d   1       8.268  15.903  20.502  0.00  0.00     0.036 H 
ATOM     20  H   ZX1 d   1       8.572  17.062  19.157  0.00  0.00     0.036 H 
ATOM     21  C19 ZX1 d   1      11.064  17.393  19.334  0.00  0.00     0.082 C 
ATOM     22  H   ZX1 d   1      10.849  15.409  20.066  0.00  0.00     0.035 H 
ATOM     23  H   ZX1 d   1      10.264  16.708  21.180  0.00  0.00     0.035 H 
ATOM     24  N20 ZX1 d   1      10.910  17.179  17.865  0.00  0.00    -0.075 N 
ATOM     25  H   ZX1 d   1      12.123  17.314  19.577  0.00  0.00     0.075 H 
ATOM     26  H   ZX1 d   1      10.655  18.373  19.577  0.00  0.00     0.075 H 
ATOM     27  C21 ZX1 d   1      10.870  15.769  17.391  0.00  0.00     0.083 C 
ATOM     28  H   ZX1 d   1      11.735  17.595  17.434  0.00  0.00     0.277 HD
ATOM     29  H   ZX1 d   1      10.007  17.583  17.617  0.00  0.00     0.277 HD
ATOM     30  C22 ZX1 d   1       9.405  15.377  17.296  0.00  0.00    -0.024 C 
ATOM     31  H   ZX1 d   1      11.402  15.114  18.081  0.00  0.00     0.075 H 
ATOM     32  H   ZX1 d   1      11.360  15.673  16.422  0.00  0.00     0.075 H 
ATOM     33  H   ZX1 d   1       8.847  16.229  16.909  0.00  0.00     0.038 H 
ATOM     34  H   ZX1 d   1       9.324  14.509  16.642  0.00  0.00     0.038 H 
ATOM     35  H   ZX1 d   1       9.438  14.183  19.027  0.00  0.00     0.072 H 
ENDBRANCH   8  16
BRANCH   5  36
ATOM     36  C11 ZX1 d   1       5.642  10.747  18.487  0.00  0.00     0.112 C 
ATOM     37  O12 ZX1 d   1       5.709  10.631  17.265  0.00  0.00    -0.305 OA
ATOM     38  H   ZX1 d   1       5.987   9.878  19.047  0.00  0.00     0.146 H 
ENDBRANCH   5  36
BRANCH   1  39
ATOM     39  N5  ZX1 d   1       3.226  10.598  18.858  0.00  0.00    -0.294 N 
ATOM     40  H   ZX1 d   1       3.866   9.808  18.943  0.00  0.00     0.175 HD
BRANCH  39  41
ATOM     41  S1  ZX1 d   1       1.588  10.364  18.436  0.00  0.00     0.204 S 
ATOM     42  O2  ZX1 d   1       1.556  10.645  17.014  0.00  0.00    -0.578 OA
ATOM     43  O3  ZX1 d   1       0.862  11.313  19.263  0.00  0.00    -0.578 OA
ATOM     44  O4  ZX1 d   1       1.315   8.972  18.756  0.00  0.00    -0.578 OA
ENDBRANCH  39  41
ENDBRANCH   1  39
TORSDOF 4
