REMARK  13 active torsions:
REMARK  status: ('A' for Active; 'I' for Inactive)
REMARK    1  A    between atoms: C1_1  and  C2_2 
REMARK    2  A    between atoms: C2_2  and  C3_3 
REMARK    3  A    between atoms: C2_2  and  C4_4 
REMARK    4  A    between atoms: C2_2  and  O5_5 
REMARK    5  A    between atoms: O5_5  and  C6_6 
REMARK       I    between atoms: C6_6  and  N8_8 
REMARK    6  A    between atoms: N8_8  and  C9_9 
REMARK    7  A    between atoms: C9_9  and  C10_10 
REMARK    8  A    between atoms: C13_13  and  C14_14 
REMARK    9  A    between atoms: C14_14  and  N15_15 
REMARK       I    between atoms: N15_15  and  C16_16 
REMARK   10  A    between atoms: C16_16  and  C18_18 
REMARK   11  A    between atoms: C20_20  and  C28_28 
REMARK   12  A    between atoms: C31_31  and  C32_32 
REMARK   13  A    between atoms: C32_32  and  N33_33 
ROOT
ATOM      1  C14 X24 d   1       7.690  26.798  36.970  0.00  0.00    -0.001 C 
ATOM      2  H19 X24 d   1       7.234  26.267  36.121  0.00  0.00     0.064 H 
ATOM      3  H20 X24 d   1       8.703  27.127  36.696  0.00  0.00     0.064 H 
ENDROOT
BRANCH   1   4
ATOM      4  C13 X24 d   1       7.726  25.909  38.208  0.00  0.00    -0.039 C 
ATOM      5  C12 X24 d   1       6.472  25.010  38.227  0.00  0.00    -0.060 C 
ATOM      6  C11 X24 d   1       6.515  24.039  39.413  0.00  0.00    -0.060 C 
ATOM      7  H16 X24 d   1       5.576  25.643  38.311  0.00  0.00     0.033 H 
ATOM      8  H17 X24 d   1       6.427  24.434  37.291  0.00  0.00     0.033 H 
ATOM      9  C10 X24 d   1       7.850  23.271  39.383  0.00  0.00    -0.039 C 
ATOM     10  H14 X24 d   1       6.435  24.602  40.354  0.00  0.00     0.033 H 
ATOM     11  H15 X24 d   1       5.679  23.328  39.339  0.00  0.00     0.033 H 
ATOM     12  C37 X24 d   1       9.072  24.203  39.527  0.00  0.00    -0.060 C 
ATOM     13  H13 X24 d   1       7.922  22.814  38.385  0.00  0.00     0.042 H 
ATOM     14  C36 X24 d   1       9.081  25.165  38.323  0.00  0.00    -0.060 C 
ATOM     15  H38 X24 d   1       9.997  23.608  39.536  0.00  0.00     0.033 H 
ATOM     16  H39 X24 d   1       8.996  24.776  40.463  0.00  0.00     0.033 H 
ATOM     17  H36 X24 d   1       9.887  25.901  38.455  0.00  0.00     0.033 H 
ATOM     18  H37 X24 d   1       9.257  24.590  37.402  0.00  0.00     0.033 H 
ATOM     19  H18 X24 d   1       7.658  26.564  39.089  0.00  0.00     0.042 H 
BRANCH   9  20
ATOM     20  C9  X24 d   1       7.885  22.123  40.388  0.00  0.00     0.001 C 
ATOM     21  H11 X24 d   1       7.046  21.445  40.171  0.00  0.00     0.064 H 
ATOM     22  H12 X24 d   1       8.835  21.582  40.265  0.00  0.00     0.064 H 
BRANCH  20  23
ATOM     23  N8  X24 d   1       7.777  22.563  41.790  0.00  0.00    -0.337 N 
ATOM     24  C6  X24 d   1       6.848  22.001  42.593  0.00  0.00     0.361 C 
ATOM     25  O7  X24 d   1       6.803  22.325  43.769  0.00  0.00    -0.238 OA
ATOM     26  H10 X24 d   1       8.387  23.272  42.144  0.00  0.00     0.164 HD
BRANCH  24  27
ATOM     27  O5  X24 d   1       6.020  21.072  42.046  0.00  0.00    -0.294 OA
BRANCH  27  28
ATOM     28  C2  X24 d   1       4.608  20.864  42.334  0.00  0.00     0.061 C 
BRANCH  28  29
ATOM     29  C1  X24 d   1       3.842  20.624  41.031  0.00  0.00    -0.048 C 
ATOM     30  H1  X24 d   1       2.777  20.468  41.255  0.00  0.00     0.031 H 
ATOM     31  H2  X24 d   1       4.245  19.733  40.527  0.00  0.00     0.031 H 
ATOM     32  H3  X24 d   1       3.954  21.499  40.374  0.00  0.00     0.031 H 
ENDBRANCH  28  29
BRANCH  28  33
ATOM     33  C3  X24 d   1       3.938  22.027  43.077  0.00  0.00    -0.048 C 
ATOM     34  H4  X24 d   1       4.473  22.217  44.019  0.00  0.00     0.031 H 
ATOM     35  H5  X24 d   1       2.892  21.768  43.296  0.00  0.00     0.031 H 
ATOM     36  H6  X24 d   1       3.969  22.930  42.449  0.00  0.00     0.031 H 
ENDBRANCH  28  33
BRANCH  28  37
ATOM     37  C4  X24 d   1       4.525  19.599  43.187  0.00  0.00    -0.048 C 
ATOM     38  H7  X24 d   1       5.005  18.765  42.654  0.00  0.00     0.031 H 
ATOM     39  H8  X24 d   1       3.470  19.353  43.377  0.00  0.00     0.031 H 
ATOM     40  H9  X24 d   1       5.040  19.768  44.144  0.00  0.00     0.031 H 
ENDBRANCH  28  37
ENDBRANCH  27  28
ENDBRANCH  24  27
ENDBRANCH  20  23
ENDBRANCH   9  20
ENDBRANCH   1   4
BRANCH   1  41
ATOM     41  N15 X24 d   1       6.865  27.938  37.373  0.00  0.00    -0.356 N 
ATOM     42  C16 X24 d   1       6.242  28.764  36.512  0.00  0.00     0.252 C 
ATOM     43  O17 X24 d   1       6.412  28.708  35.307  0.00  0.00    -0.268 OA
ATOM     44  H21 X24 d   1       6.757  28.115  38.351  0.00  0.00     0.162 HD
BRANCH  42  45
ATOM     45  C18 X24 d   1       5.461  29.848  37.127  0.00  0.00     0.046 A 
ATOM     46  C19 X24 d   1       6.210  30.857  37.678  0.00  0.00    -0.038 A 
ATOM     47  C20 X24 d   1       5.619  31.953  38.315  0.00  0.00     0.068 A 
ATOM     48  H22 X24 d   1       7.291  30.803  37.618  0.00  0.00     0.088 H 
ATOM     49  N21 X24 d   1       4.300  32.032  38.449  0.00  0.00    -0.247 NA
ATOM     50  C22 X24 d   1       3.490  31.061  37.965  0.00  0.00     0.068 A 
ATOM     51  C23 X24 d   1       2.079  31.145  38.113  0.00  0.00    -0.054 A 
ATOM     52  C27 X24 d   1       4.044  29.915  37.284  0.00  0.00     0.008 A 
ATOM     53  C24 X24 d   1       1.270  30.154  37.603  0.00  0.00    -0.081 A 
ATOM     54  H23 X24 d   1       1.639  31.991  38.628  0.00  0.00     0.087 H 
ATOM     55  C25 X24 d   1       1.813  29.047  36.930  0.00  0.00    -0.082 A 
ATOM     56  H24 X24 d   1       0.195  30.230  37.723  0.00  0.00     0.083 H 
ATOM     57  C26 X24 d   1       3.177  28.915  36.775  0.00  0.00    -0.070 A 
ATOM     58  H25 X24 d   1       1.152  28.288  36.528  0.00  0.00     0.083 H 
ATOM     59  H26 X24 d   1       3.585  28.049  36.266  0.00  0.00     0.084 H 
BRANCH  47  60
ATOM     60  C28 X24 d   1       6.600  32.944  38.809  0.00  0.00    -0.007 A 
ATOM     61  C29 X24 d   1       7.896  32.464  39.070  0.00  0.00    -0.070 A 
ATOM     62  C30 X24 d   1       8.893  33.311  39.507  0.00  0.00    -0.074 A 
ATOM     63  H27 X24 d   1       8.115  31.412  38.925  0.00  0.00     0.084 H 
ATOM     64  C31 X24 d   1       8.626  34.667  39.635  0.00  0.00    -0.033 A 
ATOM     65  H28 X24 d   1       9.875  32.922  39.748  0.00  0.00     0.084 H 
ATOM     66  C34 X24 d   1       7.339  35.160  39.369  0.00  0.00    -0.074 A 
ATOM     67  C35 X24 d   1       6.323  34.309  38.938  0.00  0.00    -0.070 A 
ATOM     68  H34 X24 d   1       7.133  36.216  39.501  0.00  0.00     0.084 H 
ATOM     69  H35 X24 d   1       5.338  34.697  38.707  0.00  0.00     0.084 H 
BRANCH  64  70
ATOM     70  C32 X24 d   1       9.732  35.584  40.091  0.00  0.00     0.103 C 
ATOM     71  H29 X24 d   1       9.891  35.456  41.172  0.00  0.00     0.082 H 
ATOM     72  H30 X24 d   1       9.451  36.627  39.883  0.00  0.00     0.082 H 
BRANCH  70  73
ATOM     73  N33 X24 d   1      10.973  35.259  39.373  0.00  0.00    -0.075 N 
ATOM     74  H31 X24 d   1      11.710  35.874  39.681  0.00  0.00     0.274 HD
ATOM     75  H32 X24 d   1      10.829  35.377  38.382  0.00  0.00     0.274 HD
ATOM     76  H33 X24 d   1      11.231  34.303  39.564  0.00  0.00     0.274 HD
ENDBRANCH  70  73
ENDBRANCH  64  70
ENDBRANCH  47  60
ENDBRANCH  42  45
ENDBRANCH   1  41
TORSDOF 13
