REMARK WARNING: 32 MAX_TORS EXCEEDED!!!
REMARK  41 active torsions:
REMARK  status: ('A' for Active; 'I' for Inactive)
REMARK    1  A    between atoms: CA_2  and  CB_3 
REMARK    2  A    between atoms: N_6  and  CN_7 
REMARK    3  A    between atoms: CA_8  and  CB_9 
REMARK    4  A    between atoms: CB_9  and  CG_10 
REMARK    5  A    between atoms: CG_10  and  CD1_11 
REMARK    6  A    between atoms: CG_10  and  CD2_12 
REMARK    7  A    between atoms: N_15  and  CN_16 
REMARK    8  A    between atoms: CA_17  and  CB_18 
REMARK    9  A    between atoms: CB_18  and  CG_19 
REMARK   10  A    between atoms: CG_19  and  CD1_20 
REMARK   11  A    between atoms: CG_19  and  CD2_21 
REMARK   12  A    between atoms: N_24  and  CN_25 
REMARK   13  A    between atoms: CA_26  and  CB_27 
REMARK   14  A    between atoms: CB_27  and  CG1_28 
REMARK   15  A    between atoms: CB_27  and  CG2_29 
REMARK   16  A    between atoms: N_32  and  CN_33 
REMARK   17  A    between atoms: CA_34  and  CB_37 
REMARK   18  A    between atoms: CB_37  and  OG1_38 
REMARK   19  A    between atoms: CB_37  and  CG2_39 
REMARK   20  A    between atoms: CG2_39  and  CD1_40 
REMARK   21  A    between atoms: CG2_39  and  CD2_41 
REMARK   22  A    between atoms: CD2_41  and  CE_42 
REMARK   23  A    between atoms: CE_42  and  CZ_43 
REMARK   24  A    between atoms: CZ_43  and  CH_44 
REMARK   25  A    between atoms: CA_46  and  CB_49 
REMARK   26  A    between atoms: CB_49  and  CG_50 
REMARK   27  A    between atoms: N_51  and  CN_55 
REMARK   28  A    between atoms: N_56  and  CN_57 
REMARK   29  A    between atoms: CA_58  and  CB_59 
REMARK   30  A    between atoms: CB_59  and  CG_60 
REMARK   31  A    between atoms: CG_60  and  CD1_61 
REMARK   32  A    between atoms: CG_60  and  CD2_62 
REMARK   33  A    between atoms: CA_66  and  CB_69 
REMARK   34  A    between atoms: CB_69  and  CG1_70 
REMARK   35  A    between atoms: CB_69  and  CG2_71 
REMARK   36  A    between atoms: N_72  and  CN_73 
REMARK   37  A    between atoms: CA_74  and  CB_75 
REMARK   38  A    between atoms: CB_75  and  CG_76 
REMARK   39  A    between atoms: CG_76  and  CD1_77 
REMARK   40  A    between atoms: CG_76  and  CD2_78 
REMARK   41  A    between atoms: CA_82  and  CB_85 
ROOT
ATOM      1  N   DAL d   1      36.475   0.593 -54.905  0.00  0.00    -0.346 N 
ATOM      2  CA  DAL d   1      36.418  -0.604 -55.762  0.00  0.00     0.086 C 
ATOM      3  C   DAL d   1      35.014  -0.768 -56.298  0.00  0.00     0.242 C 
ATOM      4  O   DAL d   1      34.355   0.230 -56.585  0.00  0.00    -0.271 OA
ATOM      5  H1  DAL d   1      36.477   1.496 -55.336  0.00  0.00     0.163 HD
ATOM      6  H2  DAL d   1      36.686  -1.488 -55.164  0.00  0.00     0.086 H 
ATOM      7  N   MLE d   1      34.530  -2.016 -56.418  0.00  0.00    -0.341 N 
ATOM      8  CA  MLE d   1      33.105  -2.220 -56.738  0.00  0.00     0.091 C 
ATOM      9  C   MLE d   1      32.338  -2.996 -55.681  0.00  0.00     0.243 C 
ATOM     10  O   MLE d   1      32.049  -4.159 -55.893  0.00  0.00    -0.271 OA
ATOM     11  N   MLE d   1      32.017  -2.388 -54.536  0.00  0.00    -0.341 N 
ATOM     12  CA  MLE d   1      31.338  -3.169 -53.476  0.00  0.00     0.091 C 
ATOM     13  C   MLE d   1      29.892  -2.720 -53.407  0.00  0.00     0.243 C 
ATOM     14  O   MLE d   1      29.578  -1.625 -53.930  0.00  0.00    -0.271 OA
ATOM     15  N   MLE d   1      29.100   2.455 -44.948  0.00  0.00    -0.342 N 
ATOM     16  CA  MLE d   1      30.509   2.790 -45.351  0.00  0.00     0.091 C 
ATOM     17  C   MLE d   1      30.713   2.245 -46.743  0.00  0.00     0.241 C 
ATOM     18  O   MLE d   1      30.915   1.017 -46.928  0.00  0.00    -0.271 OA
ATOM     19  N   MLE d   1      32.924   1.547 -49.653  0.00  0.00    -0.341 N 
ATOM     20  CA  MLE d   1      34.363   1.512 -49.855  0.00  0.00     0.091 C 
ATOM     21  C   MLE d   1      34.781   1.515 -51.321  0.00  0.00     0.241 C 
ATOM     22  O   MLE d   1      33.978   1.270 -52.227  0.00  0.00    -0.271 OA
ATOM     23  H9  MLE d   1      32.637  -1.228 -56.829  0.00  0.00     0.087 H 
ATOM     24  H22 MLE d   1      31.363  -4.235 -53.746  0.00  0.00     0.087 H 
ATOM     25  H77 MLE d   1      30.631   3.883 -45.349  0.00  0.00     0.087 H 
ATOM     26  H99 MLE d   1      34.770   2.426 -49.398  0.00  0.00     0.087 H 
ATOM     27  N   MVA d   1      28.978  -3.495 -52.802  0.00  0.00    -0.341 N 
ATOM     28  CA  MVA d   1      27.614  -2.981 -52.663  0.00  0.00     0.094 C 
ATOM     29  C   MVA d   1      27.176  -2.886 -51.255  0.00  0.00     0.243 C 
ATOM     30  O   MVA d   1      26.660  -3.859 -50.694  0.00  0.00    -0.271 OA
ATOM     31  H35 MVA d   1      27.599  -1.975 -53.108  0.00  0.00     0.088 H 
ATOM     32  N   BMT d   1      27.951  -1.782 -50.272  0.00  0.00    -0.339 N 
ATOM     33  CA  BMT d   1      27.574  -1.799 -48.874  0.00  0.00     0.116 C 
ATOM     34  C   BMT d   1      26.432  -0.851 -48.531  0.00  0.00     0.243 C 
ATOM     35  O   BMT d   1      25.838  -0.202 -49.406  0.00  0.00    -0.271 OA
ATOM     36  H46 BMT d   1      27.218  -2.811 -48.629  0.00  0.00     0.091 H 
ATOM     37  N   ABA d   1      26.084  -0.795 -47.256  0.00  0.00    -0.346 N 
ATOM     38  CA  ABA d   1      24.980  -0.014 -46.785  0.00  0.00     0.089 C 
ATOM     39  C   ABA d   1      25.552   0.864 -45.691  0.00  0.00     0.242 C 
ATOM     40  O   ABA d   1      25.413   0.540 -44.542  0.00  0.00    -0.271 OA
ATOM     41  H62 ABA d   1      26.615  -1.321 -46.592  0.00  0.00     0.163 HD
ATOM     42  H63 ABA d   1      24.540   0.590 -47.592  0.00  0.00     0.087 H 
ATOM     43  N   SAR d   1      26.223   1.955 -46.046  0.00  0.00    -0.346 N 
ATOM     44  CA  SAR d   1      26.683   2.905 -45.033  0.00  0.00     0.071 C 
ATOM     45  C   SAR d   1      28.119   3.341 -45.159  0.00  0.00     0.238 C 
ATOM     46  O   SAR d   1      28.352   4.500 -45.426  0.00  0.00    -0.272 OA
ATOM     47  H69 SAR d   1      26.556   2.436 -44.046  0.00  0.00     0.079 H 
ATOM     48  H70 SAR d   1      26.049   3.802 -45.097  0.00  0.00     0.079 H 
ATOM     49  N   VAL d   1      30.598   3.118 -47.738  0.00  0.00    -0.346 N 
ATOM     50  CA  VAL d   1      30.856   2.704 -49.074  0.00  0.00     0.092 C 
ATOM     51  C   VAL d   1      32.370   2.657 -49.158  0.00  0.00     0.243 C 
ATOM     52  O   VAL d   1      33.023   3.599 -48.731  0.00  0.00    -0.271 OA
ATOM     53  H87 VAL d   1      30.331   4.063 -47.548  0.00  0.00     0.163 HD
ATOM     54  H88 VAL d   1      30.445   1.696 -49.230  0.00  0.00     0.088 H 
ATOM     55  N   ALA d   1      36.053   1.852 -51.524  0.00  0.00    -0.346 N 
ATOM     56  CA  ALA d   1      36.727   1.811 -52.820  0.00  0.00     0.086 C 
ATOM     57  C   ALA d   1      36.524   0.515 -53.589  0.00  0.00     0.240 C 
ATOM     58  O   ALA d   1      36.463  -0.539 -53.008  0.00  0.00    -0.271 OA
ATOM     59 9H10 ALA d   1      36.585   2.155 -50.733  0.00  0.00     0.163 HD
ATOM     60 0H11 ALA d   1      36.348   2.642 -53.434  0.00  0.00     0.086 H 
ENDROOT
BRANCH  33  61
ATOM     61  CB  BMT d   1      28.881  -1.556 -48.091  0.00  0.00     0.067 C 
ATOM     62  H47 BMT d   1      28.650  -1.620 -47.017  0.00  0.00     0.087 H 
BRANCH  61  63
ATOM     63  OG1 BMT d   1      29.273  -0.275 -48.402  0.00  0.00    -0.393 OA
ATOM     64  H48 BMT d   1      30.079  -0.072 -47.943  0.00  0.00     0.210 HD
ENDBRANCH  61  63
BRANCH  61  65
ATOM     65  CG2 BMT d   1      30.065  -2.535 -48.372  0.00  0.00    -0.030 C 
ATOM     66  H49 BMT d   1      30.451  -2.267 -49.366  0.00  0.00     0.043 H 
BRANCH  65  67
ATOM     67  CD1 BMT d   1      29.595  -3.986 -48.452  0.00  0.00    -0.070 C 
ATOM     68  H50 BMT d   1      30.457  -4.640 -48.650  0.00  0.00     0.028 H 
ATOM     69  H51 BMT d   1      28.861  -4.090 -49.265  0.00  0.00     0.028 H 
ATOM     70  H52 BMT d   1      29.128  -4.274 -47.498  0.00  0.00     0.028 H 
ENDBRANCH  65  67
BRANCH  65  71
ATOM     71  CD2 BMT d   1      31.260  -2.418 -47.394  0.00  0.00    -0.060 C 
ATOM     72  H53 BMT d   1      31.583  -1.367 -47.408  0.00  0.00     0.033 H 
ATOM     73  H54 BMT d   1      32.064  -3.054 -47.794  0.00  0.00     0.033 H 
BRANCH  71  74
ATOM     74  CE  BMT d   1      31.076  -2.805 -45.932  0.00  0.00    -0.065 C 
ATOM     75  H55 BMT d   1      31.766  -3.641 -45.747  0.00  0.00     0.033 H 
ATOM     76  H56 BMT d   1      30.039  -3.158 -45.837  0.00  0.00     0.033 H 
BRANCH  74  77
ATOM     77  CZ  BMT d   1      31.286  -1.851 -44.836  0.00  0.00    -0.069 C 
ATOM     78  H57 BMT d   1      30.735  -0.934 -45.094  0.00  0.00     0.032 H 
ATOM     79  H58 BMT d   1      32.364  -1.633 -44.798  0.00  0.00     0.032 H 
BRANCH  77  80
ATOM     80  CH  BMT d   1      30.863  -2.247 -43.444  0.00  0.00    -0.077 C 
ATOM     81  H59 BMT d   1      31.088  -1.427 -42.745  0.00  0.00     0.027 H 
ATOM     82  H60 BMT d   1      31.410  -3.150 -43.137  0.00  0.00     0.027 H 
ATOM     83  H61 BMT d   1      29.782  -2.452 -43.434  0.00  0.00     0.027 H 
ENDBRANCH  77  80
ENDBRANCH  74  77
ENDBRANCH  71  74
ENDBRANCH  65  71
ENDBRANCH  61  65
ENDBRANCH  33  61
BRANCH  32  84
ATOM     84  CN  BMT d   1      28.337  -0.598 -51.061  0.00  0.00    -0.015 C 
ATOM     85  H43 BMT d   1      28.568  -0.904 -52.092  0.00  0.00     0.056 H 
ATOM     86  H44 BMT d   1      29.224  -0.130 -50.610  0.00  0.00     0.056 H 
ATOM     87  H45 BMT d   1      27.507   0.123 -51.070  0.00  0.00     0.056 H 
ENDBRANCH  32  84
BRANCH  28  88
ATOM     88  CB  MVA d   1      26.578  -3.818 -53.340  0.00  0.00    -0.033 C 
ATOM     89  H36 MVA d   1      26.428  -4.750 -52.776  0.00  0.00     0.042 H 
BRANCH  88  90
ATOM     90  CG1 MVA d   1      27.033  -4.167 -54.733  0.00  0.00    -0.071 C 
ATOM     91  H37 MVA d   1      26.266  -4.783 -55.226  0.00  0.00     0.028 H 
ATOM     92  H38 MVA d   1      27.977  -4.729 -54.680  0.00  0.00     0.028 H 
ATOM     93  H39 MVA d   1      27.188  -3.244 -55.310  0.00  0.00     0.028 H 
ENDBRANCH  88  90
BRANCH  88  94
ATOM     94  CG2 MVA d   1      25.263  -3.001 -53.331  0.00  0.00    -0.071 C 
ATOM     95  H40 MVA d   1      24.979  -2.775 -52.293  0.00  0.00     0.028 H 
ATOM     96  H41 MVA d   1      24.465  -3.586 -53.811  0.00  0.00     0.028 H 
ATOM     97  H42 MVA d   1      25.411  -2.061 -53.883  0.00  0.00     0.028 H 
ENDBRANCH  88  94
ENDBRANCH  28  88
BRANCH  38  98
ATOM     98  CB  ABA d   1      23.925  -0.969 -46.183  0.00  0.00    -0.041 C 
ATOM     99  H64 ABA d   1      23.101  -0.367 -45.772  0.00  0.00     0.036 H 
ATOM    100  H65 ABA d   1      24.396  -1.547 -45.374  0.00  0.00     0.036 H 
BRANCH  98 101
ATOM    101  CG  ABA d   1      23.348  -1.949 -47.211  0.00  0.00    -0.074 C 
ATOM    102  H66 ABA d   1      22.606  -2.598 -46.723  0.00  0.00     0.027 H 
ATOM    103  H67 ABA d   1      24.159  -2.566 -47.625  0.00  0.00     0.027 H 
ATOM    104  H68 ABA d   1      22.864  -1.386 -48.023  0.00  0.00     0.027 H 
ENDBRANCH  98 101
ENDBRANCH  38  98
BRANCH  27 105
ATOM    105  CN  MVA d   1      29.242  -4.838 -52.329  0.00  0.00    -0.015 C 
ATOM    106  H32 MVA d   1      30.301  -5.085 -52.498  0.00  0.00     0.056 H 
ATOM    107  H33 MVA d   1      28.608  -5.551 -52.876  0.00  0.00     0.056 H 
ATOM    108  H34 MVA d   1      29.019  -4.899 -51.254  0.00  0.00     0.056 H 
ENDBRANCH  27 105
BRANCH  43 109
ATOM    109  CN  SAR d   1      26.445   2.307 -47.424  0.00  0.00    -0.015 C 
ATOM    110  H71 SAR d   1      26.053   1.510 -48.074  0.00  0.00     0.056 H 
ATOM    111  H72 SAR d   1      27.524   2.428 -47.602  0.00  0.00     0.056 H 
ATOM    112  H73 SAR d   1      25.928   3.251 -47.649  0.00  0.00     0.056 H 
ENDBRANCH  43 109
BRANCH  12 113
ATOM    113  CB  MLE d   1      32.049  -3.000 -52.144  0.00  0.00    -0.035 C 
ATOM    114  H23 MLE d   1      31.433  -3.480 -51.369  0.00  0.00     0.037 H 
ATOM    115  H24 MLE d   1      32.126  -1.923 -51.936  0.00  0.00     0.037 H 
BRANCH 113 116
ATOM    116  CG  MLE d   1      33.467  -3.600 -52.061  0.00  0.00    -0.059 C 
ATOM    117  H25 MLE d   1      34.118  -3.010 -52.723  0.00  0.00     0.038 H 
BRANCH 116 118
ATOM    118  CD1 MLE d   1      33.524  -5.068 -52.505  0.00  0.00    -0.073 C 
ATOM    119  H26 MLE d   1      34.557  -5.436 -52.423  0.00  0.00     0.028 H 
ATOM    120  H27 MLE d   1      33.188  -5.149 -53.549  0.00  0.00     0.028 H 
ATOM    121  H28 MLE d   1      32.868  -5.672 -51.861  0.00  0.00     0.028 H 
ENDBRANCH 116 118
BRANCH 116 122
ATOM    122  CD2 MLE d   1      34.021  -3.532 -50.642  0.00  0.00    -0.073 C 
ATOM    123  H29 MLE d   1      33.996  -2.491 -50.288  0.00  0.00     0.028 H 
ATOM    124  H30 MLE d   1      35.059  -3.897 -50.636  0.00  0.00     0.028 H 
ATOM    125  H31 MLE d   1      33.408  -4.160 -49.978  0.00  0.00     0.028 H 
ENDBRANCH 116 122
ENDBRANCH 113 116
ENDBRANCH  12 113
BRANCH  11 126
ATOM    126  CN  MLE d   1      32.440  -1.015 -54.233  0.00  0.00    -0.015 C 
ATOM    127  H19 MLE d   1      32.924  -0.577 -55.118  0.00  0.00     0.056 H 
ATOM    128  H20 MLE d   1      33.151  -1.027 -53.394  0.00  0.00     0.056 H 
ATOM    129  H21 MLE d   1      31.561  -0.412 -53.960  0.00  0.00     0.056 H 
ENDBRANCH  11 126
BRANCH  15 130
ATOM    130  CN  MLE d   1      28.773   1.049 -44.830  0.00  0.00    -0.015 C 
ATOM    131  H74 MLE d   1      27.720   0.941 -44.531  0.00  0.00     0.056 H 
ATOM    132  H75 MLE d   1      29.419   0.585 -44.070  0.00  0.00     0.056 H 
ATOM    133  H76 MLE d   1      28.932   0.553 -45.799  0.00  0.00     0.056 H 
ENDBRANCH  15 130
BRANCH   8 134
ATOM    134  CB  MLE d   1      32.989  -2.936 -58.072  0.00  0.00    -0.035 C 
ATOM    135  H10 MLE d   1      31.922  -3.090 -58.289  0.00  0.00     0.037 H 
ATOM    136  H11 MLE d   1      33.490  -3.912 -57.984  0.00  0.00     0.037 H 
BRANCH 134 137
ATOM    137  CG  MLE d   1      33.612  -2.182 -59.245  0.00  0.00    -0.059 C 
ATOM    138  H12 MLE d   1      34.677  -2.030 -59.014  0.00  0.00     0.038 H 
BRANCH 137 139
ATOM    139  CD1 MLE d   1      32.999  -0.778 -59.529  0.00  0.00    -0.073 C 
ATOM    140  H13 MLE d   1      33.513  -0.320 -60.387  0.00  0.00     0.028 H 
ATOM    141  H14 MLE d   1      33.123  -0.138 -58.643  0.00  0.00     0.028 H 
ATOM    142  H15 MLE d   1      31.928  -0.885 -59.758  0.00  0.00     0.028 H 
ENDBRANCH 137 139
BRANCH 137 143
ATOM    143  CD2 MLE d   1      33.506  -3.070 -60.490  0.00  0.00    -0.073 C 
ATOM    144  H16 MLE d   1      33.942  -4.057 -60.275  0.00  0.00     0.028 H 
ATOM    145  H17 MLE d   1      34.052  -2.601 -61.322  0.00  0.00     0.028 H 
ATOM    146  H18 MLE d   1      32.448  -3.189 -60.766  0.00  0.00     0.028 H 
ENDBRANCH 137 143
ENDBRANCH 134 137
ENDBRANCH   8 134
BRANCH  16 147
ATOM    147  CB  MLE d   1      31.565   2.180 -44.459  0.00  0.00    -0.035 C 
ATOM    148  H78 MLE d   1      32.086   1.411 -45.049  0.00  0.00     0.037 H 
ATOM    149  H79 MLE d   1      31.044   1.704 -43.615  0.00  0.00     0.037 H 
BRANCH 147 150
ATOM    150  CG  MLE d   1      32.628   3.098 -43.874  0.00  0.00    -0.059 C 
ATOM    151  H80 MLE d   1      32.265   3.418 -42.886  0.00  0.00     0.038 H 
BRANCH 150 152
ATOM    152  CD1 MLE d   1      32.916   4.374 -44.652  0.00  0.00    -0.073 C 
ATOM    153  H81 MLE d   1      33.696   4.951 -44.134  0.00  0.00     0.028 H 
ATOM    154  H82 MLE d   1      31.998   4.977 -44.720  0.00  0.00     0.028 H 
ATOM    155  H83 MLE d   1      33.261   4.116 -45.664  0.00  0.00     0.028 H 
ENDBRANCH 150 152
BRANCH 150 156
ATOM    156  CD2 MLE d   1      33.892   2.266 -43.659  0.00  0.00    -0.073 C 
ATOM    157  H84 MLE d   1      33.640   1.356 -43.095  0.00  0.00     0.028 H 
ATOM    158  H85 MLE d   1      34.628   2.856 -43.093  0.00  0.00     0.028 H 
ATOM    159  H86 MLE d   1      34.318   1.987 -44.634  0.00  0.00     0.028 H 
ENDBRANCH 150 156
ENDBRANCH 147 150
ENDBRANCH  16 147
BRANCH   7 160
ATOM    160  CN  MLE d   1      35.294  -3.228 -56.068  0.00  0.00    -0.015 C 
ATOM    161  H6  MLE d   1      36.337  -2.954 -55.851  0.00  0.00     0.056 H 
ATOM    162  H7  MLE d   1      35.269  -3.934 -56.911  0.00  0.00     0.056 H 
ATOM    163  H8  MLE d   1      34.846  -3.700 -55.181  0.00  0.00     0.056 H 
ENDBRANCH   7 160
BRANCH   2 164
ATOM    164  CB  DAL d   1      37.366  -0.482 -56.902  0.00  0.00    -0.049 C 
ATOM    165  H3  DAL d   1      37.306  -1.385 -57.527  0.00  0.00     0.030 H 
ATOM    166  H4  DAL d   1      38.390  -0.370 -56.517  0.00  0.00     0.030 H 
ATOM    167  H5  DAL d   1      37.102   0.399 -57.505  0.00  0.00     0.030 H 
ENDBRANCH   2 164
BRANCH  50 168
ATOM    168  CB  VAL d   1      30.244   3.625 -50.125  0.00  0.00    -0.033 C 
ATOM    169  H89 VAL d   1      30.721   4.615 -50.073  0.00  0.00     0.042 H 
BRANCH 168 170
ATOM    170  CG1 VAL d   1      30.494   3.008 -51.523  0.00  0.00    -0.071 C 
ATOM    171  H90 VAL d   1      30.059   3.660 -52.295  0.00  0.00     0.028 H 
ATOM    172  H91 VAL d   1      30.024   2.015 -51.575  0.00  0.00     0.028 H 
ATOM    173  H92 VAL d   1      31.576   2.911 -51.693  0.00  0.00     0.028 H 
ENDBRANCH 168 170
BRANCH 168 174
ATOM    174  CG2 VAL d   1      28.731   3.775 -49.851  0.00  0.00    -0.071 C 
ATOM    175  H93 VAL d   1      28.581   4.215 -48.854  0.00  0.00     0.028 H 
ATOM    176  H94 VAL d   1      28.251   2.786 -49.892  0.00  0.00     0.028 H 
ATOM    177  H95 VAL d   1      28.284   4.431 -50.612  0.00  0.00     0.028 H 
ENDBRANCH 168 174
ENDBRANCH  50 168
BRANCH  19 178
ATOM    178  CN  MLE d   1      32.191   0.328 -50.065  0.00  0.00    -0.015 C 
ATOM    179  H96 MLE d   1      31.117   0.462 -49.869  0.00  0.00     0.056 H 
ATOM    180  H97 MLE d   1      32.563  -0.535 -49.493  0.00  0.00     0.056 H 
ATOM    181  H98 MLE d   1      32.349   0.151 -51.139  0.00  0.00     0.056 H 
ENDBRANCH  19 178
BRANCH  56 182
ATOM    182  CB  ALA d   1      38.236   1.991 -52.582  0.00  0.00    -0.049 C 
ATOM    183 1H11 ALA d   1      38.765   1.963 -53.546  0.00  0.00     0.030 H 
ATOM    184 2H11 ALA d   1      38.605   1.179 -51.938  0.00  0.00     0.030 H 
ATOM    185 3H11 ALA d   1      38.417   2.959 -52.092  0.00  0.00     0.030 H 
ENDBRANCH  56 182
BRANCH  20 186
ATOM    186  CB  MLE d   1      35.008   0.304 -49.141  0.00  0.00    -0.035 C 
ATOM    187 0H10 MLE d   1      36.096   0.327 -49.303  0.00  0.00     0.037 H 
ATOM    188 1H10 MLE d   1      34.595  -0.625 -49.559  0.00  0.00     0.037 H 
BRANCH 186 189
ATOM    189  CG  MLE d   1      34.722   0.348 -47.628  0.00  0.00    -0.059 C 
ATOM    190 2H10 MLE d   1      33.643   0.522 -47.504  0.00  0.00     0.038 H 
BRANCH 189 191
ATOM    191  CD1 MLE d   1      35.463   1.505 -46.994  0.00  0.00    -0.073 C 
ATOM    192 3H10 MLE d   1      35.252   1.528 -45.915  0.00  0.00     0.028 H 
ATOM    193 4H10 MLE d   1      35.131   2.448 -47.452  0.00  0.00     0.028 H 
ATOM    194 5H10 MLE d   1      36.544   1.380 -47.154  0.00  0.00     0.028 H 
ENDBRANCH 189 191
BRANCH 189 195
ATOM    195  CD2 MLE d   1      35.062  -0.942 -46.891  0.00  0.00    -0.073 C 
ATOM    196 6H10 MLE d   1      34.522  -1.782 -47.353  0.00  0.00     0.028 H 
ATOM    197 7H10 MLE d   1      34.764  -0.851 -45.836  0.00  0.00     0.028 H 
ATOM    198 8H10 MLE d   1      36.145  -1.124 -46.952  0.00  0.00     0.028 H 
ENDBRANCH 189 195
ENDBRANCH 186 189
ENDBRANCH  20 186
TORSDOF 41
