REMARK  23 active torsions:
REMARK  status: ('A' for Active; 'I' for Inactive)
REMARK    1  A    between atoms: N4B_18  and  C1A_1 
REMARK    2  A    between atoms: C2A_2  and  O2A_8 
REMARK    3  A    between atoms: C3A_3  and  O3A_9 
REMARK    4  A    between atoms: C4A_4  and  O4A_10 
REMARK    5  A    between atoms: C5A_5  and  C6A_6 
REMARK    6  A    between atoms: C6A_6  and  O6A_11 
REMARK    7  A    between atoms: O4C_30  and  C1B_12 
REMARK    8  A    between atoms: C2B_13  and  O2B_19 
REMARK    9  A    between atoms: C3B_14  and  O3B_20 
REMARK   10  A    between atoms: C4B_15  and  N4B_18 
REMARK   11  A    between atoms: C5B_16  and  C6B_17 
REMARK   12  A    between atoms: O4D_42  and  C1C_22 
REMARK   13  A    between atoms: C2C_23  and  O2C_28 
REMARK   14  A    between atoms: C3C_24  and  O3C_29 
REMARK   15  A    between atoms: C4C_25  and  O4C_30 
REMARK   16  A    between atoms: C5C_26  and  C6C_27 
REMARK   17  A    between atoms: C6C_27  and  O6C_32 
REMARK   18  A    between atoms: C1D_33  and  O1D_39 
REMARK   19  A    between atoms: C2D_34  and  O2D_40 
REMARK   20  A    between atoms: C3D_35  and  O3D_41 
REMARK   21  A    between atoms: C4D_36  and  O4D_42 
REMARK   22  A    between atoms: C5D_37  and  C6D_38 
REMARK   23  A    between atoms: C6D_38  and  O6D_44 
ROOT
ATOM      1  C1B QPS d   1      23.174   6.590  65.452  0.00  0.00     0.159 C 
ATOM      2  C2B QPS d   1      23.594   5.914  66.762  0.00  0.00     0.110 C 
ATOM      3  C3B QPS d   1      24.791   5.006  66.530  0.00  0.00     0.094 C 
ATOM      4  C4B QPS d   1      24.375   4.001  65.474  0.00  0.00     0.154 C 
ATOM      5  C5B QPS d   1      23.967   4.736  64.196  0.00  0.00     0.068 C 
ATOM      6  O5B QPS d   1      22.835   5.543  64.538  0.00  0.00    -0.351 OA
ATOM      7  H12 QPS d   1      22.300   7.233  65.630  0.00  0.00     0.133 H 
ATOM      8  H13 QPS d   1      22.751   5.303  67.116  0.00  0.00     0.094 H 
ATOM      9  H14 QPS d   1      25.660   5.589  66.189  0.00  0.00     0.090 H 
ATOM     10  H15 QPS d   1      23.460   3.513  65.841  0.00  0.00     0.092 H 
ATOM     11  H16 QPS d   1      24.800   5.371  63.860  0.00  0.00     0.086 H 
ENDROOT
BRANCH   1  12
ATOM     12  O4C QPS d   1      24.248   7.391  64.898  0.00  0.00    -0.348 OA
BRANCH  12  13
ATOM     13  C4C QPS d   1      23.901   8.739  64.499  0.00  0.00     0.096 C 
ATOM     14  C3C QPS d   1      24.827   9.726  65.198  0.00  0.00     0.092 C 
ATOM     15  C2C QPS d   1      24.519  11.160  64.766  0.00  0.00     0.110 C 
ATOM     16  H26 QPS d   1      25.869   9.495  64.929  0.00  0.00     0.091 H 
ATOM     17  C1C QPS d   1      24.508  11.312  63.259  0.00  0.00     0.159 C 
ATOM     18  H25 QPS d   1      23.542  11.458  65.175  0.00  0.00     0.094 H 
ATOM     19  O5C QPS d   1      23.627  10.359  62.689  0.00  0.00    -0.348 OA
ATOM     20  H24 QPS d   1      24.192  12.328  62.978  0.00  0.00     0.133 H 
ATOM     21  C5C QPS d   1      23.967   8.993  62.984  0.00  0.00     0.089 C 
ATOM     22  H28 QPS d   1      25.005   8.819  62.664  0.00  0.00     0.090 H 
ATOM     23  H27 QPS d   1      22.868   8.928  64.827  0.00  0.00     0.091 H 
BRANCH  14  24
ATOM     24  O3C QPS d   1      24.662   9.568  66.613  0.00  0.00    -0.390 OA
ATOM     25  H32 QPS d   1      24.886   8.678  66.859  0.00  0.00     0.210 HD
ENDBRANCH  14  24
BRANCH  15  26
ATOM     26  O2C QPS d   1      25.542  12.024  65.254  0.00  0.00    -0.388 OA
ATOM     27  H31 QPS d   1      25.355  12.916  64.988  0.00  0.00     0.210 HD
ENDBRANCH  15  26
BRANCH  17  28
ATOM     28  O4D QPS d   1      25.834  11.062  62.809  0.00  0.00    -0.348 OA
BRANCH  28  29
ATOM     29  C4D QPS d   1      26.310  11.986  61.824  0.00  0.00     0.096 C 
ATOM     30  C3D QPS d   1      27.065  13.146  62.486  0.00  0.00     0.092 C 
ATOM     31  C2D QPS d   1      27.888  13.955  61.481  0.00  0.00     0.110 C 
ATOM     32  H36 QPS d   1      27.761  12.718  63.223  0.00  0.00     0.091 H 
ATOM     33  C1D QPS d   1      28.727  12.972  60.679  0.00  0.00     0.156 C 
ATOM     34  H35 QPS d   1      27.215  14.510  60.811  0.00  0.00     0.094 H 
ATOM     35  O5D QPS d   1      27.796  12.155  59.973  0.00  0.00    -0.349 OA
ATOM     36  H34 QPS d   1      29.302  12.345  61.377  0.00  0.00     0.133 H 
ATOM     37  C5D QPS d   1      27.264  11.230  60.904  0.00  0.00     0.089 C 
ATOM     38  H38 QPS d   1      28.082  10.832  61.522  0.00  0.00     0.090 H 
ATOM     39  H37 QPS d   1      25.462  12.383  61.246  0.00  0.00     0.091 H 
BRANCH  30  40
ATOM     40  O3D QPS d   1      26.149  13.996  63.178  0.00  0.00    -0.390 OA
ATOM     41  H43 QPS d   1      25.697  13.495  63.847  0.00  0.00     0.210 HD
ENDBRANCH  30  40
BRANCH  31  42
ATOM     42  O2D QPS d   1      28.750  14.877  62.157  0.00  0.00    -0.388 OA
ATOM     43  H42 QPS d   1      29.251  15.368  61.517  0.00  0.00     0.210 HD
ENDBRANCH  31  42
BRANCH  33  44
ATOM     44  O1D QPS d   1      29.664  13.603  59.787  0.00  0.00    -0.369 OA
ATOM     45  H41 QPS d   1      30.267  14.138  60.290  0.00  0.00     0.212 HD
ENDBRANCH  33  44
BRANCH  37  46
ATOM     46  C6D QPS d   1      26.649  10.063  60.149  0.00  0.00     0.043 C 
ATOM     47  H39 QPS d   1      25.798  10.417  59.548  0.00  0.00     0.078 H 
ATOM     48  H40 QPS d   1      26.303   9.301  60.862  0.00  0.00     0.078 H 
BRANCH  46  49
ATOM     49  O6D QPS d   1      27.655   9.497  59.282  0.00  0.00    -0.398 OA
ATOM     50  H44 QPS d   1      27.953  10.159  58.669  0.00  0.00     0.209 HD
ENDBRANCH  46  49
ENDBRANCH  37  46
ENDBRANCH  28  29
ENDBRANCH  17  28
BRANCH  21  51
ATOM     51  C6C QPS d   1      23.067   8.057  62.172  0.00  0.00     0.043 C 
ATOM     52  H29 QPS d   1      22.012   8.333  62.320  0.00  0.00     0.078 H 
ATOM     53  H30 QPS d   1      23.223   7.017  62.495  0.00  0.00     0.078 H 
BRANCH  51  54
ATOM     54  O6C QPS d   1      23.416   8.194  60.785  0.00  0.00    -0.398 OA
ATOM     55  H33 QPS d   1      22.867   7.620  60.263  0.00  0.00     0.209 HD
ENDBRANCH  51  54
ENDBRANCH  21  51
ENDBRANCH  12  13
ENDBRANCH   1  12
BRANCH   2  56
ATOM     56  O2B QPS d   1      23.921   6.860  67.780  0.00  0.00    -0.388 OA
ATOM     57  H22 QPS d   1      24.135   6.399  68.582  0.00  0.00     0.210 HD
ENDBRANCH   2  56
BRANCH   3  58
ATOM     58  O3B QPS d   1      25.105   4.324  67.739  0.00  0.00    -0.391 OA
ATOM     59  H23 QPS d   1      25.365   4.956  68.399  0.00  0.00     0.210 HD
ENDBRANCH   3  58
BRANCH   5  60
ATOM     60  C6B QPS d   1      23.573   3.808  63.067  0.00  0.00    -0.050 C 
ATOM     61  H17 QPS d   1      23.293   4.402  62.185  0.00  0.00     0.031 H 
ATOM     62  H18 QPS d   1      22.717   3.192  63.380  0.00  0.00     0.031 H 
ATOM     63  H19 QPS d   1      24.422   3.156  62.815  0.00  0.00     0.031 H 
ENDBRANCH   5  60
BRANCH   4  64
ATOM     64  N4B QPS d   1      25.357   2.933  65.345  0.00  0.00    -0.056 N 
ATOM     65  H20 QPS d   1      25.525   2.767  64.365  0.00  0.00     0.278 HD
ATOM     66  H21 QPS d   1      26.213   3.228  65.787  0.00  0.00     0.278 HD
BRANCH  64  67
ATOM     67  C1A QPS d   1      24.924   1.693  65.957  0.00  0.00     0.146 C 
ATOM     68  C2A QPS d   1      25.979   0.591  65.942  0.00  0.00     0.093 C 
ATOM     69  C3A QPS d   1      26.068  -0.114  64.602  0.00  0.00     0.091 C 
ATOM     70  H2  QPS d   1      25.665  -0.161  66.680  0.00  0.00     0.090 H 
ATOM     71  C4A QPS d   1      24.724  -0.742  64.227  0.00  0.00     0.086 C 
ATOM     72  H3  QPS d   1      26.416   0.569  63.813  0.00  0.00     0.091 H 
ATOM     73  C5A QPS d   1      23.546   0.124  64.552  0.00  0.00    -0.027 C 
ATOM     74  H4  QPS d   1      24.623  -1.690  64.776  0.00  0.00     0.094 H 
ATOM     75  C7A QPS d   1      23.639   1.211  65.325  0.00  0.00    -0.064 C 
ATOM     76  H7  QPS d   1      22.732   1.785  65.511  0.00  0.00     0.080 H 
ATOM     77  H1  QPS d   1      24.711   1.916  67.013  0.00  0.00     0.095 H 
BRANCH  68  78
ATOM     78  O2A QPS d   1      27.263   1.079  66.356  0.00  0.00    -0.390 OA
ATOM     79  H8  QPS d   1      27.590   1.694  65.710  0.00  0.00     0.210 HD
ENDBRANCH  68  78
BRANCH  69  80
ATOM     80  O3A QPS d   1      26.973  -1.190  64.818  0.00  0.00    -0.390 OA
ATOM     81  H9  QPS d   1      27.825  -0.843  65.055  0.00  0.00     0.210 HD
ENDBRANCH  69  80
BRANCH  71  82
ATOM     82  O4A QPS d   1      24.696  -1.001  62.827  0.00  0.00    -0.388 OA
ATOM     83  H10 QPS d   1      23.887  -1.446  62.605  0.00  0.00     0.210 HD
ENDBRANCH  71  82
BRANCH  73  84
ATOM     84  C6A QPS d   1      22.202  -0.247  63.979  0.00  0.00     0.039 C 
ATOM     85  H5  QPS d   1      22.335  -0.674  62.974  0.00  0.00     0.081 H 
ATOM     86  H6  QPS d   1      21.569   0.650  63.915  0.00  0.00     0.081 H 
BRANCH  84  87
ATOM     87  O6A QPS d   1      21.580  -1.212  64.830  0.00  0.00    -0.397 OA
ATOM     88  H11 QPS d   1      21.467  -0.841  65.697  0.00  0.00     0.209 HD
ENDBRANCH  84  87
ENDBRANCH  73  84
ENDBRANCH  64  67
ENDBRANCH   4  64
TORSDOF 23
