REMARK  5 active torsions:
REMARK  status: ('A' for Active; 'I' for Inactive)
REMARK    1  A    between atoms: CAM_3  and  OAB_4 
REMARK    2  A    between atoms: OAB_4  and  CAA_16 
REMARK    3  A    between atoms: CAQ_7  and  CAF_8 
REMARK    4  A    between atoms: CAF_8  and  CAS_9 
REMARK    5  A    between atoms: CAN_12  and  NAB_19 
ROOT
ATOM      1  CAS X2L d   1     -11.886 -26.907  11.045  0.00  0.00     0.045 A 
ATOM      2  CAU X2L d   1     -11.721 -28.244  10.673  0.00  0.00     0.009 A 
ATOM      3  CAK X2L d   1     -10.667 -28.952  10.097  0.00  0.00    -0.045 A 
ATOM      4  CAN X2L d   1     -10.806 -30.317   9.855  0.00  0.00     0.026 A 
ATOM      5  CAG X2L d   1     -11.962 -31.021  10.159  0.00  0.00    -0.056 A 
ATOM      6  CAJ X2L d   1     -13.012 -30.317  10.740  0.00  0.00    -0.054 A 
ATOM      7  CAT X2L d   1     -12.903 -28.938  10.997  0.00  0.00     0.046 A 
ATOM      8  NAL X2L d   1     -13.761 -28.074  11.555  0.00  0.00    -0.322 N 
ATOM      9  CAR X2L d   1     -13.193 -26.861  11.562  0.00  0.00     0.257 A 
ATOM     10  OAA X2L d   1     -13.774 -25.894  12.010  0.00  0.00    -0.267 OA
ATOM     11  H   X2L d   1      -9.740 -28.441   9.838  0.00  0.00     0.088 H 
ATOM     12  H   X2L d   1     -12.045 -32.088   9.950  0.00  0.00     0.087 H 
ATOM     13  H   X2L d   1     -13.932 -30.841  11.000  0.00  0.00     0.087 H 
ATOM     14  H   X2L d   1     -14.689 -28.301  11.913  0.00  0.00     0.169 HD
ENDROOT
BRANCH   1  15
ATOM     15  CAF X2L d   1     -10.882 -25.919  10.884  0.00  0.00    -0.057 C 
ATOM     16  H   X2L d   1     -10.030 -26.258  10.294  0.00  0.00     0.086 H 
BRANCH  15  17
ATOM     17  CAQ X2L d   1     -10.760 -24.571  11.337  0.00  0.00    -0.035 A 
ATOM     18  CAH X2L d   1      -9.569 -23.896  11.024  0.00  0.00    -0.070 A 
ATOM     19  CAO X2L d   1      -9.331 -22.563  11.376  0.00  0.00    -0.050 A 
ATOM     20  H   X2L d   1      -8.793 -24.436  10.481  0.00  0.00     0.084 H 
ATOM     21  CAM X2L d   1     -10.310 -21.863  12.087  0.00  0.00     0.068 A 
ATOM     22  H   X2L d   1      -8.395 -22.077  11.100  0.00  0.00     0.087 H 
ATOM     23  CAP X2L d   1     -11.524 -22.503  12.411  0.00  0.00    -0.050 A 
ATOM     24  CAI X2L d   1     -11.742 -23.841  12.038  0.00  0.00    -0.070 A 
ATOM     25  H   X2L d   1     -12.297 -21.958  12.953  0.00  0.00     0.087 H 
ATOM     26  H   X2L d   1     -12.686 -24.322  12.295  0.00  0.00     0.084 H 
BRANCH  21  27
ATOM     27  OAB X2L d   1     -10.026 -20.557  12.420  0.00  0.00    -0.356 OA
BRANCH  27  28
ATOM     28  CAA X2L d   1     -10.672 -19.911  13.588  0.00  0.00     0.010 C 
ATOM     29  H   X2L d   1     -11.753 -19.910  13.449  0.00  0.00     0.066 H 
ATOM     30  H   X2L d   1     -10.422 -20.465  14.493  0.00  0.00     0.066 H 
ATOM     31  H   X2L d   1     -10.315 -18.885  13.678  0.00  0.00     0.066 H 
ENDBRANCH  27  28
ENDBRANCH  21  27
ENDBRANCH  15  17
ENDBRANCH   1  15
BRANCH   4  32
ATOM     32  NAB X2L d   1      -9.780 -30.963   9.306  0.00  0.00    -0.399 N 
ATOM     33  H   X2L d   1      -9.850 -31.962   9.114  0.00  0.00     0.156 HD
ATOM     34  H   X2L d   1      -8.924 -30.459   9.077  0.00  0.00     0.156 HD
ENDBRANCH   4  32
TORSDOF 5
