REMARK  4 active torsions:
REMARK  status: ('A' for Active; 'I' for Inactive)
REMARK    1  A    between atoms: C5_2  and  C19_9 
REMARK    2  A    between atoms: C19_9  and  C21_10 
REMARK    3  A    between atoms: C26_13  and  CAB_17 
REMARK    4  A    between atoms: C24_15  and  CAA_18 
ROOT
ATOM      1  C19 X2M d   1      -2.967   9.875   5.970  0.00  0.00    -0.041 C 
ATOM      2  H   X2M d   1      -3.243   8.956   6.487  0.00  0.00     0.088 H 
ENDROOT
BRANCH   1   3
ATOM      3  C5  X2M d   1      -1.597  10.067   5.717  0.00  0.00     0.047 A 
ATOM      4  C3  X2M d   1      -0.945  11.185   5.179  0.00  0.00     0.257 A 
ATOM      5  O4  X2M d   1      -1.487  12.250   4.835  0.00  0.00    -0.267 OA
ATOM      6  N1  X2M d   1       0.378  10.937   5.084  0.00  0.00    -0.322 N 
ATOM      7  C6  X2M d   1       0.624   9.717   5.561  0.00  0.00     0.046 A 
ATOM      8  H   X2M d   1       1.076  11.579   4.708  0.00  0.00     0.169 HD
ATOM      9  C7  X2M d   1      -0.599   9.127   5.969  0.00  0.00     0.006 A 
ATOM     10  C11 X2M d   1       1.819   8.988   5.667  0.00  0.00    -0.056 A 
ATOM     11  C8  X2M d   1      -0.621   7.815   6.489  0.00  0.00    -0.070 A 
ATOM     12  C9  X2M d   1       0.568   7.105   6.592  0.00  0.00    -0.082 A 
ATOM     13  H   X2M d   1      -1.561   7.364   6.806  0.00  0.00     0.084 H 
ATOM     14  C10 X2M d   1       1.778   7.684   6.187  0.00  0.00    -0.081 A 
ATOM     15  H   X2M d   1       0.560   6.090   6.991  0.00  0.00     0.083 H 
ATOM     16  H   X2M d   1       2.702   7.113   6.277  0.00  0.00     0.083 H 
ATOM     17  H   X2M d   1       2.765   9.428   5.350  0.00  0.00     0.086 H 
ENDBRANCH   1   3
BRANCH   1  18
ATOM     18  C21 X2M d   1      -4.016  10.740   5.628  0.00  0.00     0.039 A 
ATOM     19  C26 X2M d   1      -5.366  10.361   5.829  0.00  0.00    -0.033 A 
ATOM     20  C25 X2M d   1      -6.192  11.360   5.466  0.00  0.00    -0.054 A 
ATOM     21  C24 X2M d   1      -5.368  12.337   5.051  0.00  0.00     0.006 A 
ATOM     22  H   X2M d   1      -7.281  11.373   5.501  0.00  0.00     0.087 H 
ATOM     23  N22 X2M d   1      -4.067  11.988   5.142  0.00  0.00    -0.359 N 
ATOM     24  H   X2M d   1      -3.268  12.569   4.887  0.00  0.00     0.166 HD
BRANCH  19  25
ATOM     25  CAB X2M d   1      -5.839   8.993   6.400  0.00  0.00    -0.049 C 
ATOM     26  H   X2M d   1      -5.489   8.190   5.752  0.00  0.00     0.033 H 
ATOM     27  H   X2M d   1      -5.431   8.858   7.402  0.00  0.00     0.033 H 
ATOM     28  H   X2M d   1      -6.928   8.976   6.445  0.00  0.00     0.033 H 
ENDBRANCH  19  25
BRANCH  21  29
ATOM     29  CAA X2M d   1      -5.848  13.692   4.523  0.00  0.00    -0.037 C 
ATOM     30  H   X2M d   1      -6.474  13.537   3.644  0.00  0.00     0.035 H 
ATOM     31  H   X2M d   1      -6.425  14.198   5.297  0.00  0.00     0.035 H 
ATOM     32  H   X2M d   1      -4.986  14.302   4.254  0.00  0.00     0.035 H 
ENDBRANCH  21  29
ENDBRANCH   1  18
TORSDOF 4
