REMARK  6 active torsions:
REMARK  status: ('A' for Active; 'I' for Inactive)
REMARK    1  A    between atoms: CAT_1  and  CAP_2 
REMARK    2  A    between atoms: CAH_7  and  NAG_8 
REMARK    3  A    between atoms: CAD_12  and  CAA_13 
REMARK    4  A    between atoms: CAO_19  and  CAS_20 
REMARK    5  A    between atoms: CAS_20  and  N9_21 
REMARK    6  A    between atoms: C6_29  and  N6_30 
ROOT
ATOM      1  NAG IC8 d   1      -5.442  -2.021  22.171  0.00  0.00    -0.264 N 
ATOM      2  CAF IC8 d   1      -4.908  -1.850  20.865  0.00  0.00     0.267 A 
ATOM      3  OAB IC8 d   1      -4.048  -2.612  20.464  0.00  0.00    -0.267 OA
ATOM      4  CAE IC8 d   1      -5.328  -0.808  20.048  0.00  0.00     0.067 A 
ATOM      5  CAD IC8 d   1      -4.811  -0.585  18.749  0.00  0.00    -0.044 A 
ATOM      6  CAC IC8 d   1      -5.297   0.485  18.000  0.00  0.00    -0.076 A 
ATOM      7  CAK IC8 d   1      -6.283   1.310  18.513  0.00  0.00    -0.080 A 
ATOM      8  CAL IC8 d   1      -6.801   1.090  19.792  0.00  0.00    -0.054 A 
ATOM      9  CAM IC8 d   1      -6.318   0.030  20.569  0.00  0.00     0.075 A 
ATOM     10  NAN IC8 d   1      -6.821  -0.171  21.802  0.00  0.00    -0.232 NA
ATOM     11  CAO IC8 d   1      -6.441  -1.160  22.609  0.00  0.00     0.133 A 
ATOM     12  H11 IC8 d   1      -4.900   0.672  17.009  0.00  0.00     0.084 H 
ATOM     13  H12 IC8 d   1      -6.657   2.135  17.917  0.00  0.00     0.083 H 
ATOM     14  H13 IC8 d   1      -7.576   1.739  20.182  0.00  0.00     0.087 H 
ENDROOT
BRANCH  11  15
ATOM     15  CAS IC8 d   1      -7.083  -1.308  24.019  0.00  0.00     0.057 C 
ATOM     16  H14 IC8 d   1      -6.361  -1.761  24.714  0.00  0.00     0.076 H 
ATOM     17  H15 IC8 d   1      -7.980  -1.942  23.958  0.00  0.00     0.076 H 
BRANCH  15  18
ATOM     18  N9  IC8 d   1      -7.453   0.043  24.488  0.00  0.00    -0.317 N 
ATOM     19  C8  IC8 d   1      -8.675   0.605  24.388  0.00  0.00     0.069 A 
ATOM     20  N7  IC8 d   1      -8.594   1.848  24.891  0.00  0.00    -0.236 NA
ATOM     21  H16 IC8 d   1      -9.566   0.136  23.974  0.00  0.00     0.143 H 
ATOM     22  C5  IC8 d   1      -7.334   2.030  25.310  0.00  0.00     0.149 A 
ATOM     23  C4  IC8 d   1      -6.604   0.881  25.044  0.00  0.00     0.165 A 
ATOM     24  C6  IC8 d   1      -6.683   3.082  25.912  0.00  0.00     0.155 A 
ATOM     25  N3  IC8 d   1      -5.309   0.803  25.362  0.00  0.00    -0.222 NA
ATOM     26  C2  IC8 d   1      -4.694   1.832  25.933  0.00  0.00     0.091 A 
ATOM     27  N1  IC8 d   1      -5.371   2.954  26.209  0.00  0.00    -0.222 NA
ATOM     28  H17 IC8 d   1      -3.640   1.764  26.177  0.00  0.00     0.146 H 
BRANCH  24  29
ATOM     29  N6  IC8 d   1      -7.359   4.206  26.189  0.00  0.00    -0.382 N 
ATOM     30  H18 IC8 d   1      -6.879   4.998  26.640  0.00  0.00     0.157 HD
ATOM     31  H19 IC8 d   1      -8.359   4.278  25.951  0.00  0.00     0.157 HD
ENDBRANCH  24  29
ENDBRANCH  15  18
ENDBRANCH  11  15
BRANCH   1  32
ATOM     32  CAH IC8 d   1      -5.015  -3.100  22.963  0.00  0.00     0.050 A 
ATOM     33  CAP IC8 d   1      -3.872  -3.051  23.768  0.00  0.00    -0.035 A 
ATOM     34  CAQ IC8 d   1      -3.514  -4.175  24.514  0.00  0.00    -0.075 A 
ATOM     35  CAR IC8 d   1      -4.296  -5.333  24.449  0.00  0.00    -0.082 A 
ATOM     36  H4  IC8 d   1      -2.631  -4.151  25.143  0.00  0.00     0.084 H 
ATOM     37  CAJ IC8 d   1      -5.430  -5.381  23.632  0.00  0.00    -0.081 A 
ATOM     38  H5  IC8 d   1      -4.021  -6.201  25.037  0.00  0.00     0.083 H 
ATOM     39  CAI IC8 d   1      -5.789  -4.266  22.882  0.00  0.00    -0.056 A 
ATOM     40  H6  IC8 d   1      -6.027  -6.284  23.583  0.00  0.00     0.083 H 
ATOM     41  H7  IC8 d   1      -6.661  -4.298  22.239  0.00  0.00     0.087 H 
BRANCH  33  42
ATOM     42  CAT IC8 d   1      -3.001  -1.786  23.878  0.00  0.00    -0.049 C 
ATOM     43  H1  IC8 d   1      -2.161  -1.977  24.562  0.00  0.00     0.033 H 
ATOM     44  H2  IC8 d   1      -3.608  -0.955  24.266  0.00  0.00     0.033 H 
ATOM     45  H3  IC8 d   1      -2.611  -1.522  22.884  0.00  0.00     0.033 H 
ENDBRANCH  33  42
ENDBRANCH   1  32
BRANCH   5  46
ATOM     46  CAA IC8 d   1      -3.719  -1.461  18.098  0.00  0.00    -0.050 C 
ATOM     47  H8  IC8 d   1      -3.494  -1.079  17.091  0.00  0.00     0.033 H 
ATOM     48  H9  IC8 d   1      -4.076  -2.499  18.025  0.00  0.00     0.033 H 
ATOM     49  H10 IC8 d   1      -2.808  -1.429  18.714  0.00  0.00     0.033 H 
ENDBRANCH   5  46
TORSDOF 6
