REMARK  5 active torsions:
REMARK  status: ('A' for Active; 'I' for Inactive)
REMARK    1  A    between atoms: N1_1  and  C22_19 
REMARK    2  A    between atoms: C4_4  and  N5_5 
REMARK    3  A    between atoms: C4_4  and  C11_8 
REMARK       I    between atoms: C11_8  and  N13_10 
REMARK    4  A    between atoms: N13_10  and  C14_11 
REMARK    5  A    between atoms: C14_11  and  C15_12 
ROOT
ATOM      1  N1  X39 d   1      45.157  33.253 111.378  0.00  0.00    -0.365 N 
ATOM      2  C2  X39 d   1      43.822  32.649 111.446  0.00  0.00    -0.001 C 
ATOM      3  C3  X39 d   1      43.627  31.948 112.779  0.00  0.00    -0.010 C 
ATOM      4  C4  X39 d   1      44.757  30.942 113.072  0.00  0.00     0.206 C 
ATOM      5  C9  X39 d   1      46.125  31.598 112.866  0.00  0.00    -0.010 C 
ATOM      6  C10 X39 d   1      46.218  32.262 111.516  0.00  0.00    -0.001 C 
ATOM      7  H1  X39 d   1      43.713  31.917 110.632  0.00  0.00     0.064 H 
ATOM      8  H2  X39 d   1      43.062  33.436 111.336  0.00  0.00     0.064 H 
ATOM      9  H3  X39 d   1      42.668  31.410 112.760  0.00  0.00     0.039 H 
ATOM     10  H4  X39 d   1      43.608  32.703 113.578  0.00  0.00     0.039 H 
ATOM     11  H8  X39 d   1      46.907  30.828 112.941  0.00  0.00     0.039 H 
ATOM     12  H9  X39 d   1      46.281  32.355 113.649  0.00  0.00     0.039 H 
ATOM     13  H10 X39 d   1      47.195  32.758 111.420  0.00  0.00     0.064 H 
ATOM     14  H11 X39 d   1      46.113  31.502 110.728  0.00  0.00     0.064 H 
ENDROOT
BRANCH   4  15
ATOM     15  N5  X39 d   1      44.661  30.516 114.512  0.00  0.00    -0.061 N 
ATOM     16  H5  X39 d   1      45.396  29.857 114.717  0.00  0.00     0.275 HD
ATOM     17  H6  X39 d   1      43.766  30.083 114.675  0.00  0.00     0.275 HD
ATOM     18  H7  X39 d   1      44.758  31.323 115.108  0.00  0.00     0.275 HD
ENDBRANCH   4  15
BRANCH   4  19
ATOM     19  C11 X39 d   1      44.657  29.665 112.212  0.00  0.00     0.254 C 
ATOM     20  O12 X39 d   1      45.636  29.172 111.730  0.00  0.00    -0.271 OA
ATOM     21  N13 X39 d   1      43.452  29.124 112.035  0.00  0.00    -0.355 N 
ATOM     22  H12 X39 d   1      42.660  29.522 112.499  0.00  0.00     0.162 HD
BRANCH  21  23
ATOM     23  C14 X39 d   1      43.272  27.965 111.178  0.00  0.00     0.019 C 
ATOM     24  H13 X39 d   1      42.685  27.208 111.719  0.00  0.00     0.071 H 
ATOM     25  H14 X39 d   1      44.259  27.551 110.924  0.00  0.00     0.071 H 
BRANCH  23  26
ATOM     26  C15 X39 d   1      42.554  28.324 109.911  0.00  0.00    -0.040 A 
ATOM     27  C16 X39 d   1      43.266  28.595 108.743  0.00  0.00    -0.074 A 
ATOM     28  C17 X39 d   1      42.598  28.932 107.581  0.00  0.00    -0.061 A 
ATOM     29  H15 X39 d   1      44.349  28.541 108.746  0.00  0.00     0.084 H 
ATOM     30  C18 X39 d   1      41.217  28.999 107.579  0.00  0.00     0.034 A 
ATOM     31  H16 X39 d   1      43.154  29.143 106.675  0.00  0.00     0.086 H 
ATOM     32 CL1  X39 d   1      40.379  29.417 106.123  0.00  0.00    -0.084 Cl
ATOM     33  C20 X39 d   1      40.496  28.732 108.727  0.00  0.00    -0.061 A 
ATOM     34  C21 X39 d   1      41.159  28.399 109.888  0.00  0.00    -0.074 A 
ATOM     35  H17 X39 d   1      39.413  28.784 108.714  0.00  0.00     0.086 H 
ATOM     36  H18 X39 d   1      40.594  28.194 110.790  0.00  0.00     0.084 H 
ENDBRANCH  23  26
ENDBRANCH  21  23
ENDBRANCH   4  19
BRANCH   1  37
ATOM     37  C22 X39 d   1      45.406  34.612 111.762  0.00  0.00     0.141 A 
ATOM     38  N23 X39 d   1      46.680  34.893 112.108  0.00  0.00    -0.224 NA
ATOM     39  C24 X39 d   1      46.951  36.147 112.469  0.00  0.00     0.091 A 
ATOM     40  N25 X39 d   1      46.112  37.185 112.523  0.00  0.00    -0.223 NA
ATOM     41  H19 X39 d   1      47.977  36.349 112.753  0.00  0.00     0.146 H 
ATOM     42  C26 X39 d   1      44.865  36.890 112.165  0.00  0.00     0.142 A 
ATOM     43  N27 X39 d   1      43.799  37.725 112.115  0.00  0.00    -0.350 N 
ATOM     44  C31 X39 d   1      44.420  35.637 111.775  0.00  0.00     0.057 A 
ATOM     45  C29 X39 d   1      42.719  37.044 111.710  0.00  0.00    -0.020 A 
ATOM     46  H20 X39 d   1      43.816  38.727 112.352  0.00  0.00     0.166 HD
ATOM     47  C30 X39 d   1      43.098  35.767 111.499  0.00  0.00    -0.051 A 
ATOM     48  H21 X39 d   1      41.717  37.448 111.576  0.00  0.00     0.111 H 
ATOM     49  H22 X39 d   1      42.444  34.965 111.160  0.00  0.00     0.087 H 
ENDBRANCH   1  37
TORSDOF 5
