REMARK  8 active torsions:
REMARK  status: ('A' for Active; 'I' for Inactive)
REMARK       I    between atoms: ND3_1  and  C1_2 
REMARK    1  A    between atoms: C1_2  and  O1B_4 
REMARK    2  A    between atoms: O1B_4  and  C15_5 
REMARK    3  A    between atoms: C8_7  and  C9_8 
REMARK    4  A    between atoms: C9_8  and  O9_9 
REMARK    5  A    between atoms: C7_10  and  O7_11 
REMARK    6  A    between atoms: C6_12  and  O6_13 
REMARK    7  A    between atoms: C5_14  and  N5_15 
REMARK       I    between atoms: N5_15  and  C10_16 
REMARK    8  A    between atoms: C10_16  and  C11_18 
ROOT
ATOM      1  C15 NON d   1      20.587 -14.947  -0.163  0.00  0.00     0.164 C 
ATOM      2  O8  NON d   1      21.846 -14.287  -0.354  0.00  0.00    -0.348 OA
ATOM      3  C8  NON d   1      21.924 -13.366  -1.451  0.00  0.00     0.089 C 
ATOM      4  C7  NON d   1      20.753 -12.375  -1.547  0.00  0.00     0.089 C 
ATOM      5  C6  NON d   1      19.397 -12.925  -1.093  0.00  0.00     0.086 C 
ATOM      6  C5  NON d   1      19.551 -13.847   0.111  0.00  0.00     0.087 C 
ATOM      7  H   NON d   1      20.614 -15.630   0.686  0.00  0.00     0.133 H 
ATOM      8  H   NON d   1      21.871 -13.940  -2.376  0.00  0.00     0.090 H 
ATOM      9  H   NON d   1      20.985 -11.558  -0.863  0.00  0.00     0.091 H 
ATOM     10  H   NON d   1      18.964 -13.490  -1.919  0.00  0.00     0.090 H 
ATOM     11  H   NON d   1      19.854 -13.227   0.955  0.00  0.00     0.084 H 
ENDROOT
BRANCH   6  12
ATOM     12  N5  NON d   1      18.293 -14.545   0.352  0.00  0.00    -0.349 N 
ATOM     13  C10 NON d   1      17.680 -14.511   1.537  0.00  0.00     0.214 C 
ATOM     14  O10 NON d   1      18.127 -13.898   2.492  0.00  0.00    -0.274 OA
ATOM     15  H   NON d   1      17.869 -15.076  -0.409  0.00  0.00     0.163 HD
BRANCH  13  16
ATOM     16  C11 NON d   1      16.396 -15.276   1.634  0.00  0.00    -0.003 C 
ATOM     17  H   NON d   1      16.489 -16.043   2.403  0.00  0.00     0.040 H 
ATOM     18  H   NON d   1      15.587 -14.594   1.895  0.00  0.00     0.040 H 
ATOM     19  H   NON d   1      16.181 -15.746   0.674  0.00  0.00     0.040 H 
ENDBRANCH  13  16
ENDBRANCH   6  12
BRANCH   1  20
ATOM     20  O1B NON d   1      20.259 -15.797  -1.286  0.00  0.00    -0.270 OA
BRANCH  20  21
ATOM     21  C1  NON d   1      20.839 -17.143  -1.226  0.00  0.00     0.360 C 
ATOM     22  ND3 NON d   1      20.605 -18.031  -2.217  0.00  0.00    -0.346 N 
ATOM     23  H   NON d   1      21.010 -18.966  -2.170  0.00  0.00     0.161 HD
ATOM     24  H   NON d   1      20.024 -17.766  -3.012  0.00  0.00     0.161 HD
ATOM     25  O1A NON d   1      21.530 -17.417  -0.253  0.00  0.00    -0.239 OA
ENDBRANCH  20  21
ENDBRANCH   1  20
BRANCH   5  26
ATOM     26  O6  NON d   1      18.556 -11.834  -0.716  0.00  0.00    -0.391 OA
ATOM     27  H   NON d   1      18.434 -11.251  -1.468  0.00  0.00     0.210 HD
ENDBRANCH   5  26
BRANCH   4  28
ATOM     28  O7  NON d   1      20.641 -11.953  -2.910  0.00  0.00    -0.390 OA
ATOM     29  H   NON d   1      19.914 -11.332  -2.993  0.00  0.00     0.210 HD
ENDBRANCH   4  28
BRANCH   3  30
ATOM     30  C9  NON d   1      23.237 -12.611  -1.296  0.00  0.00     0.043 C 
ATOM     31  H   NON d   1      23.538 -12.611  -0.248  0.00  0.00     0.078 H 
ATOM     32  H   NON d   1      23.110 -11.582  -1.632  0.00  0.00     0.078 H 
BRANCH  30  33
ATOM     33  O9  NON d   1      24.245 -13.254  -2.086  0.00  0.00    -0.398 OA
ATOM     34  H   NON d   1      25.075 -12.781  -1.991  0.00  0.00     0.209 HD
ENDBRANCH  30  33
ENDBRANCH   3  30
TORSDOF 8
