REMARK WARNING: 32 MAX_TORS EXCEEDED!!!
REMARK  45 active torsions:
REMARK  status: ('A' for Active; 'I' for Inactive)
REMARK    1  A    between atoms: N_1  and  CA_2 
REMARK    2  A    between atoms: CA_2  and  C_3 
REMARK    3  A    between atoms: CA_2  and  CB_5 
REMARK       I    between atoms: C_3  and  N_10 
REMARK    4  A    between atoms: CB_5  and  CG_6 
REMARK    5  A    between atoms: CG_6  and  CD_7 
REMARK    6  A    between atoms: CD_7  and  CE_8 
REMARK    7  A    between atoms: CE_8  and  NZ_9 
REMARK    8  A    between atoms: N_10  and  CA_11 
REMARK    9  A    between atoms: CA_11  and  C_12 
REMARK   10  A    between atoms: CA_11  and  CB_14 
REMARK       I    between atoms: C_12  and  N_18 
REMARK   11  A    between atoms: CB_14  and  CG_15 
REMARK   12  A    between atoms: CG_15  and  CD1_16 
REMARK   13  A    between atoms: CG_15  and  CD2_17 
REMARK   14  A    between atoms: N_18  and  CA_19 
REMARK   15  A    between atoms: CA_19  and  C_20 
REMARK   16  A    between atoms: CA_19  and  CB_22 
REMARK       I    between atoms: C_20  and  N_25 
REMARK   17  A    between atoms: CB_22  and  OG1_23 
REMARK   18  A    between atoms: CB_22  and  CG2_24 
REMARK   19  A    between atoms: CA_26  and  C_27 
REMARK       I    between atoms: C_27  and  N_32 
REMARK   20  A    between atoms: N_32  and  CA_33 
REMARK   21  A    between atoms: CA_33  and  C_34 
REMARK   22  A    between atoms: CA_33  and  CB_36 
REMARK       I    between atoms: C_34  and  N_40 
REMARK   23  A    between atoms: CB_36  and  CG_37 
REMARK   24  A    between atoms: CG_37  and  CD1_38 
REMARK   25  A    between atoms: CG_37  and  CD2_39 
REMARK   26  A    between atoms: N_40  and  CA_41 
REMARK   27  A    between atoms: CA_41  and  C_42 
REMARK   28  A    between atoms: CA_41  and  CB_44 
REMARK       I    between atoms: C_42  and  N_46 
REMARK   29  A    between atoms: CB_44  and  SG_45 
REMARK   30  A    between atoms: N_46  and  CA_47 
REMARK   31  A    between atoms: CA_47  and  C_48 
REMARK   32  A    between atoms: CA_47  and  CB_50 
REMARK       I    between atoms: C_48  and  N_53 
REMARK   33  A    between atoms: CB_50  and  CG1_51 
REMARK   34  A    between atoms: CB_50  and  CG2_52 
REMARK   35  A    between atoms: N_53  and  CA_54 
REMARK   36  A    between atoms: CA_54  and  C_55 
REMARK   37  A    between atoms: CA_54  and  CB_57 
REMARK       I    between atoms: C_55  and  N_60 
REMARK   38  A    between atoms: CB_57  and  OG1_58 
REMARK   39  A    between atoms: CB_57  and  CG2_59 
REMARK   40  A    between atoms: N_60  and  CA_61 
REMARK   41  A    between atoms: CA_61  and  C_62 
REMARK   42  A    between atoms: CA_61  and  CB_64 
REMARK   43  A    between atoms: CB_64  and  CG_65 
REMARK   44  A    between atoms: CG_65  and  CD1_66 
REMARK   45  A    between atoms: CG_65  and  CD2_67 
ROOT
ATOM      1  CA  LEU d   1      35.389  34.812  42.338  0.00  0.00     0.089 C 
ATOM      2  H42 LEU d   1      36.222  34.655  43.039  0.00  0.00     0.087 H 
ENDROOT
BRANCH   1   3
ATOM      3  N   LEU d   1      34.145  34.588  43.077  0.00  0.00    -0.346 N 
ATOM      4  C   PRO d   1      33.886  35.225  44.215  0.00  0.00     0.241 C 
ATOM      5  O   PRO d   1      34.636  36.076  44.696  0.00  0.00    -0.271 OA
ATOM      6  H41 LEU d   1      33.474  33.940  42.717  0.00  0.00     0.163 HD
BRANCH   4   7
ATOM      7  CA  PRO d   1      32.590  34.870  44.940  0.00  0.00     0.091 C 
ATOM      8  N   PRO d   1      31.686  34.037  44.138  0.00  0.00    -0.337 N 
ATOM      9  C   THR d   1      30.859  34.535  43.208  0.00  0.00     0.245 C 
ATOM     10  CD  PRO d   1      31.641  32.653  44.630  0.00  0.00    -0.001 C 
ATOM     11  O   THR d   1      30.755  35.741  42.987  0.00  0.00    -0.271 OA
ATOM     12  CG  PRO d   1      31.926  32.831  46.085  0.00  0.00    -0.048 C 
ATOM     13  H39 PRO d   1      32.408  32.032  44.146  0.00  0.00     0.064 H 
ATOM     14  H40 PRO d   1      30.650  32.204  44.469  0.00  0.00     0.064 H 
ATOM     15  CB  PRO d   1      32.903  33.983  46.153  0.00  0.00    -0.036 C 
ATOM     16  H37 PRO d   1      31.003  33.073  46.633  0.00  0.00     0.035 H 
ATOM     17  H38 PRO d   1      32.374  31.919  46.506  0.00  0.00     0.035 H 
ATOM     18  H35 PRO d   1      32.764  34.548  47.087  0.00  0.00     0.036 H 
ATOM     19  H36 PRO d   1      33.937  33.612  46.099  0.00  0.00     0.036 H 
ATOM     20  H34 PRO d   1      32.084  35.797  45.247  0.00  0.00     0.087 H 
BRANCH   9  21
ATOM     21  CA  THR d   1      30.007  33.531  42.436  0.00  0.00     0.114 C 
ATOM     22  H28 THR d   1      29.929  32.611  43.034  0.00  0.00     0.091 H 
BRANCH  21  23
ATOM     23  N   THR d   1      28.663  34.065  42.255  0.00  0.00    -0.344 N 
ATOM     24  C   LEU d   1      27.854  34.230  43.296  0.00  0.00     0.241 C 
ATOM     25  O   LEU d   1      28.153  33.877  44.439  0.00  0.00    -0.271 OA
ATOM     26  H27 THR d   1      28.347  34.310  41.338  0.00  0.00     0.163 HD
BRANCH  24  27
ATOM     27  CA  LEU d   1      26.544  34.950  43.021  0.00  0.00     0.089 C 
ATOM     28  H17 LEU d   1      26.196  34.696  42.009  0.00  0.00     0.087 H 
BRANCH  27  29
ATOM     29  N   LEU d   1      25.484  34.610  43.974  0.00  0.00    -0.346 N 
ATOM     30  C   LYS d   1      24.912  33.405  44.044  0.00  0.00     0.248 C 
ATOM     31  O   LYS d   1      25.188  32.479  43.280  0.00  0.00    -0.271 OA
ATOM     32  H16 LEU d   1      25.172  35.319  44.606  0.00  0.00     0.163 HD
BRANCH  30  33
ATOM     33  CA  LYS d   1      23.887  33.208  45.165  0.00  0.00     0.176 C 
ATOM     34  H4  LYS d   1      23.579  34.201  45.525  0.00  0.00     0.099 H 
BRANCH  33  35
ATOM     35  N   LYS d   1      22.691  32.498  44.732  0.00  0.00    -0.067 N 
ATOM     36  H1  LYS d   1      22.058  32.400  45.510  0.00  0.00     0.275 HD
ATOM     37  H2  LYS d   1      22.947  31.585  44.391  0.00  0.00     0.275 HD
ATOM     38  H3  LYS d   1      22.240  33.018  43.995  0.00  0.00     0.275 HD
ENDBRANCH  33  35
BRANCH  33  39
ATOM     39  CB  LYS d   1      24.547  32.453  46.314  0.00  0.00    -0.030 C 
ATOM     40  H5  LYS d   1      25.624  32.678  46.300  0.00  0.00     0.036 H 
ATOM     41  H6  LYS d   1      24.395  31.376  46.150  0.00  0.00     0.036 H 
BRANCH  39  42
ATOM     42  CG  LYS d   1      24.010  32.803  47.681  0.00  0.00    -0.061 C 
ATOM     43  H7  LYS d   1      23.023  32.337  47.817  0.00  0.00     0.033 H 
ATOM     44  H8  LYS d   1      23.915  33.895  47.768  0.00  0.00     0.033 H 
BRANCH  42  45
ATOM     45  CD  LYS d   1      24.963  32.291  48.752  0.00  0.00    -0.043 C 
ATOM     46  H9  LYS d   1      25.970  32.685  48.549  0.00  0.00     0.035 H 
ATOM     47  H10 LYS d   1      24.985  31.192  48.711  0.00  0.00     0.035 H 
BRANCH  45  48
ATOM     48  CE  LYS d   1      24.543  32.719  50.143  0.00  0.00     0.080 C 
ATOM     49  H11 LYS d   1      23.626  32.183  50.429  0.00  0.00     0.075 H 
ATOM     50  H12 LYS d   1      24.352  33.802  50.150  0.00  0.00     0.075 H 
BRANCH  48  51
ATOM     51  NZ  LYS d   1      25.631  32.400  51.120  0.00  0.00    -0.079 N 
ATOM     52  H13 LYS d   1      25.347  32.686  52.044  0.00  0.00     0.274 HD
ATOM     53  H14 LYS d   1      26.472  32.891  50.859  0.00  0.00     0.274 HD
ATOM     54  H15 LYS d   1      25.807  31.407  51.115  0.00  0.00     0.274 HD
ENDBRANCH  48  51
ENDBRANCH  45  48
ENDBRANCH  42  45
ENDBRANCH  39  42
ENDBRANCH  33  39
ENDBRANCH  30  33
ENDBRANCH  27  29
BRANCH  27  55
ATOM     55  CB  LEU d   1      26.864  36.437  43.102  0.00  0.00    -0.035 C 
ATOM     56  H18 LEU d   1      27.646  36.635  42.354  0.00  0.00     0.037 H 
ATOM     57  H19 LEU d   1      27.265  36.622  44.109  0.00  0.00     0.037 H 
BRANCH  55  58
ATOM     58  CG  LEU d   1      25.771  37.457  42.873  0.00  0.00    -0.059 C 
ATOM     59  H20 LEU d   1      24.995  37.346  43.645  0.00  0.00     0.038 H 
BRANCH  58  60
ATOM     60  CD1 LEU d   1      26.377  38.847  42.974  0.00  0.00    -0.073 C 
ATOM     61  H21 LEU d   1      25.593  39.601  42.809  0.00  0.00     0.028 H 
ATOM     62  H22 LEU d   1      27.162  38.961  42.212  0.00  0.00     0.028 H 
ATOM     63  H23 LEU d   1      26.814  38.985  43.974  0.00  0.00     0.028 H 
ENDBRANCH  58  60
BRANCH  58  64
ATOM     64  CD2 LEU d   1      25.151  37.217  41.516  0.00  0.00    -0.073 C 
ATOM     65  H24 LEU d   1      24.724  36.204  41.482  0.00  0.00     0.028 H 
ATOM     66  H25 LEU d   1      25.922  37.317  40.738  0.00  0.00     0.028 H 
ATOM     67  H26 LEU d   1      24.355  37.956  41.341  0.00  0.00     0.028 H 
ENDBRANCH  58  64
ENDBRANCH  55  58
ENDBRANCH  27  55
ENDBRANCH  24  27
ENDBRANCH  21  23
BRANCH  21  68
ATOM     68  CB  THR d   1      30.677  33.167  41.100  0.00  0.00     0.060 C 
ATOM     69  H29 THR d   1      30.023  32.471  40.553  0.00  0.00     0.086 H 
BRANCH  68  70
ATOM     70  OG1 THR d   1      31.936  32.529  41.356  0.00  0.00    -0.393 OA
ATOM     71  H30 THR d   1      32.349  32.304  40.531  0.00  0.00     0.210 HD
ENDBRANCH  68  70
BRANCH  68  72
ATOM     72  CG2 THR d   1      30.904  34.400  40.246  0.00  0.00    -0.050 C 
ATOM     73  H31 THR d   1      31.383  34.108  39.300  0.00  0.00     0.031 H 
ATOM     74  H32 THR d   1      31.555  35.104  40.785  0.00  0.00     0.031 H 
ATOM     75  H33 THR d   1      29.938  34.882  40.034  0.00  0.00     0.031 H 
ENDBRANCH  68  72
ENDBRANCH  21  68
ENDBRANCH   9  21
ENDBRANCH   4   7
ENDBRANCH   1   3
BRANCH   1  76
ATOM     76  C   LEU d   1      35.518  36.223  41.760  0.00  0.00     0.241 C 
ATOM     77  O   LEU d   1      34.621  37.060  41.897  0.00  0.00    -0.271 OA
ATOM     78  N   CYS d   1      36.653  36.466  41.108  0.00  0.00    -0.345 N 
ATOM     79  H52 CYS d   1      37.362  35.761  41.105  0.00  0.00     0.163 HD
BRANCH  78  80
ATOM     80  CA  CYS d   1      36.909  37.717  40.396  0.00  0.00     0.097 C 
ATOM     81  H53 CYS d   1      35.942  38.199  40.190  0.00  0.00     0.088 H 
BRANCH  80  82
ATOM     82  C   CYS d   1      37.607  37.449  39.063  0.00  0.00     0.241 C 
ATOM     83  O   CYS d   1      38.798  37.719  38.909  0.00  0.00    -0.271 OA
ATOM     84  N   VAL d   1      36.864  36.907  38.105  0.00  0.00    -0.346 N 
ATOM     85  H57 VAL d   1      35.910  36.672  38.293  0.00  0.00     0.163 HD
BRANCH  84  86
ATOM     86  CA  VAL d   1      37.421  36.650  36.782  0.00  0.00     0.092 C 
ATOM     87  H58 VAL d   1      38.472  36.347  36.900  0.00  0.00     0.088 H 
BRANCH  86  88
ATOM     88  C   VAL d   1      37.370  37.933  35.955  0.00  0.00     0.241 C 
ATOM     89  O   VAL d   1      36.440  38.725  36.093  0.00  0.00    -0.271 OA
ATOM     90  N   THR d   1      38.374  38.144  35.110  0.00  0.00    -0.344 N 
ATOM     91  H66 THR d   1      39.087  37.450  35.011  0.00  0.00     0.163 HD
BRANCH  90  92
ATOM     92  CA  THR d   1      38.455  39.374  34.323  0.00  0.00     0.113 C 
ATOM     93  H67 THR d   1      37.434  39.778  34.254  0.00  0.00     0.091 H 
BRANCH  92  94
ATOM     94  C   THR d   1      38.945  39.138  32.894  0.00  0.00     0.243 C 
ATOM     95  O   THR d   1      39.851  38.335  32.659  0.00  0.00    -0.271 OA
ATOM     96  N   LEU d   1      38.324  39.844  31.948  0.00  0.00    -0.345 N 
ATOM     97  H73 LEU d   1      37.616  40.491  32.230  0.00  0.00     0.163 HD
BRANCH  96  98
ATOM     98  CA  LEU d   1      38.623  39.723  30.518  0.00  0.00     0.096 C 
ATOM     99  H74 LEU d   1      38.423  38.681  30.229  0.00  0.00     0.089 H 
BRANCH  98 100
ATOM    100  C   LEU d   1      40.082  40.031  30.149  0.00  0.00     0.196 C 
ATOM    101  O   LEU d   1      40.481  39.877  28.992  0.00  0.00    -0.646 OA
ATOM    102  OXT LEU d   1      40.898  40.451  30.971  0.00  0.00    -0.646 OA
ENDBRANCH  98 100
BRANCH  98 103
ATOM    103  CB  LEU d   1      37.688  40.636  29.709  0.00  0.00    -0.034 C 
ATOM    104  H75 LEU d   1      38.280  41.029  28.869  0.00  0.00     0.037 H 
ATOM    105  H76 LEU d   1      37.402  41.464  30.375  0.00  0.00     0.037 H 
BRANCH 103 106
ATOM    106  CG  LEU d   1      36.386  40.083  29.110  0.00  0.00    -0.059 C 
ATOM    107  H77 LEU d   1      36.568  39.913  28.039  0.00  0.00     0.038 H 
BRANCH 106 108
ATOM    108  CD1 LEU d   1      35.967  38.749  29.711  0.00  0.00    -0.073 C 
ATOM    109  H78 LEU d   1      35.032  38.412  29.240  0.00  0.00     0.028 H 
ATOM    110  H79 LEU d   1      35.810  38.868  30.793  0.00  0.00     0.028 H 
ATOM    111  H80 LEU d   1      36.756  38.003  29.535  0.00  0.00     0.028 H 
ENDBRANCH 106 108
BRANCH 106 112
ATOM    112  CD2 LEU d   1      35.264  41.112  29.232  0.00  0.00    -0.073 C 
ATOM    113  H81 LEU d   1      35.591  42.065  28.791  0.00  0.00     0.028 H 
ATOM    114  H82 LEU d   1      35.020  41.264  30.294  0.00  0.00     0.028 H 
ATOM    115  H83 LEU d   1      34.373  40.748  28.699  0.00  0.00     0.028 H 
ENDBRANCH 106 112
ENDBRANCH 103 106
ENDBRANCH  98 103
ENDBRANCH  96  98
ENDBRANCH  92  94
BRANCH  92 116
ATOM    116  CB  THR d   1      39.334  40.445  35.028  0.00  0.00     0.060 C 
ATOM    117  H68 THR d   1      38.844  40.740  35.968  0.00  0.00     0.086 H 
BRANCH 116 118
ATOM    118  OG1 THR d   1      39.466  41.597  34.187  0.00  0.00    -0.393 OA
ATOM    119  H69 THR d   1      39.875  41.344  33.368  0.00  0.00     0.210 HD
ENDBRANCH 116 118
BRANCH 116 120
ATOM    120  CG2 THR d   1      40.714  39.898  35.346  0.00  0.00    -0.050 C 
ATOM    121  H70 THR d   1      41.311  40.676  35.843  0.00  0.00     0.031 H 
ATOM    122  H71 THR d   1      41.212  39.593  34.413  0.00  0.00     0.031 H 
ATOM    123  H72 THR d   1      40.619  39.028  36.012  0.00  0.00     0.031 H 
ENDBRANCH 116 120
ENDBRANCH  92 116
ENDBRANCH  90  92
ENDBRANCH  86  88
BRANCH  86 124
ATOM    124  CB  VAL d   1      36.667  35.512  36.052  0.00  0.00    -0.033 C 
ATOM    125  H59 VAL d   1      37.269  35.197  35.187  0.00  0.00     0.042 H 
BRANCH 124 126
ATOM    126  CG1 VAL d   1      36.492  34.310  36.980  0.00  0.00    -0.071 C 
ATOM    127  H60 VAL d   1      35.955  33.511  36.448  0.00  0.00     0.028 H 
ATOM    128  H61 VAL d   1      35.915  34.612  37.866  0.00  0.00     0.028 H 
ATOM    129  H62 VAL d   1      37.480  33.942  37.294  0.00  0.00     0.028 H 
ENDBRANCH 124 126
BRANCH 124 130
ATOM    130  CG2 VAL d   1      35.320  35.997  35.543  0.00  0.00    -0.071 C 
ATOM    131  H63 VAL d   1      35.469  36.861  34.878  0.00  0.00     0.028 H 
ATOM    132  H64 VAL d   1      34.691  36.294  36.395  0.00  0.00     0.028 H 
ATOM    133  H65 VAL d   1      34.825  35.187  34.987  0.00  0.00     0.028 H 
ENDBRANCH 124 130
ENDBRANCH  86 124
ENDBRANCH  84  86
ENDBRANCH  80  82
BRANCH  80 134
ATOM    134  CB  CYS d   1      37.752  38.673  41.251  0.00  0.00     0.001 C 
ATOM    135  H54 CYS d   1      38.242  39.391  40.577  0.00  0.00     0.052 H 
ATOM    136  H55 CYS d   1      38.517  38.079  41.772  0.00  0.00     0.052 H 
BRANCH 134 137
ATOM    137  SG  CYS d   1      36.824  39.613  42.497  0.00  0.00    -0.180 SA
ATOM    138  H56 CYS d   1      37.457  40.210  43.006  0.00  0.00     0.101 HD
ENDBRANCH 134 137
ENDBRANCH  80 134
ENDBRANCH  78  80
ENDBRANCH   1  76
BRANCH   1 139
ATOM    139  CB  LEU d   1      35.523  33.807  41.187  0.00  0.00    -0.035 C 
ATOM    140  H43 LEU d   1      36.483  34.016  40.692  0.00  0.00     0.037 H 
ATOM    141  H44 LEU d   1      34.698  34.011  40.488  0.00  0.00     0.037 H 
BRANCH 139 142
ATOM    142  CG  LEU d   1      35.493  32.302  41.481  0.00  0.00    -0.059 C 
ATOM    143  H45 LEU d   1      34.458  32.016  41.721  0.00  0.00     0.038 H 
BRANCH 142 144
ATOM    144  CD1 LEU d   1      35.928  31.553  40.236  0.00  0.00    -0.073 C 
ATOM    145  H46 LEU d   1      35.911  30.471  40.434  0.00  0.00     0.028 H 
ATOM    146  H47 LEU d   1      36.948  31.859  39.962  0.00  0.00     0.028 H 
ATOM    147  H48 LEU d   1      35.240  31.785  39.409  0.00  0.00     0.028 H 
ENDBRANCH 142 144
BRANCH 142 148
ATOM    148  CD2 LEU d   1      36.373  31.931  42.673  0.00  0.00    -0.073 C 
ATOM    149  H49 LEU d   1      36.039  32.486  43.562  0.00  0.00     0.028 H 
ATOM    150  H50 LEU d   1      37.419  32.190  42.451  0.00  0.00     0.028 H 
ATOM    151  H51 LEU d   1      36.295  30.851  42.864  0.00  0.00     0.028 H 
ENDBRANCH 142 148
ENDBRANCH 139 142
ENDBRANCH   1 139
TORSDOF 45
