REMARK WARNING: 32 MAX_TORS EXCEEDED!!!
REMARK  40 active torsions:
REMARK  status: ('A' for Active; 'I' for Inactive)
REMARK    1  A    between atoms: N_1  and  CA_2 
REMARK    2  A    between atoms: CA_2  and  C_3 
REMARK    3  A    between atoms: CA_2  and  CB_5 
REMARK       I    between atoms: C_3  and  N_9 
REMARK    4  A    between atoms: CB_5  and  CG_6 
REMARK       I    between atoms: CG_6  and  ND2_8 
REMARK    5  A    between atoms: N_9  and  CA_10 
REMARK    6  A    between atoms: CA_10  and  C_11 
REMARK    7  A    between atoms: CA_10  and  CB_13 
REMARK       I    between atoms: C_11  and  N_17 
REMARK    8  A    between atoms: CB_13  and  CG_14 
REMARK    9  A    between atoms: CG_14  and  CD1_15 
REMARK   10  A    between atoms: CG_14  and  CD2_16 
REMARK   11  A    between atoms: N_17  and  CA_18 
REMARK   12  A    between atoms: CA_18  and  C_19 
REMARK   13  A    between atoms: CA_18  and  CB_21 
REMARK       I    between atoms: C_19  and  N_24 
REMARK   14  A    between atoms: CB_21  and  CG1_22 
REMARK   15  A    between atoms: CB_21  and  CG2_23 
REMARK   16  A    between atoms: CA_25  and  C_26 
REMARK       I    between atoms: C_26  and  N_31 
REMARK   17  A    between atoms: N_31  and  CA_32 
REMARK   18  A    between atoms: CA_32  and  C_33 
REMARK   19  A    between atoms: CA_32  and  CB_35 
REMARK       I    between atoms: C_33  and  N_39 
REMARK   20  A    between atoms: CB_35  and  CG_36 
REMARK   21  A    between atoms: CG_36  and  SD_37 
REMARK   22  A    between atoms: SD_37  and  CE_38 
REMARK   23  A    between atoms: N_39  and  CA_40 
REMARK   24  A    between atoms: CA_40  and  C_41 
REMARK   25  A    between atoms: CA_40  and  CB_43 
REMARK       I    between atoms: C_41  and  N_46 
REMARK   26  A    between atoms: CB_43  and  CG1_44 
REMARK   27  A    between atoms: CB_43  and  CG2_45 
REMARK   28  A    between atoms: N_46  and  CA_47 
REMARK   29  A    between atoms: CA_47  and  C_48 
REMARK   30  A    between atoms: CA_47  and  CB_50 
REMARK       I    between atoms: C_48  and  N_51 
REMARK   31  A    between atoms: N_51  and  CA_52 
REMARK   32  A    between atoms: CA_52  and  C_53 
REMARK   33  A    between atoms: CA_52  and  CB_55 
REMARK       I    between atoms: C_53  and  N_58 
REMARK   34  A    between atoms: CB_55  and  OG1_56 
REMARK   35  A    between atoms: CB_55  and  CG2_57 
REMARK   36  A    between atoms: N_58  and  CA_59 
REMARK   37  A    between atoms: CA_59  and  C_60 
REMARK   38  A    between atoms: CA_59  and  CB_62 
REMARK   39  A    between atoms: CB_62  and  CG1_63 
REMARK   40  A    between atoms: CB_62  and  CG2_64 
ROOT
ATOM      1  CA  MET d   1      34.677  37.536  40.886  0.00  0.00     0.090 C 
ATOM      2  H37 MET d   1      34.836  38.502  41.387  0.00  0.00     0.087 H 
ENDROOT
BRANCH   1   3
ATOM      3  N   MET d   1      33.570  36.853  41.539  0.00  0.00    -0.346 N 
ATOM      4  C   PRO d   1      33.081  37.269  42.700  0.00  0.00     0.241 C 
ATOM      5  O   PRO d   1      33.504  38.255  43.296  0.00  0.00    -0.271 OA
ATOM      6  H36 MET d   1      33.167  36.049  41.101  0.00  0.00     0.163 HD
BRANCH   4   7
ATOM      7  CA  PRO d   1      31.931  36.463  43.305  0.00  0.00     0.091 C 
ATOM      8  N   PRO d   1      31.071  35.769  42.331  0.00  0.00    -0.337 N 
ATOM      9  C   VAL d   1      30.236  36.433  41.504  0.00  0.00     0.243 C 
ATOM     10  CD  PRO d   1      31.179  34.303  42.444  0.00  0.00    -0.001 C 
ATOM     11  O   VAL d   1      30.205  37.675  41.445  0.00  0.00    -0.271 OA
ATOM     12  CG  PRO d   1      31.657  34.112  43.840  0.00  0.00    -0.048 C 
ATOM     13  H34 PRO d   1      31.903  33.902  41.719  0.00  0.00     0.064 H 
ATOM     14  H35 PRO d   1      30.202  33.821  42.291  0.00  0.00     0.064 H 
ATOM     15  CB  PRO d   1      32.487  35.323  44.162  0.00  0.00    -0.036 C 
ATOM     16  H32 PRO d   1      30.803  34.039  44.530  0.00  0.00     0.035 H 
ATOM     17  H33 PRO d   1      32.267  33.200  43.914  0.00  0.00     0.035 H 
ATOM     18  H30 PRO d   1      32.400  35.572  45.230  0.00  0.00     0.036 H 
ATOM     19  H31 PRO d   1      33.542  35.139  43.913  0.00  0.00     0.036 H 
ATOM     20  H29 PRO d   1      31.319  37.143  43.916  0.00  0.00     0.087 H 
BRANCH   9  21
ATOM     21  CA  VAL d   1      29.280  35.576  40.638  0.00  0.00     0.092 C 
ATOM     22  H21 VAL d   1      29.266  34.556  41.050  0.00  0.00     0.088 H 
BRANCH  21  23
ATOM     23  N   VAL d   1      27.929  36.119  40.719  0.00  0.00    -0.346 N 
ATOM     24  C   LEU d   1      27.280  36.208  41.881  0.00  0.00     0.241 C 
ATOM     25  O   LEU d   1      27.699  35.712  42.926  0.00  0.00    -0.271 OA
ATOM     26  H20 VAL d   1      27.478  36.432  39.883  0.00  0.00     0.163 HD
BRANCH  24  27
ATOM     27  CA  LEU d   1      25.979  36.994  41.874  0.00  0.00     0.089 C 
ATOM     28  H10 LEU d   1      25.462  36.822  40.918  0.00  0.00     0.087 H 
BRANCH  27  29
ATOM     29  N   LEU d   1      25.073  36.627  42.962  0.00  0.00    -0.346 N 
ATOM     30  C   ASN d   1      24.382  35.485  43.008  0.00  0.00     0.249 C 
ATOM     31  O   ASN d   1      24.468  34.598  42.162  0.00  0.00    -0.271 OA
ATOM     32  H9  LEU d   1      24.964  37.272  43.719  0.00  0.00     0.163 HD
BRANCH  30  33
ATOM     33  CA  ASN d   1      23.452  35.320  44.205  0.00  0.00     0.183 C 
ATOM     34  H4  ASN d   1      23.639  36.150  44.902  0.00  0.00     0.099 H 
BRANCH  33  35
ATOM     35  N   ASN d   1      22.049  35.372  43.801  0.00  0.00    -0.066 N 
ATOM     36  H1  ASN d   1      21.461  35.260  44.612  0.00  0.00     0.275 HD
ATOM     37  H2  ASN d   1      21.860  34.630  43.145  0.00  0.00     0.275 HD
ATOM     38  H3  ASN d   1      21.857  36.261  43.367  0.00  0.00     0.275 HD
ENDBRANCH  33  35
BRANCH  33  39
ATOM     39  CB  ASN d   1      23.750  34.006  44.930  0.00  0.00     0.044 C 
ATOM     40  H5  ASN d   1      23.863  33.209  44.180  0.00  0.00     0.051 H 
ATOM     41  H6  ASN d   1      22.903  33.770  45.591  0.00  0.00     0.051 H 
BRANCH  39  42
ATOM     42  CG  ASN d   1      25.027  34.067  45.774  0.00  0.00     0.217 C 
ATOM     43  OD1 ASN d   1      25.036  33.651  46.931  0.00  0.00    -0.274 OA
ATOM     44  ND2 ASN d   1      26.106  34.565  45.192  0.00  0.00    -0.370 N 
ATOM     45  H7  ASN d   1      26.965  34.627  45.700  0.00  0.00     0.159 HD
ATOM     46  H8  ASN d   1      26.062  34.880  44.244  0.00  0.00     0.159 HD
ENDBRANCH  39  42
ENDBRANCH  33  39
ENDBRANCH  30  33
ENDBRANCH  27  29
BRANCH  27  47
ATOM     47  CB  LEU d   1      26.357  38.463  41.998  0.00  0.00    -0.035 C 
ATOM     48  H11 LEU d   1      27.138  38.663  41.250  0.00  0.00     0.037 H 
ATOM     49  H12 LEU d   1      26.769  38.609  43.007  0.00  0.00     0.037 H 
BRANCH  47  50
ATOM     50  CG  LEU d   1      25.268  39.506  41.801  0.00  0.00    -0.059 C 
ATOM     51  H13 LEU d   1      24.338  39.158  42.275  0.00  0.00     0.038 H 
BRANCH  50  52
ATOM     52  CD1 LEU d   1      25.722  40.784  42.475  0.00  0.00    -0.073 C 
ATOM     53  H14 LEU d   1      24.952  41.559  42.348  0.00  0.00     0.028 H 
ATOM     54  H15 LEU d   1      26.663  41.125  42.019  0.00  0.00     0.028 H 
ATOM     55  H16 LEU d   1      25.881  40.597  43.547  0.00  0.00     0.028 H 
ENDBRANCH  50  52
BRANCH  50  56
ATOM     56  CD2 LEU d   1      25.008  39.723  40.320  0.00  0.00    -0.073 C 
ATOM     57  H17 LEU d   1      24.681  38.778  39.863  0.00  0.00     0.028 H 
ATOM     58  H18 LEU d   1      25.932  40.066  39.832  0.00  0.00     0.028 H 
ATOM     59  H19 LEU d   1      24.223  40.483  40.193  0.00  0.00     0.028 H 
ENDBRANCH  50  56
ENDBRANCH  47  50
ENDBRANCH  27  47
ENDBRANCH  24  27
ENDBRANCH  21  23
BRANCH  21  60
ATOM     60  CB  VAL d   1      29.760  35.486  39.177  0.00  0.00    -0.033 C 
ATOM     61  H22 VAL d   1      28.933  35.086  38.572  0.00  0.00     0.042 H 
BRANCH  60  62
ATOM     62  CG1 VAL d   1      30.115  36.871  38.630  0.00  0.00    -0.071 C 
ATOM     63  H23 VAL d   1      30.454  36.778  37.588  0.00  0.00     0.028 H 
ATOM     64  H24 VAL d   1      30.919  37.311  39.239  0.00  0.00     0.028 H 
ATOM     65  H25 VAL d   1      29.228  37.520  38.670  0.00  0.00     0.028 H 
ENDBRANCH  60  62
BRANCH  60  66
ATOM     66  CG2 VAL d   1      30.945  34.517  39.056  0.00  0.00    -0.071 C 
ATOM     67  H26 VAL d   1      30.657  33.534  39.457  0.00  0.00     0.028 H 
ATOM     68  H27 VAL d   1      31.799  34.910  39.627  0.00  0.00     0.028 H 
ATOM     69  H28 VAL d   1      31.227  34.413  37.998  0.00  0.00     0.028 H 
ENDBRANCH  60  66
ENDBRANCH  21  60
ENDBRANCH   9  21
ENDBRANCH   4   7
ENDBRANCH   1   3
BRANCH   1  70
ATOM     70  C   MET d   1      34.360  37.790  39.424  0.00  0.00     0.241 C 
ATOM     71  O   MET d   1      33.871  36.904  38.738  0.00  0.00    -0.271 OA
ATOM     72  N   VAL d   1      34.657  38.998  38.952  0.00  0.00    -0.346 N 
ATOM     73  H45 VAL d   1      35.082  39.662  39.568  0.00  0.00     0.163 HD
BRANCH  72  74
ATOM     74  CA  VAL d   1      34.389  39.395  37.573  0.00  0.00     0.092 C 
ATOM     75  H46 VAL d   1      34.038  38.510  37.022  0.00  0.00     0.088 H 
BRANCH  74  76
ATOM     76  C   VAL d   1      35.657  39.909  36.899  0.00  0.00     0.241 C 
ATOM     77  O   VAL d   1      36.069  41.043  37.122  0.00  0.00    -0.271 OA
ATOM     78  N   ALA d   1      36.278  39.066  36.081  0.00  0.00    -0.346 N 
ATOM     79  H54 ALA d   1      35.887  38.160  35.919  0.00  0.00     0.163 HD
BRANCH  78  80
ATOM     80  CA  ALA d   1      37.520  39.440  35.415  0.00  0.00     0.086 C 
ATOM     81  H55 ALA d   1      38.157  39.942  36.158  0.00  0.00     0.086 H 
BRANCH  80  82
ATOM     82  C   ALA d   1      37.281  40.420  34.274  0.00  0.00     0.240 C 
ATOM     83  O   ALA d   1      36.220  40.415  33.644  0.00  0.00    -0.271 OA
ATOM     84  N   THR d   1      38.294  41.249  34.023  0.00  0.00    -0.344 N 
ATOM     85  H59 THR d   1      39.133  41.136  34.555  0.00  0.00     0.163 HD
BRANCH  84  86
ATOM     86  CA  THR d   1      38.260  42.314  33.020  0.00  0.00     0.113 C 
ATOM     87  H60 THR d   1      37.236  42.714  32.984  0.00  0.00     0.091 H 
BRANCH  86  88
ATOM     88  C   THR d   1      38.608  41.790  31.619  0.00  0.00     0.243 C 
ATOM     89  O   THR d   1      39.352  40.808  31.479  0.00  0.00    -0.271 OA
ATOM     90  N   VAL d   1      38.049  42.427  30.589  0.00  0.00    -0.344 N 
ATOM     91  H66 VAL d   1      37.463  43.218  30.764  0.00  0.00     0.163 HD
BRANCH  90  92
ATOM     92  CA  VAL d   1      38.274  41.995  29.209  0.00  0.00     0.099 C 
ATOM     93  H67 VAL d   1      38.249  40.895  29.199  0.00  0.00     0.090 H 
BRANCH  92  94
ATOM     94  C   VAL d   1      39.628  42.446  28.691  0.00  0.00     0.197 C 
ATOM     95  O   VAL d   1      40.336  43.202  29.348  0.00  0.00    -0.646 OA
ATOM     96  OXT VAL d   1      40.035  42.063  27.601  0.00  0.00    -0.646 OA
ENDBRANCH  92  94
BRANCH  92  97
ATOM     97  CB  VAL d   1      37.181  42.511  28.235  0.00  0.00    -0.032 C 
ATOM     98  H68 VAL d   1      37.358  42.060  27.247  0.00  0.00     0.042 H 
BRANCH  97  99
ATOM     99  CG1 VAL d   1      35.798  42.085  28.707  0.00  0.00    -0.071 C 
ATOM    100  H69 VAL d   1      35.039  42.460  28.004  0.00  0.00     0.028 H 
ATOM    101  H70 VAL d   1      35.608  42.500  29.708  0.00  0.00     0.028 H 
ATOM    102  H71 VAL d   1      35.747  40.987  28.750  0.00  0.00     0.028 H 
ENDBRANCH  97  99
BRANCH  97 103
ATOM    103  CG2 VAL d   1      37.274  44.020  28.089  0.00  0.00    -0.071 C 
ATOM    104  H72 VAL d   1      38.283  44.294  27.747  0.00  0.00     0.028 H 
ATOM    105  H73 VAL d   1      37.074  44.495  29.061  0.00  0.00     0.028 H 
ATOM    106  H74 VAL d   1      36.532  44.364  27.353  0.00  0.00     0.028 H 
ENDBRANCH  97 103
ENDBRANCH  92  97
ENDBRANCH  90  92
ENDBRANCH  86  88
BRANCH  86 107
ATOM    107  CB  THR d   1      39.220  43.474  33.440  0.00  0.00     0.060 C 
ATOM    108  H61 THR d   1      39.726  43.185  34.373  0.00  0.00     0.086 H 
BRANCH 107 109
ATOM    109  OG1 THR d   1      38.482  44.687  33.672  0.00  0.00    -0.393 OA
ATOM    110  H62 THR d   1      38.028  44.937  32.876  0.00  0.00     0.210 HD
ENDBRANCH 107 109
BRANCH 107 111
ATOM    111  CG2 THR d   1      40.264  43.717  32.380  0.00  0.00    -0.050 C 
ATOM    112  H63 THR d   1      40.926  44.536  32.698  0.00  0.00     0.031 H 
ATOM    113  H64 THR d   1      39.771  43.990  31.435  0.00  0.00     0.031 H 
ATOM    114  H65 THR d   1      40.857  42.802  32.233  0.00  0.00     0.031 H 
ENDBRANCH 107 111
ENDBRANCH  86 107
ENDBRANCH  84  86
ENDBRANCH  80  82
BRANCH  80 115
ATOM    115  CB  ALA d   1      38.264  38.212  34.918  0.00  0.00    -0.049 C 
ATOM    116  H56 ALA d   1      39.195  38.523  34.421  0.00  0.00     0.030 H 
ATOM    117  H57 ALA d   1      37.632  37.665  34.203  0.00  0.00     0.030 H 
ATOM    118  H58 ALA d   1      38.504  37.559  35.770  0.00  0.00     0.030 H 
ENDBRANCH  80 115
ENDBRANCH  78  80
ENDBRANCH  74  76
BRANCH  74 119
ATOM    119  CB  VAL d   1      33.286  40.473  37.516  0.00  0.00    -0.033 C 
ATOM    120  H47 VAL d   1      33.540  41.270  38.230  0.00  0.00     0.042 H 
BRANCH 119 121
ATOM    121  CG1 VAL d   1      33.195  41.081  36.129  0.00  0.00    -0.071 C 
ATOM    122  H48 VAL d   1      32.403  41.845  36.115  0.00  0.00     0.028 H 
ATOM    123  H49 VAL d   1      32.958  40.294  35.398  0.00  0.00     0.028 H 
ATOM    124  H50 VAL d   1      34.157  41.546  35.868  0.00  0.00     0.028 H 
ENDBRANCH 119 121
BRANCH 119 125
ATOM    125  CG2 VAL d   1      31.954  39.875  37.914  0.00  0.00    -0.071 C 
ATOM    126  H51 VAL d   1      32.034  39.438  38.920  0.00  0.00     0.028 H 
ATOM    127  H52 VAL d   1      31.675  39.091  37.195  0.00  0.00     0.028 H 
ATOM    128  H53 VAL d   1      31.185  40.661  37.916  0.00  0.00     0.028 H 
ENDBRANCH 119 125
ENDBRANCH  74 119
ENDBRANCH  72  74
ENDBRANCH   1  70
BRANCH   1 129
ATOM    129  CB  MET d   1      35.963  36.709  40.993  0.00  0.00    -0.030 C 
ATOM    130  H38 MET d   1      35.684  35.645  40.995  0.00  0.00     0.037 H 
ATOM    131  H39 MET d   1      36.452  36.962  41.945  0.00  0.00     0.037 H 
BRANCH 129 132
ATOM    132  CG  MET d   1      36.988  36.933  39.854  0.00  0.00    -0.021 C 
ATOM    133  H40 MET d   1      36.441  36.929  38.900  0.00  0.00     0.049 H 
ATOM    134  H41 MET d   1      37.702  36.096  39.871  0.00  0.00     0.049 H 
BRANCH 132 135
ATOM    135  SD  MET d   1      37.928  38.466  39.949  0.00  0.00    -0.173 SA
BRANCH 135 136
ATOM    136  CE  MET d   1      38.064  38.717  41.700  0.00  0.00    -0.035 C 
ATOM    137  H42 MET d   1      38.629  39.641  41.895  0.00  0.00     0.041 H 
ATOM    138  H43 MET d   1      38.589  37.863  42.153  0.00  0.00     0.041 H 
ATOM    139  H44 MET d   1      37.058  38.803  42.137  0.00  0.00     0.041 H 
ENDBRANCH 135 136
ENDBRANCH 132 135
ENDBRANCH 129 132
ENDBRANCH   1 129
TORSDOF 40
