REMARK WARNING: 32 MAX_TORS EXCEEDED!!!
REMARK  43 active torsions:
REMARK  status: ('A' for Active; 'I' for Inactive)
REMARK    1  A    between atoms: N_1  and  CA_2 
REMARK    2  A    between atoms: CA_2  and  C_3 
REMARK    3  A    between atoms: CA_2  and  CB_5 
REMARK       I    between atoms: C_3  and  N_6 
REMARK    4  A    between atoms: N_6  and  CA_7 
REMARK    5  A    between atoms: CA_7  and  C_8 
REMARK    6  A    between atoms: CA_7  and  CB_10 
REMARK       I    between atoms: C_8  and  N_14 
REMARK    7  A    between atoms: CB_10  and  CG_11 
REMARK    8  A    between atoms: CG_11  and  SD_12 
REMARK    9  A    between atoms: SD_12  and  CE_13 
REMARK   10  A    between atoms: N_14  and  CA_15 
REMARK   11  A    between atoms: CA_15  and  C_16 
REMARK   12  A    between atoms: CA_15  and  CB_18 
REMARK       I    between atoms: C_16  and  N_22 
REMARK   13  A    between atoms: CB_18  and  CG_19 
REMARK   14  A    between atoms: N_22  and  CA_23 
REMARK   15  A    between atoms: CA_23  and  C_24 
REMARK   16  A    between atoms: CA_23  and  CB_26 
REMARK       I    between atoms: C_24  and  N_28 
REMARK   17  A    between atoms: CB_26  and  OG_27 
REMARK   18  A    between atoms: N_28  and  CA_29 
REMARK   19  A    between atoms: CA_29  and  C_30 
REMARK   20  A    between atoms: CA_29  and  CB_32 
REMARK       I    between atoms: C_30  and  N_36 
REMARK   21  A    between atoms: CB_32  and  CG_33 
REMARK       I    between atoms: CG_33  and  ND2_35 
REMARK   22  A    between atoms: N_36  and  CA_37 
REMARK   23  A    between atoms: CA_37  and  C_38 
REMARK   24  A    between atoms: CA_37  and  CB_40 
REMARK       I    between atoms: C_38  and  N_43 
REMARK   25  A    between atoms: CB_40  and  OG1_41 
REMARK   26  A    between atoms: CB_40  and  CG2_42 
REMARK   27  A    between atoms: N_43  and  CA_44 
REMARK   28  A    between atoms: CA_44  and  C_45 
REMARK   29  A    between atoms: CA_44  and  CB_47 
REMARK       I    between atoms: C_45  and  N_51 
REMARK   30  A    between atoms: CB_47  and  CG_48 
REMARK   31  A    between atoms: CG_48  and  CD1_49 
REMARK   32  A    between atoms: CG_48  and  CD2_50 
REMARK   33  A    between atoms: N_51  and  CA_52 
REMARK   34  A    between atoms: CA_52  and  C_53 
REMARK   35  A    between atoms: CA_52  and  CB_55 
REMARK       I    between atoms: C_53  and  N_60 
REMARK   36  A    between atoms: CB_55  and  CG_56 
REMARK   37  A    between atoms: CG_56  and  CD_57 
REMARK   38  A    between atoms: N_60  and  CA_61 
REMARK   39  A    between atoms: CA_61  and  C_62 
REMARK   40  A    between atoms: CA_61  and  CB_64 
REMARK   41  A    between atoms: CB_64  and  CG_65 
REMARK   42  A    between atoms: CG_65  and  CD1_66 
REMARK   43  A    between atoms: CG_65  and  CD2_67 
ROOT
ATOM      1  C   ASN d   1      -4.748   3.950  23.098  0.00  0.00     0.241 C 
ATOM      2  O   ASN d   1      -3.901   3.628  22.261  0.00  0.00    -0.271 OA
ATOM      3  N   THR d   1      -5.760   3.162  23.453  0.00  0.00    -0.344 N 
ATOM      4  H   THR d   1      -6.292   3.396  24.291  0.00  0.00     0.163 HD
ENDROOT
BRANCH   3   5
ATOM      5  CA  THR d   1      -6.138   1.977  22.691  0.00  0.00     0.113 C 
ATOM      6  H   THR d   1      -5.294   1.287  22.680  0.00  0.00     0.091 H 
BRANCH   5   7
ATOM      7  C   THR d   1      -6.520   2.401  21.274  0.00  0.00     0.243 C 
ATOM      8  O   THR d   1      -7.344   3.297  21.093  0.00  0.00    -0.271 OA
ATOM      9  N   LEU d   1      -5.936   1.774  20.263  0.00  0.00    -0.346 N 
ATOM     10  H   LEU d   1      -5.299   0.996  20.435  0.00  0.00     0.163 HD
BRANCH   9  11
ATOM     11  CA  LEU d   1      -6.217   2.211  18.905  0.00  0.00     0.089 C 
ATOM     12  H   LEU d   1      -7.172   2.736  18.931  0.00  0.00     0.087 H 
BRANCH  11  13
ATOM     13  C   LEU d   1      -6.384   1.053  17.930  0.00  0.00     0.241 C 
ATOM     14  O   LEU d   1      -5.407   0.424  17.528  0.00  0.00    -0.271 OA
ATOM     15  N   GLU d   1      -7.625   0.791  17.533  0.00  0.00    -0.346 N 
ATOM     16  H   GLU d   1      -8.381   1.420  17.804  0.00  0.00     0.163 HD
BRANCH  15  17
ATOM     17  CA  GLU d   1      -7.925  -0.383  16.715  0.00  0.00     0.090 C 
ATOM     18  H   GLU d   1      -7.019  -0.988  16.691  0.00  0.00     0.087 H 
BRANCH  17  19
ATOM     19  C   GLU d   1      -8.243  -0.048  15.266  0.00  0.00     0.241 C 
ATOM     20  O   GLU d   1      -8.918   0.939  14.984  0.00  0.00    -0.271 OA
ATOM     21  N   LEU d   1      -7.752  -0.884  14.353  0.00  0.00    -0.345 N 
ATOM     22  H   LEU d   1      -7.274  -1.729  14.665  0.00  0.00     0.163 HD
BRANCH  21  23
ATOM     23  CA  LEU d   1      -7.876  -0.631  12.918  0.00  0.00     0.096 C 
ATOM     24  H   LEU d   1      -7.750   0.442  12.774  0.00  0.00     0.089 H 
BRANCH  23  25
ATOM     25  C   LEU d   1      -9.240  -1.035  12.394  0.00  0.00     0.196 C 
ATOM     26  O   LEU d   1      -9.957  -1.787  13.052  0.00  0.00    -0.646 OA
ATOM     27  OXT LEU d   1      -9.641  -0.630  11.301  0.00  0.00    -0.646 OA
ENDBRANCH  23  25
BRANCH  23  28
ATOM     28  CB  LEU d   1      -6.795  -1.383  12.135  0.00  0.00    -0.034 C 
ATOM     29  H   LEU d   1      -6.965  -1.138  11.087  0.00  0.00     0.037 H 
ATOM     30  H   LEU d   1      -6.893  -2.429  12.426  0.00  0.00     0.037 H 
BRANCH  28  31
ATOM     31  CG  LEU d   1      -5.338  -1.010  12.416  0.00  0.00    -0.059 C 
ATOM     32  H   LEU d   1      -5.113  -1.276  13.449  0.00  0.00     0.038 H 
BRANCH  31  33
ATOM     33  CD1 LEU d   1      -4.398  -1.785  11.509  0.00  0.00    -0.073 C 
ATOM     34  H   LEU d   1      -4.527  -2.853  11.682  0.00  0.00     0.028 H 
ATOM     35  H   LEU d   1      -4.626  -1.554  10.469  0.00  0.00     0.028 H 
ATOM     36  H   LEU d   1      -3.368  -1.502  11.728  0.00  0.00     0.028 H 
ENDBRANCH  31  33
BRANCH  31  37
ATOM     37  CD2 LEU d   1      -5.127   0.484  12.246  0.00  0.00    -0.073 C 
ATOM     38  H   LEU d   1      -5.375   0.771  11.224  0.00  0.00     0.028 H 
ATOM     39  H   LEU d   1      -5.771   1.022  12.942  0.00  0.00     0.028 H 
ATOM     40  H   LEU d   1      -4.085   0.728  12.450  0.00  0.00     0.028 H 
ENDBRANCH  31  37
ENDBRANCH  28  31
ENDBRANCH  23  28
ENDBRANCH  21  23
ENDBRANCH  17  19
BRANCH  17  41
ATOM     41  CB  GLU d   1      -9.063  -1.181  17.345  0.00  0.00    -0.029 C 
ATOM     42  H   GLU d   1      -9.319  -1.991  16.663  0.00  0.00     0.037 H 
ATOM     43  H   GLU d   1      -9.893  -0.496  17.520  0.00  0.00     0.037 H 
BRANCH  41  44
ATOM     44  CG  GLU d   1      -8.682  -1.800  18.679  0.00  0.00     0.018 C 
ATOM     45  H   GLU d   1      -8.243  -1.016  19.296  0.00  0.00     0.049 H 
ATOM     46  H   GLU d   1      -7.993  -2.621  18.479  0.00  0.00     0.049 H 
BRANCH  44  47
ATOM     47  CD  GLU d   1      -9.868  -2.366  19.429  0.00  0.00     0.172 C 
ATOM     48  OE1 GLU d   1     -10.812  -1.598  19.723  0.00  0.00    -0.648 OA
ATOM     49  OE2 GLU d   1      -9.845  -3.579  19.733  0.00  0.00    -0.648 OA
ENDBRANCH  44  47
ENDBRANCH  41  44
ENDBRANCH  17  41
ENDBRANCH  15  17
ENDBRANCH  11  13
BRANCH  11  50
ATOM     50  CB  LEU d   1      -5.120   3.156  18.423  0.00  0.00    -0.035 C 
ATOM     51  H   LEU d   1      -4.237   2.556  18.202  0.00  0.00     0.037 H 
ATOM     52  H   LEU d   1      -4.947   3.893  19.207  0.00  0.00     0.037 H 
BRANCH  50  53
ATOM     53  CG  LEU d   1      -5.501   3.909  17.153  0.00  0.00    -0.059 C 
ATOM     54  H   LEU d   1      -5.571   3.197  16.331  0.00  0.00     0.038 H 
BRANCH  53  55
ATOM     55  CD1 LEU d   1      -6.847   4.575  17.352  0.00  0.00    -0.073 C 
ATOM     56  H   LEU d   1      -7.599   3.815  17.566  0.00  0.00     0.028 H 
ATOM     57  H   LEU d   1      -6.786   5.273  18.187  0.00  0.00     0.028 H 
ATOM     58  H   LEU d   1      -7.122   5.114  16.445  0.00  0.00     0.028 H 
ENDBRANCH  53  55
BRANCH  53  59
ATOM     59  CD2 LEU d   1      -4.438   4.925  16.764  0.00  0.00    -0.073 C 
ATOM     60  H   LEU d   1      -4.316   5.648  17.570  0.00  0.00     0.028 H 
ATOM     61  H   LEU d   1      -3.493   4.411  16.590  0.00  0.00     0.028 H 
ATOM     62  H   LEU d   1      -4.746   5.441  15.854  0.00  0.00     0.028 H 
ENDBRANCH  53  59
ENDBRANCH  50  53
ENDBRANCH  11  50
ENDBRANCH   9  11
ENDBRANCH   5   7
BRANCH   5  63
ATOM     63  CB  THR d   1      -7.357   1.282  23.331  0.00  0.00     0.060 C 
ATOM     64  H   THR d   1      -8.160   2.013  23.428  0.00  0.00     0.086 H 
BRANCH  63  65
ATOM     65  OG1 THR d   1      -7.003   0.781  24.627  0.00  0.00    -0.393 OA
ATOM     66  H   THR d   1      -7.765   0.349  25.021  0.00  0.00     0.210 HD
ENDBRANCH  63  65
BRANCH  63  67
ATOM     67  CG2 THR d   1      -7.850   0.138  22.455  0.00  0.00    -0.050 C 
ATOM     68  H   THR d   1      -8.140   0.528  21.479  0.00  0.00     0.031 H 
ATOM     69  H   THR d   1      -7.052  -0.594  22.333  0.00  0.00     0.031 H 
ATOM     70  H   THR d   1      -8.710  -0.336  22.928  0.00  0.00     0.031 H 
ENDBRANCH  63  67
ENDBRANCH   5  63
ENDBRANCH   3   5
BRANCH   1  71
ATOM     71  CA  ASN d   1      -4.682   5.305  23.810  0.00  0.00     0.097 C 
ATOM     72  H   ASN d   1      -5.485   5.291  24.547  0.00  0.00     0.088 H 
BRANCH  71  73
ATOM     73  N   ASN d   1      -3.464   5.530  24.578  0.00  0.00    -0.345 N 
ATOM     74  C   SER d   1      -3.291   4.963  25.766  0.00  0.00     0.243 C 
ATOM     75  O   SER d   1      -4.077   4.134  26.224  0.00  0.00    -0.271 OA
ATOM     76  H   ASN d   1      -2.734   6.132  24.197  0.00  0.00     0.163 HD
BRANCH  74  77
ATOM     77  CA  SER d   1      -2.055   5.385  26.564  0.00  0.00     0.109 C 
ATOM     78  H   SER d   1      -1.571   4.463  26.885  0.00  0.00     0.090 H 
BRANCH  77  79
ATOM     79  N   SER d   1      -1.049   6.107  25.790  0.00  0.00    -0.344 N 
ATOM     80  C   ASP d   1      -0.133   5.476  25.063  0.00  0.00     0.241 C 
ATOM     81  O   ASP d   1      -0.126   4.256  24.911  0.00  0.00    -0.271 OA
ATOM     82  H   SER d   1      -1.049   7.127  25.808  0.00  0.00     0.163 HD
BRANCH  80  83
ATOM     83  CA  ASP d   1       0.929   6.351  24.406  0.00  0.00     0.098 C 
ATOM     84  H   ASP d   1       0.953   7.312  24.921  0.00  0.00     0.088 H 
BRANCH  83  85
ATOM     85  N   ASP d   1       2.237   5.723  24.517  0.00  0.00    -0.346 N 
ATOM     86  C   MET d   1       3.083   6.025  25.495  0.00  0.00     0.241 C 
ATOM     87  O   MET d   1       2.848   6.886  26.349  0.00  0.00    -0.271 OA
ATOM     88  H   ASP d   1       2.513   5.029  23.822  0.00  0.00     0.163 HD
BRANCH  86  89
ATOM     89  CA  MET d   1       4.384   5.231  25.507  0.00  0.00     0.090 C 
ATOM     90  H   MET d   1       4.843   5.332  24.524  0.00  0.00     0.087 H 
BRANCH  89  91
ATOM     91  N   MET d   1       5.318   5.735  26.501  0.00  0.00    -0.346 N 
ATOM     92  C   ALA d   1       5.656   7.014  26.591  0.00  0.00     0.248 C 
ATOM     93  O   ALA d   1       5.209   7.886  25.845  0.00  0.00    -0.271 OA
ATOM     94  H   MET d   1       5.732   5.075  27.159  0.00  0.00     0.163 HD
BRANCH  92  95
ATOM     95  CA  ALA d   1       6.651   7.345  27.698  0.00  0.00     0.172 C 
ATOM     96  H   ALA d   1       6.925   6.405  28.177  0.00  0.00     0.098 H 
BRANCH  95  97
ATOM     97  N   ALA d   1       7.878   7.937  27.178  0.00  0.00    -0.067 N 
ATOM     98  H   ALA d   1       8.291   7.309  26.488  0.00  0.00     0.275 HD
ATOM     99  H   ALA d   1       7.663   8.832  26.739  0.00  0.00     0.275 HD
ATOM    100  H   ALA d   1       8.535   8.082  27.944  0.00  0.00     0.275 HD
ENDBRANCH  95  97
BRANCH  95 101
ATOM    101  CB  ALA d   1       6.014   8.260  28.728  0.00  0.00    -0.042 C 
ATOM    102  H   ALA d   1       5.699   9.185  28.245  0.00  0.00     0.030 H 
ATOM    103  H   ALA d   1       5.148   7.764  29.166  0.00  0.00     0.030 H 
ATOM    104  H   ALA d   1       6.739   8.485  29.510  0.00  0.00     0.030 H 
ENDBRANCH  95 101
ENDBRANCH  92  95
ENDBRANCH  89  91
BRANCH  89 105
ATOM    105  CB  MET d   1       4.079   3.771  25.820  0.00  0.00    -0.030 C 
ATOM    106  H   MET d   1       3.129   3.762  26.355  0.00  0.00     0.037 H 
ATOM    107  H   MET d   1       4.937   3.388  26.372  0.00  0.00     0.037 H 
BRANCH 105 108
ATOM    108  CG  MET d   1       3.904   2.869  24.627  0.00  0.00    -0.021 C 
ATOM    109  H   MET d   1       4.503   3.231  23.792  0.00  0.00     0.049 H 
ATOM    110  H   MET d   1       2.860   2.857  24.315  0.00  0.00     0.049 H 
BRANCH 108 111
ATOM    111  SD  MET d   1       4.431   1.208  25.096  0.00  0.00    -0.173 SA
BRANCH 111 112
ATOM    112  CE  MET d   1       6.137   1.542  25.523  0.00  0.00    -0.035 C 
ATOM    113  H   MET d   1       6.656   1.945  24.653  0.00  0.00     0.041 H 
ATOM    114  H   MET d   1       6.171   2.267  26.336  0.00  0.00     0.041 H 
ATOM    115  H   MET d   1       6.619   0.617  25.838  0.00  0.00     0.041 H 
ENDBRANCH 111 112
ENDBRANCH 108 111
ENDBRANCH 105 108
ENDBRANCH  89 105
ENDBRANCH  86  89
ENDBRANCH  83  85
BRANCH  83 116
ATOM    116  CB  ASP d   1       0.588   6.589  22.937  0.00  0.00     0.043 C 
ATOM    117  H   ASP d   1       0.755   5.656  22.399  0.00  0.00     0.052 H 
ATOM    118  H   ASP d   1       1.218   7.402  22.574  0.00  0.00     0.052 H 
BRANCH 116 119
ATOM    119  CG  ASP d   1      -0.858   6.993  22.731  0.00  0.00     0.175 C 
ATOM    120  OD1 ASP d   1      -1.308   7.972  23.367  0.00  0.00    -0.648 OA
ATOM    121  OD2 ASP d   1      -1.542   6.328  21.921  0.00  0.00    -0.648 OA
ENDBRANCH 116 119
ENDBRANCH  83 116
ENDBRANCH  80  83
ENDBRANCH  77  79
BRANCH  77 122
ATOM    122  CB  SER d   1      -2.492   6.228  27.761  0.00  0.00     0.044 C 
ATOM    123  H   SER d   1      -2.476   7.280  27.476  0.00  0.00     0.077 H 
ATOM    124  H   SER d   1      -1.809   6.043  28.590  0.00  0.00     0.077 H 
BRANCH 122 125
ATOM    125  OG  SER d   1      -3.806   5.882  28.163  0.00  0.00    -0.398 OA
ATOM    126  H   SER d   1      -4.413   6.036  27.436  0.00  0.00     0.209 HD
ENDBRANCH 122 125
ENDBRANCH  77 122
ENDBRANCH  74  77
ENDBRANCH  71  73
BRANCH  71 127
ATOM    127  CB  ASN d   1      -4.909   6.443  22.805  0.00  0.00     0.036 C 
ATOM    128  H   ASN d   1      -5.834   6.235  22.268  0.00  0.00     0.051 H 
ATOM    129  H   ASN d   1      -4.041   6.487  22.148  0.00  0.00     0.051 H 
BRANCH 127 130
ATOM    130  CG  ASN d   1      -5.055   7.805  23.479  0.00  0.00     0.217 C 
ATOM    131  OD1 ASN d   1      -4.070   8.419  23.895  0.00  0.00    -0.274 OA
ATOM    132  ND2 ASN d   1      -6.287   8.287  23.570  0.00  0.00    -0.370 N 
ATOM    133  H   ASN d   1      -6.447   9.199  23.997  0.00  0.00     0.159 HD
ATOM    134  H   ASN d   1      -7.074   7.746  23.213  0.00  0.00     0.159 HD
ENDBRANCH 127 130
ENDBRANCH  71 127
ENDBRANCH   1  71
TORSDOF 43
