REMARK WARNING: 32 MAX_TORS EXCEEDED!!!
REMARK  45 active torsions:
REMARK  status: ('A' for Active; 'I' for Inactive)
REMARK    1  A    between atoms: CA_2  and  N_1 
REMARK    2  A    between atoms: C_3  and  CA_2 
REMARK    3  A    between atoms: CA_2  and  CB_5 
REMARK       I    between atoms: N_9  and  C_3 
REMARK    4  A    between atoms: CB_5  and  CG_6 
REMARK       I    between atoms: CG_6  and  ND2_8 
REMARK    5  A    between atoms: CA_10  and  N_9 
REMARK    6  A    between atoms: C_11  and  CA_10 
REMARK    7  A    between atoms: CA_10  and  CB_13 
REMARK       I    between atoms: N_17  and  C_11 
REMARK    8  A    between atoms: CB_13  and  CG_14 
REMARK    9  A    between atoms: CG_14  and  CD1_15 
REMARK   10  A    between atoms: CG_14  and  CD2_16 
REMARK   11  A    between atoms: CA_18  and  N_17 
REMARK   12  A    between atoms: C_19  and  CA_18 
REMARK   13  A    between atoms: CA_18  and  CB_21 
REMARK       I    between atoms: N1_31  and  C_19 
REMARK   14  A    between atoms: CB_21  and  CG1_22 
REMARK   15  A    between atoms: CB_21  and  CG2_23 
REMARK   16  A    between atoms: C4_26  and  C5_25 
REMARK       I    between atoms: C5_25  and  N_32 
REMARK   17  A    between atoms: C4_26  and  O6_27 
REMARK   18  A    between atoms: C3_28  and  C4_26 
REMARK   19  A    between atoms: C3_28  and  O8_29 
REMARK   20  A    between atoms: C2_30  and  C3_28 
REMARK   21  A    between atoms: C2_30  and  N1_31 
REMARK   22  A    between atoms: N_32  and  CA_33 
REMARK   23  A    between atoms: CA_33  and  C_34 
REMARK   24  A    between atoms: CA_33  and  CB_36 
REMARK       I    between atoms: C_34  and  N_40 
REMARK   25  A    between atoms: CB_36  and  CG_37 
REMARK   26  A    between atoms: CG_37  and  SD_38 
REMARK   27  A    between atoms: SD_38  and  CE_39 
REMARK   28  A    between atoms: N_40  and  CA_41 
REMARK   29  A    between atoms: CA_41  and  C_42 
REMARK   30  A    between atoms: CA_41  and  CB_44 
REMARK       I    between atoms: C_42  and  N_47 
REMARK   31  A    between atoms: CB_44  and  CG1_45 
REMARK   32  A    between atoms: CB_44  and  CG2_46 
REMARK   33  A    between atoms: N_47  and  CA_48 
REMARK   34  A    between atoms: CA_48  and  C_49 
REMARK   35  A    between atoms: CA_48  and  CB_51 
REMARK       I    between atoms: C_49  and  N_52 
REMARK   36  A    between atoms: N_52  and  CA_53 
REMARK   37  A    between atoms: CA_53  and  C_54 
REMARK   38  A    between atoms: CA_53  and  CB_56 
REMARK       I    between atoms: C_54  and  N_59 
REMARK   39  A    between atoms: CB_56  and  OG1_57 
REMARK   40  A    between atoms: CB_56  and  CG2_58 
REMARK   41  A    between atoms: N_59  and  CA_60 
REMARK   42  A    between atoms: CA_60  and  C_61 
REMARK   43  A    between atoms: CA_60  and  CB_63 
REMARK   44  A    between atoms: CB_63  and  CG1_64 
REMARK   45  A    between atoms: CB_63  and  CG2_65 
ROOT
ATOM      1  CA  MET d   1      35.691  37.742  40.890  0.00  0.00     0.090 C 
ATOM      2  H37 MET d   1      36.516  37.285  41.455  0.00  0.00     0.087 H 
ENDROOT
BRANCH   1   3
ATOM      3  N   MET d   1      34.470  37.525  41.680  0.00  0.00    -0.345 N 
ATOM      4  C5  PRW d   1      34.348  38.020  43.057  0.00  0.00     0.249 C 
ATOM      5  O7  PRW d   1      34.859  39.093  43.363  0.00  0.00    -0.271 OA
ATOM      6  H36 MET d   1      33.705  37.029  41.270  0.00  0.00     0.163 HD
BRANCH   4   7
ATOM      7  C4  PRW d   1      33.095  37.623  43.838  0.00  0.00     0.138 C 
ATOM      8  H29 PRW d   1      32.228  37.789  43.181  0.00  0.00     0.102 H 
BRANCH   7   9
ATOM      9  O6  PRW d   1      32.968  38.467  44.996  0.00  0.00    -0.383 OA
ATOM     10  H30 PRW d   1      32.897  39.373  44.720  0.00  0.00     0.210 HD
ENDBRANCH   7   9
BRANCH   7  11
ATOM     11  C3  PRW d   1      33.058  36.157  44.300  0.00  0.00     0.084 C 
ATOM     12  H31 PRW d   1      33.284  36.149  45.376  0.00  0.00     0.090 H 
BRANCH  11  13
ATOM     13  O8  PRW d   1      34.054  35.366  43.640  0.00  0.00    -0.391 OA
ATOM     14  H32 PRW d   1      34.001  34.469  43.950  0.00  0.00     0.210 HD
ENDBRANCH  11  13
BRANCH  11  15
ATOM     15  C2  PRW d   1      31.673  35.523  44.113  0.00  0.00     0.022 C 
ATOM     16  H33 PRW d   1      30.912  36.183  44.555  0.00  0.00     0.068 H 
ATOM     17  H34 PRW d   1      31.651  34.547  44.620  0.00  0.00     0.068 H 
BRANCH  15  18
ATOM     18  N1  PRW d   1      31.378  35.333  42.697  0.00  0.00    -0.357 N 
ATOM     19  C   VAL d   1      30.395  36.157  42.012  0.00  0.00     0.240 C 
ATOM     20  O   VAL d   1      30.270  37.363  42.237  0.00  0.00    -0.271 OA
ATOM     21  H35 PRW d   1      31.862  34.622  42.187  0.00  0.00     0.162 HD
BRANCH  19  22
ATOM     22  CA  VAL d   1      29.299  35.387  41.279  0.00  0.00     0.092 C 
ATOM     23  H21 VAL d   1      29.210  34.385  41.724  0.00  0.00     0.088 H 
BRANCH  22  24
ATOM     24  N   VAL d   1      28.018  36.076  41.436  0.00  0.00    -0.346 N 
ATOM     25  C   LEU d   1      27.202  35.847  42.464  0.00  0.00     0.241 C 
ATOM     26  O   LEU d   1      27.426  35.003  43.332  0.00  0.00    -0.271 OA
ATOM     27  H20 VAL d   1      27.744  36.745  40.745  0.00  0.00     0.163 HD
BRANCH  25  28
ATOM     28  CA  LEU d   1      25.957  36.727  42.513  0.00  0.00     0.089 C 
ATOM     29  H10 LEU d   1      25.482  36.679  41.522  0.00  0.00     0.087 H 
BRANCH  28  30
ATOM     30  N   LEU d   1      24.946  36.335  43.493  0.00  0.00    -0.346 N 
ATOM     31  C   ASN d   1      24.450  35.102  43.569  0.00  0.00     0.249 C 
ATOM     32  O   ASN d   1      24.843  34.175  42.866  0.00  0.00    -0.271 OA
ATOM     33  H9  LEU d   1      24.612  37.024  44.136  0.00  0.00     0.163 HD
BRANCH  31  34
ATOM     34  CA  ASN d   1      23.354  34.867  44.608  0.00  0.00     0.183 C 
ATOM     35  H4  ASN d   1      23.274  35.768  45.234  0.00  0.00     0.099 H 
BRANCH  34  36
ATOM     36  N   ASN d   1      22.057  34.626  43.984  0.00  0.00    -0.066 N 
ATOM     37  H1  ASN d   1      21.363  34.476  44.699  0.00  0.00     0.275 HD
ATOM     38  H2  ASN d   1      22.114  33.810  43.395  0.00  0.00     0.275 HD
ATOM     39  H3  ASN d   1      21.798  35.425  43.427  0.00  0.00     0.275 HD
ENDBRANCH  34  36
BRANCH  34  40
ATOM     40  CB  ASN d   1      23.727  33.682  45.501  0.00  0.00     0.044 C 
ATOM     41  H5  ASN d   1      23.984  32.826  44.860  0.00  0.00     0.051 H 
ATOM     42  H6  ASN d   1      22.858  33.425  46.125  0.00  0.00     0.051 H 
BRANCH  40  43
ATOM     43  CG  ASN d   1      24.911  33.978  46.414  0.00  0.00     0.217 C 
ATOM     44  OD1 ASN d   1      25.938  34.500  45.979  0.00  0.00    -0.274 OA
ATOM     45  ND2 ASN d   1      24.772  33.628  47.689  0.00  0.00    -0.370 N 
ATOM     46  H7  ASN d   1      25.514  33.796  48.337  0.00  0.00     0.159 HD
ATOM     47  H8  ASN d   1      23.925  33.197  48.000  0.00  0.00     0.159 HD
ENDBRANCH  40  43
ENDBRANCH  34  40
ENDBRANCH  31  34
ENDBRANCH  28  30
BRANCH  28  48
ATOM     48  CB  LEU d   1      26.396  38.161  42.769  0.00  0.00    -0.035 C 
ATOM     49  H11 LEU d   1      27.284  38.367  42.153  0.00  0.00     0.037 H 
ATOM     50  H12 LEU d   1      26.657  38.259  43.833  0.00  0.00     0.037 H 
BRANCH  48  51
ATOM     51  CG  LEU d   1      25.333  39.194  42.439  0.00  0.00    -0.059 C 
ATOM     52  H13 LEU d   1      24.431  38.983  43.032  0.00  0.00     0.038 H 
BRANCH  51  53
ATOM     53  CD1 LEU d   1      25.824  40.581  42.780  0.00  0.00    -0.073 C 
ATOM     54  H14 LEU d   1      25.044  41.317  42.535  0.00  0.00     0.028 H 
ATOM     55  H15 LEU d   1      26.731  40.802  42.199  0.00  0.00     0.028 H 
ATOM     56  H16 LEU d   1      26.055  40.635  43.854  0.00  0.00     0.028 H 
ENDBRANCH  51  53
BRANCH  51  57
ATOM     57  CD2 LEU d   1      24.991  39.099  40.979  0.00  0.00    -0.073 C 
ATOM     58  H17 LEU d   1      24.636  38.083  40.751  0.00  0.00     0.028 H 
ATOM     59  H18 LEU d   1      25.886  39.318  40.378  0.00  0.00     0.028 H 
ATOM     60  H19 LEU d   1      24.201  39.826  40.739  0.00  0.00     0.028 H 
ENDBRANCH  51  57
ENDBRANCH  48  51
ENDBRANCH  28  48
ENDBRANCH  25  28
ENDBRANCH  22  24
BRANCH  22  61
ATOM     61  CB  VAL d   1      29.695  35.228  39.784  0.00  0.00    -0.033 C 
ATOM     62  H22 VAL d   1      28.776  35.093  39.194  0.00  0.00     0.042 H 
BRANCH  61  63
ATOM     63  CG1 VAL d   1      30.410  36.473  39.290  0.00  0.00    -0.071 C 
ATOM     64  H23 VAL d   1      30.683  36.344  38.232  0.00  0.00     0.028 H 
ATOM     65  H24 VAL d   1      31.320  36.634  39.886  0.00  0.00     0.028 H 
ATOM     66  H25 VAL d   1      29.745  37.343  39.394  0.00  0.00     0.028 H 
ENDBRANCH  61  63
BRANCH  61  67
ATOM     67  CG2 VAL d   1      30.579  34.012  39.583  0.00  0.00    -0.071 C 
ATOM     68  H26 VAL d   1      30.055  33.114  39.943  0.00  0.00     0.028 H 
ATOM     69  H27 VAL d   1      31.514  34.141  40.147  0.00  0.00     0.028 H 
ATOM     70  H28 VAL d   1      30.809  33.898  38.513  0.00  0.00     0.028 H 
ENDBRANCH  61  67
ENDBRANCH  22  61
ENDBRANCH  19  22
ENDBRANCH  15  18
ENDBRANCH  11  15
ENDBRANCH   7  11
ENDBRANCH   4   7
ENDBRANCH   1   3
BRANCH   1  71
ATOM     71  C   MET d   1      36.036  39.242  40.749  0.00  0.00     0.241 C 
ATOM     72  O   MET d   1      36.680  39.786  41.652  0.00  0.00    -0.271 OA
ATOM     73  N   VAL d   1      35.654  39.927  39.661  0.00  0.00    -0.346 N 
ATOM     74  H45 VAL d   1      35.808  40.915  39.682  0.00  0.00     0.163 HD
BRANCH  73  75
ATOM     75  CA  VAL d   1      35.035  39.390  38.444  0.00  0.00     0.092 C 
ATOM     76  H46 VAL d   1      34.939  38.298  38.530  0.00  0.00     0.088 H 
BRANCH  75  77
ATOM     77  C   VAL d   1      35.933  39.751  37.266  0.00  0.00     0.241 C 
ATOM     78  O   VAL d   1      36.068  40.928  36.935  0.00  0.00    -0.271 OA
ATOM     79  N   ALA d   1      36.545  38.751  36.633  0.00  0.00    -0.346 N 
ATOM     80  H54 ALA d   1      36.282  37.808  36.836  0.00  0.00     0.163 HD
BRANCH  79  81
ATOM     81  CA  ALA d   1      37.601  39.008  35.641  0.00  0.00     0.086 C 
ATOM     82  H55 ALA d   1      38.467  39.400  36.194  0.00  0.00     0.086 H 
BRANCH  81  83
ATOM     83  C   ALA d   1      37.230  40.069  34.589  0.00  0.00     0.240 C 
ATOM     84  O   ALA d   1      36.085  40.135  34.142  0.00  0.00    -0.271 OA
ATOM     85  N   THR d   1      38.193  40.908  34.210  0.00  0.00    -0.344 N 
ATOM     86  H59 THR d   1      39.098  40.836  34.630  0.00  0.00     0.163 HD
BRANCH  85  87
ATOM     87  CA  THR d   1      37.956  41.936  33.190  0.00  0.00     0.113 C 
ATOM     88  H60 THR d   1      36.873  42.128  33.157  0.00  0.00     0.091 H 
BRANCH  87  89
ATOM     89  C   THR d   1      38.403  41.456  31.816  0.00  0.00     0.243 C 
ATOM     90  O   THR d   1      39.187  40.507  31.713  0.00  0.00    -0.271 OA
ATOM     91  N   VAL d   1      37.900  42.118  30.769  0.00  0.00    -0.344 N 
ATOM     92  H66 VAL d   1      37.333  42.924  30.938  0.00  0.00     0.163 HD
BRANCH  91  93
ATOM     93  CA  VAL d   1      38.146  41.709  29.384  0.00  0.00     0.099 C 
ATOM     94  H67 VAL d   1      37.991  40.621  29.327  0.00  0.00     0.090 H 
BRANCH  93  95
ATOM     95  C   VAL d   1      39.571  42.014  28.952  0.00  0.00     0.197 C 
ATOM     96  O   VAL d   1      40.172  43.009  29.373  0.00  0.00    -0.646 OA
ATOM     97  OXT VAL d   1      40.137  41.260  28.158  0.00  0.00    -0.646 OA
ENDBRANCH  93  95
BRANCH  93  98
ATOM     98  CB  VAL d   1      37.180  42.391  28.378  0.00  0.00    -0.032 C 
ATOM     99  H68 VAL d   1      37.517  42.135  27.363  0.00  0.00     0.042 H 
BRANCH  98 100
ATOM    100  CG1 VAL d   1      35.748  41.866  28.538  0.00  0.00    -0.071 C 
ATOM    101  H69 VAL d   1      35.090  42.368  27.813  0.00  0.00     0.028 H 
ATOM    102  H70 VAL d   1      35.394  42.073  29.559  0.00  0.00     0.028 H 
ATOM    103  H71 VAL d   1      35.733  40.781  28.357  0.00  0.00     0.028 H 
ENDBRANCH  98 100
BRANCH  98 104
ATOM    104  CG2 VAL d   1      37.239  43.909  28.517  0.00  0.00    -0.071 C 
ATOM    105  H72 VAL d   1      38.279  44.248  28.397  0.00  0.00     0.028 H 
ATOM    106  H73 VAL d   1      36.871  44.201  29.512  0.00  0.00     0.028 H 
ATOM    107  H74 VAL d   1      36.610  44.373  27.743  0.00  0.00     0.028 H 
ENDBRANCH  98 104
ENDBRANCH  93  98
ENDBRANCH  91  93
ENDBRANCH  87  89
BRANCH  87 108
ATOM    108  CB  THR d   1      38.668  43.268  33.502  0.00  0.00     0.060 C 
ATOM    109  H61 THR d   1      38.572  43.935  32.633  0.00  0.00     0.086 H 
BRANCH 108 110
ATOM    110  OG1 THR d   1      40.053  43.020  33.753  0.00  0.00    -0.393 OA
ATOM    111  H62 THR d   1      40.491  43.841  33.945  0.00  0.00     0.210 HD
ENDBRANCH 108 110
BRANCH 108 112
ATOM    112  CG2 THR d   1      38.050  43.946  34.713  0.00  0.00    -0.050 C 
ATOM    113  H63 THR d   1      38.576  44.891  34.912  0.00  0.00     0.031 H 
ATOM    114  H64 THR d   1      38.139  43.286  35.588  0.00  0.00     0.031 H 
ATOM    115  H65 THR d   1      36.988  44.152  34.516  0.00  0.00     0.031 H 
ENDBRANCH 108 112
ENDBRANCH  87 108
ENDBRANCH  85  87
ENDBRANCH  81  83
BRANCH  81 116
ATOM    116  CB  ALA d   1      38.036  37.710  34.974  0.00  0.00    -0.049 C 
ATOM    117  H56 ALA d   1      38.825  37.923  34.237  0.00  0.00     0.030 H 
ATOM    118  H57 ALA d   1      37.174  37.252  34.467  0.00  0.00     0.030 H 
ATOM    119  H58 ALA d   1      38.424  37.018  35.736  0.00  0.00     0.030 H 
ENDBRANCH  81 116
ENDBRANCH  79  81
ENDBRANCH  75  77
BRANCH  75 120
ATOM    120  CB  VAL d   1      33.648  40.011  38.193  0.00  0.00    -0.033 C 
ATOM    121  H47 VAL d   1      33.754  41.106  38.178  0.00  0.00     0.042 H 
BRANCH 120 122
ATOM    122  CG1 VAL d   1      33.094  39.562  36.849  0.00  0.00    -0.071 C 
ATOM    123  H48 VAL d   1      32.105  40.016  36.690  0.00  0.00     0.028 H 
ATOM    124  H49 VAL d   1      33.000  38.466  36.839  0.00  0.00     0.028 H 
ATOM    125  H50 VAL d   1      33.776  39.879  36.047  0.00  0.00     0.028 H 
ENDBRANCH 120 122
BRANCH 120 126
ATOM    126  CG2 VAL d   1      32.697  39.636  39.307  0.00  0.00    -0.071 C 
ATOM    127  H51 VAL d   1      33.112  39.967  40.270  0.00  0.00     0.028 H 
ATOM    128  H52 VAL d   1      32.562  38.544  39.322  0.00  0.00     0.028 H 
ATOM    129  H53 VAL d   1      31.725  40.123  39.139  0.00  0.00     0.028 H 
ENDBRANCH 120 126
ENDBRANCH  75 120
ENDBRANCH  73  75
ENDBRANCH   1  71
BRANCH   1 130
ATOM    130  CB  MET d   1      35.635  37.016  39.535  0.00  0.00    -0.030 C 
ATOM    131  H38 MET d   1      36.645  37.034  39.099  0.00  0.00     0.037 H 
ATOM    132  H39 MET d   1      34.943  37.569  38.882  0.00  0.00     0.037 H 
BRANCH 130 133
ATOM    133  CG  MET d   1      35.173  35.567  39.588  0.00  0.00    -0.021 C 
ATOM    134  H40 MET d   1      34.152  35.528  39.994  0.00  0.00     0.049 H 
ATOM    135  H41 MET d   1      35.849  34.996  40.241  0.00  0.00     0.049 H 
BRANCH 133 136
ATOM    136  SD  MET d   1      35.183  34.835  37.937  0.00  0.00    -0.173 SA
BRANCH 136 137
ATOM    137  CE  MET d   1      34.466  33.229  38.277  0.00  0.00    -0.035 C 
ATOM    138  H42 MET d   1      34.404  32.650  37.344  0.00  0.00     0.041 H 
ATOM    139  H43 MET d   1      33.457  33.359  38.695  0.00  0.00     0.041 H 
ATOM    140  H44 MET d   1      35.096  32.692  39.001  0.00  0.00     0.041 H 
ENDBRANCH 136 137
ENDBRANCH 133 136
ENDBRANCH 130 133
ENDBRANCH   1 130
TORSDOF 45
