REMARK WARNING: 32 MAX_TORS EXCEEDED!!!
REMARK  41 active torsions:
REMARK  status: ('A' for Active; 'I' for Inactive)
REMARK    1  A    between atoms: N_1  and  CA_2 
REMARK    2  A    between atoms: CA_2  and  C_3 
REMARK    3  A    between atoms: CA_2  and  CB_5 
REMARK       I    between atoms: C_3  and  N_9 
REMARK    4  A    between atoms: CB_5  and  CG1_6 
REMARK    5  A    between atoms: CB_5  and  CG2_7 
REMARK    6  A    between atoms: CG1_6  and  CD1_8 
REMARK    7  A    between atoms: N_9  and  CA_10 
REMARK    8  A    between atoms: CA_10  and  C_11 
REMARK    9  A    between atoms: CA_10  and  CB_13 
REMARK       I    between atoms: C_11  and  N_17 
REMARK   10  A    between atoms: CB_13  and  CG_14 
REMARK   11  A    between atoms: CG_14  and  CD1_15 
REMARK   12  A    between atoms: CG_14  and  CD2_16 
REMARK   13  A    between atoms: N_17  and  CA_18 
REMARK   14  A    between atoms: CA_18  and  C_19 
REMARK   15  A    between atoms: CA_18  and  CB_21 
REMARK       I    between atoms: C_19  and  N_26 
REMARK   16  A    between atoms: CB_21  and  CG_22 
REMARK   17  A    between atoms: CG_22  and  CD_23 
REMARK   18  A    between atoms: CD_23  and  CE_24 
REMARK   19  A    between atoms: CE_24  and  NZ_25 
REMARK   20  A    between atoms: N_26  and  CA_27 
REMARK   21  A    between atoms: CA_27  and  C_28 
REMARK   22  A    between atoms: CA_27  and  CB_30 
REMARK       I    between atoms: C_28  and  N_35 
REMARK   23  A    between atoms: CB_30  and  CG_31 
REMARK   24  A    between atoms: CG_31  and  CD_32 
REMARK   25  A    between atoms: CA_36  and  C_37 
REMARK       I    between atoms: C_37  and  N_42 
REMARK   26  A    between atoms: N_42  and  CA_43 
REMARK   27  A    between atoms: CA_43  and  C_44 
REMARK   28  A    between atoms: CA_43  and  CB_46 
REMARK       I    between atoms: C_44  and  N_49 
REMARK   29  A    between atoms: CB_46  and  CG1_47 
REMARK   30  A    between atoms: CB_46  and  CG2_48 
REMARK   31  A    between atoms: N_49  and  CA_50 
REMARK   32  A    between atoms: CA_50  and  C_51 
REMARK   33  A    between atoms: CA_50  and  CB_53 
REMARK       I    between atoms: C_51  and  N_59 
REMARK   34  A    between atoms: CB_53  and  CG_54 
REMARK   35  A    between atoms: N_59  and  CA_60 
REMARK   36  A    between atoms: CA_60  and  C_61 
REMARK       I    between atoms: C_61  and  N_63 
REMARK   37  A    between atoms: N_63  and  CA_64 
REMARK   38  A    between atoms: CA_64  and  C_65 
REMARK   39  A    between atoms: CA_64  and  CB_67 
REMARK   40  A    between atoms: CB_67  and  CG1_68 
REMARK   41  A    between atoms: CB_67  and  CG2_69 
ROOT
ATOM      1  CA  GLU d   1      33.200  35.386  43.476  0.00  0.00     0.090 C 
ATOM      2  H39 GLU d   1      33.315  36.220  42.768  0.00  0.00     0.087 H 
ENDROOT
BRANCH   1   3
ATOM      3  N   GLU d   1      32.059  34.573  43.054  0.00  0.00    -0.346 N 
ATOM      4  C   LYS d   1      30.944  35.107  42.562  0.00  0.00     0.241 C 
ATOM      5  O   LYS d   1      30.680  36.305  42.640  0.00  0.00    -0.271 OA
ATOM      6  H38 GLU d   1      32.120  33.578  43.139  0.00  0.00     0.163 HD
BRANCH   4   7
ATOM      7  CA  LYS d   1      29.979  34.143  41.879  0.00  0.00     0.089 C 
ATOM      8  H26 LYS d   1      29.973  33.188  42.425  0.00  0.00     0.087 H 
BRANCH   7   9
ATOM      9  N   LYS d   1      28.633  34.688  41.856  0.00  0.00    -0.346 N 
ATOM     10  C   LEU d   1      27.837  34.676  42.915  0.00  0.00     0.241 C 
ATOM     11  O   LEU d   1      28.152  34.186  43.995  0.00  0.00    -0.271 OA
ATOM     12  H25 LYS d   1      28.293  35.089  41.005  0.00  0.00     0.163 HD
BRANCH  10  13
ATOM     13  CA  LEU d   1      26.516  35.396  42.729  0.00  0.00     0.089 C 
ATOM     14  H15 LEU d   1      26.102  35.154  41.739  0.00  0.00     0.087 H 
BRANCH  13  15
ATOM     15  N   LEU d   1      25.527  35.030  43.745  0.00  0.00    -0.346 N 
ATOM     16  C   ILE d   1      24.930  33.837  43.785  0.00  0.00     0.249 C 
ATOM     17  O   ILE d   1      25.141  32.952  42.959  0.00  0.00    -0.271 OA
ATOM     18  H14 LEU d   1      25.288  35.706  44.442  0.00  0.00     0.163 HD
BRANCH  16  19
ATOM     19  CA  ILE d   1      23.935  33.608  44.931  0.00  0.00     0.179 C 
ATOM     20  H4  ILE d   1      23.643  34.594  45.322  0.00  0.00     0.099 H 
BRANCH  19  21
ATOM     21  N   ILE d   1      22.722  32.934  44.484  0.00  0.00    -0.066 N 
ATOM     22  H1  ILE d   1      22.299  33.463  43.737  0.00  0.00     0.275 HD
ATOM     23  H2  ILE d   1      22.075  32.862  45.253  0.00  0.00     0.275 HD
ATOM     24  H3  ILE d   1      22.953  32.011  44.152  0.00  0.00     0.275 HD
ENDBRANCH  19  21
BRANCH  19  25
ATOM     25  CB  ILE d   1      24.607  32.824  46.074  0.00  0.00    -0.022 C 
ATOM     26  H5  ILE d   1      24.316  31.767  45.987  0.00  0.00     0.043 H 
BRANCH  25  27
ATOM     27  CG1 ILE d   1      24.127  33.348  47.428  0.00  0.00    -0.063 C 
ATOM     28  H6  ILE d   1      23.074  33.057  47.559  0.00  0.00     0.033 H 
ATOM     29  H7  ILE d   1      24.207  34.445  47.423  0.00  0.00     0.033 H 
BRANCH  27  30
ATOM     30  CD1 ILE d   1      24.920  32.816  48.608  0.00  0.00    -0.076 C 
ATOM     31  H11 ILE d   1      24.516  33.237  49.541  0.00  0.00     0.027 H 
ATOM     32  H12 ILE d   1      25.976  33.107  48.502  0.00  0.00     0.027 H 
ATOM     33  H13 ILE d   1      24.843  31.719  48.637  0.00  0.00     0.027 H 
ENDBRANCH  27  30
ENDBRANCH  25  27
BRANCH  25  34
ATOM     34  CG2 ILE d   1      26.114  32.912  45.973  0.00  0.00    -0.070 C 
ATOM     35  H8  ILE d   1      26.439  32.531  44.993  0.00  0.00     0.028 H 
ATOM     36  H9  ILE d   1      26.571  32.308  46.771  0.00  0.00     0.028 H 
ATOM     37  H10 ILE d   1      26.428  33.961  46.081  0.00  0.00     0.028 H 
ENDBRANCH  25  34
ENDBRANCH  19  25
ENDBRANCH  16  19
ENDBRANCH  13  15
BRANCH  13  38
ATOM     38  CB  LEU d   1      26.851  36.884  42.801  0.00  0.00    -0.035 C 
ATOM     39  H16 LEU d   1      27.540  37.082  41.967  0.00  0.00     0.037 H 
ATOM     40  H17 LEU d   1      27.378  37.032  43.755  0.00  0.00     0.037 H 
BRANCH  38  41
ATOM     41  CG  LEU d   1      25.792  37.966  42.735  0.00  0.00    -0.059 C 
ATOM     42  H18 LEU d   1      25.113  37.873  43.595  0.00  0.00     0.038 H 
BRANCH  41  43
ATOM     43  CD1 LEU d   1      26.490  39.327  42.789  0.00  0.00    -0.073 C 
ATOM     44  H19 LEU d   1      25.737  40.127  42.742  0.00  0.00     0.028 H 
ATOM     45  H20 LEU d   1      27.178  39.420  41.936  0.00  0.00     0.028 H 
ATOM     46  H21 LEU d   1      27.057  39.411  43.728  0.00  0.00     0.028 H 
ENDBRANCH  41  43
BRANCH  41  47
ATOM     47  CD2 LEU d   1      25.001  37.800  41.463  0.00  0.00    -0.073 C 
ATOM     48  H22 LEU d   1      24.515  36.813  41.460  0.00  0.00     0.028 H 
ATOM     49  H23 LEU d   1      25.676  37.879  40.598  0.00  0.00     0.028 H 
ATOM     50  H24 LEU d   1      24.234  38.587  41.403  0.00  0.00     0.028 H 
ENDBRANCH  41  47
ENDBRANCH  38  41
ENDBRANCH  13  38
ENDBRANCH  10  13
ENDBRANCH   7   9
BRANCH   7  51
ATOM     51  CB  LYS d   1      30.450  33.909  40.446  0.00  0.00    -0.038 C 
ATOM     52  H27 LYS d   1      30.666  34.886  39.989  0.00  0.00     0.036 H 
ATOM     53  H28 LYS d   1      29.639  33.415  39.891  0.00  0.00     0.036 H 
BRANCH  51  54
ATOM     54  CG  LYS d   1      31.687  33.052  40.340  0.00  0.00    -0.061 C 
ATOM     55  H29 LYS d   1      31.391  31.993  40.362  0.00  0.00     0.033 H 
ATOM     56  H30 LYS d   1      32.344  33.267  41.195  0.00  0.00     0.033 H 
BRANCH  54  57
ATOM     57  CD  LYS d   1      32.443  33.323  39.060  0.00  0.00    -0.043 C 
ATOM     58  H31 LYS d   1      32.957  34.293  39.134  0.00  0.00     0.035 H 
ATOM     59  H32 LYS d   1      31.740  33.344  38.214  0.00  0.00     0.035 H 
BRANCH  57  60
ATOM     60  CE  LYS d   1      33.458  32.229  38.845  0.00  0.00     0.080 C 
ATOM     61  H33 LYS d   1      34.389  32.660  38.447  0.00  0.00     0.075 H 
ATOM     62  H34 LYS d   1      33.062  31.491  38.132  0.00  0.00     0.075 H 
BRANCH  60  63
ATOM     63  NZ  LYS d   1      33.729  31.570  40.149  0.00  0.00    -0.079 N 
ATOM     64  H35 LYS d   1      34.407  30.835  40.020  0.00  0.00     0.274 HD
ATOM     65  H36 LYS d   1      32.874  31.178  40.511  0.00  0.00     0.274 HD
ATOM     66  H37 LYS d   1      34.090  32.249  40.800  0.00  0.00     0.274 HD
ENDBRANCH  60  63
ENDBRANCH  57  60
ENDBRANCH  54  57
ENDBRANCH  51  54
ENDBRANCH   7  51
ENDBRANCH   4   7
ENDBRANCH   1   3
BRANCH   1  67
ATOM     67  C   GLU d   1      34.472  34.538  43.444  0.00  0.00     0.243 C 
ATOM     68  O   GLU d   1      34.447  33.375  43.851  0.00  0.00    -0.271 OA
ATOM     69  N   PRO d   1      35.594  35.108  42.960  0.00  0.00    -0.337 N 
ATOM     70  CA  PRO d   1      35.821  36.456  42.420  0.00  0.00     0.091 C 
ATOM     71  CD  PRO d   1      36.870  34.420  43.198  0.00  0.00    -0.001 C 
ATOM     72  CB  PRO d   1      37.243  36.785  42.905  0.00  0.00    -0.036 C 
ATOM     73  H44 PRO d   1      35.083  37.163  42.827  0.00  0.00     0.087 H 
ATOM     74  CG  PRO d   1      37.742  35.537  43.650  0.00  0.00    -0.048 C 
ATOM     75  H45 PRO d   1      37.224  37.651  43.583  0.00  0.00     0.036 H 
ATOM     76  H46 PRO d   1      37.897  37.004  42.048  0.00  0.00     0.036 H 
ATOM     77  H47 PRO d   1      37.651  35.678  44.737  0.00  0.00     0.035 H 
ATOM     78  H48 PRO d   1      38.792  35.332  43.393  0.00  0.00     0.035 H 
ATOM     79  H49 PRO d   1      37.255  33.960  42.276  0.00  0.00     0.064 H 
ATOM     80  H50 PRO d   1      36.770  33.650  43.977  0.00  0.00     0.064 H 
BRANCH  70  81
ATOM     81  C   PRO d   1      35.793  36.521  40.886  0.00  0.00     0.241 C 
ATOM     82  O   PRO d   1      36.271  35.604  40.221  0.00  0.00    -0.271 OA
ATOM     83  N   VAL d   1      35.266  37.611  40.333  0.00  0.00    -0.346 N 
ATOM     84  H51 VAL d   1      34.917  38.336  40.926  0.00  0.00     0.163 HD
BRANCH  83  85
ATOM     85  CA  VAL d   1      35.182  37.779  38.880  0.00  0.00     0.092 C 
ATOM     86  H52 VAL d   1      34.867  36.818  38.447  0.00  0.00     0.088 H 
BRANCH  85  87
ATOM     87  C   VAL d   1      36.531  38.164  38.262  0.00  0.00     0.241 C 
ATOM     88  O   VAL d   1      37.361  38.793  38.919  0.00  0.00    -0.271 OA
ATOM     89  N   HIS d   1      36.738  37.791  36.999  0.00  0.00    -0.346 N 
ATOM     90  H60 HIS d   1      36.006  37.318  36.509  0.00  0.00     0.163 HD
BRANCH  89  91
ATOM     91  CA  HIS d   1      38.003  38.050  36.304  0.00  0.00     0.094 C 
ATOM     92  H61 HIS d   1      38.670  38.547  37.024  0.00  0.00     0.088 H 
BRANCH  91  93
ATOM     93  C   HIS d   1      37.876  38.972  35.090  0.00  0.00     0.241 C 
ATOM     94  O   HIS d   1      36.945  38.847  34.290  0.00  0.00    -0.271 OA
ATOM     95  N   GLY d   1      38.835  39.884  34.950  0.00  0.00    -0.351 N 
ATOM     96  H67 GLY d   1      39.584  39.904  35.612  0.00  0.00     0.163 HD
BRANCH  95  97
ATOM     97  CA  GLY d   1      38.827  40.851  33.866  0.00  0.00     0.069 C 
ATOM     98  H68 GLY d   1      39.576  41.626  34.086  0.00  0.00     0.078 H 
ATOM     99  H69 GLY d   1      37.828  41.309  33.816  0.00  0.00     0.078 H 
BRANCH  97 100
ATOM    100  C   GLY d   1      39.146  40.245  32.513  0.00  0.00     0.236 C 
ATOM    101  O   GLY d   1      39.885  39.264  32.422  0.00  0.00    -0.272 OA
ATOM    102  N   VAL d   1      38.588  40.834  31.458  0.00  0.00    -0.345 N 
ATOM    103  H70 VAL d   1      37.992  41.624  31.601  0.00  0.00     0.163 HD
BRANCH 102 104
ATOM    104  CA  VAL d   1      38.822  40.359  30.098  0.00  0.00     0.099 C 
ATOM    105  H71 VAL d   1      38.848  39.260  30.128  0.00  0.00     0.090 H 
BRANCH 104 106
ATOM    106  C   VAL d   1      40.158  40.855  29.542  0.00  0.00     0.197 C 
ATOM    107  O   VAL d   1      40.793  41.753  30.095  0.00  0.00    -0.646 OA
ATOM    108  OXT VAL d   1      40.640  40.368  28.517  0.00  0.00    -0.646 OA
ENDBRANCH 104 106
BRANCH 104 109
ATOM    109  CB  VAL d   1      37.689  40.791  29.140  0.00  0.00    -0.032 C 
ATOM    110  H72 VAL d   1      37.717  40.142  28.252  0.00  0.00     0.042 H 
BRANCH 109 111
ATOM    111  CG1 VAL d   1      36.336  40.625  29.813  0.00  0.00    -0.071 C 
ATOM    112  H73 VAL d   1      35.541  40.936  29.119  0.00  0.00     0.028 H 
ATOM    113  H74 VAL d   1      36.298  41.249  30.718  0.00  0.00     0.028 H 
ATOM    114  H75 VAL d   1      36.190  39.570  30.088  0.00  0.00     0.028 H 
ENDBRANCH 109 111
BRANCH 109 115
ATOM    115  CG2 VAL d   1      37.893  42.227  28.690  0.00  0.00    -0.071 C 
ATOM    116  H76 VAL d   1      38.876  42.324  28.207  0.00  0.00     0.028 H 
ATOM    117  H77 VAL d   1      37.846  42.895  29.563  0.00  0.00     0.028 H 
ATOM    118  H78 VAL d   1      37.104  42.503  27.974  0.00  0.00     0.028 H 
ENDBRANCH 109 115
ENDBRANCH 104 109
ENDBRANCH 102 104
ENDBRANCH  97 100
ENDBRANCH  95  97
ENDBRANCH  91  93
BRANCH  91 119
ATOM    119  CB  HIS d   1      38.663  36.739  35.876  0.00  0.00     0.004 C 
ATOM    120  H62 HIS d   1      39.037  36.858  34.848  0.00  0.00     0.046 H 
ATOM    121  H63 HIS d   1      37.903  35.944  35.900  0.00  0.00     0.046 H 
BRANCH 119 122
ATOM    122  CG  HIS d   1      39.806  36.325  36.749  0.00  0.00     0.053 A 
ATOM    123  ND1 HIS d   1      41.104  36.720  36.509  0.00  0.00    -0.247 NA
ATOM    124  CE1 HIS d   1      41.897  36.208  37.434  0.00  0.00     0.064 A 
ATOM    125  NE2 HIS d   1      41.159  35.494  38.265  0.00  0.00    -0.359 N 
ATOM    126  H65 HIS d   1      42.975  36.350  37.500  0.00  0.00     0.143 H 
ATOM    127  CD2 HIS d   1      39.848  35.549  37.859  0.00  0.00     0.002 A 
ATOM    128  H66 HIS d   1      41.510  34.979  39.085  0.00  0.00     0.166 HD
ATOM    129  H64 HIS d   1      39.001  35.061  38.339  0.00  0.00     0.114 H 
ENDBRANCH 119 122
ENDBRANCH  91 119
ENDBRANCH  89  91
ENDBRANCH  85  87
BRANCH  85 130
ATOM    130  CB  VAL d   1      34.138  38.848  38.508  0.00  0.00    -0.033 C 
ATOM    131  H53 VAL d   1      34.574  39.841  38.695  0.00  0.00     0.042 H 
BRANCH 130 132
ATOM    132  CG1 VAL d   1      33.778  38.752  37.032  0.00  0.00    -0.071 C 
ATOM    133  H54 VAL d   1      33.032  39.522  36.786  0.00  0.00     0.028 H 
ATOM    134  H55 VAL d   1      33.361  37.757  36.820  0.00  0.00     0.028 H 
ATOM    135  H56 VAL d   1      34.681  38.908  36.423  0.00  0.00     0.028 H 
ENDBRANCH 130 132
BRANCH 130 136
ATOM    136  CG2 VAL d   1      32.900  38.696  39.374  0.00  0.00    -0.071 C 
ATOM    137  H57 VAL d   1      33.183  38.769  40.434  0.00  0.00     0.028 H 
ATOM    138  H58 VAL d   1      32.438  37.716  39.184  0.00  0.00     0.028 H 
ATOM    139  H59 VAL d   1      32.182  39.493  39.131  0.00  0.00     0.028 H 
ENDBRANCH 130 136
ENDBRANCH  85 130
ENDBRANCH  83  85
ENDBRANCH  70  81
ENDBRANCH   1  67
BRANCH   1 140
ATOM    140  CB  GLU d   1      32.981  35.970  44.875  0.00  0.00    -0.029 C 
ATOM    141  H40 GLU d   1      32.042  36.542  44.862  0.00  0.00     0.037 H 
ATOM    142  H41 GLU d   1      33.819  36.647  45.097  0.00  0.00     0.037 H 
BRANCH 140 143
ATOM    143  CG  GLU d   1      32.893  34.944  45.999  0.00  0.00     0.018 C 
ATOM    144  H42 GLU d   1      33.594  34.124  45.784  0.00  0.00     0.049 H 
ATOM    145  H43 GLU d   1      31.867  34.549  46.037  0.00  0.00     0.049 H 
BRANCH 143 146
ATOM    146  CD  GLU d   1      33.238  35.539  47.356  0.00  0.00     0.172 C 
ATOM    147  OE1 GLU d   1      32.528  35.237  48.341  0.00  0.00    -0.648 OA
ATOM    148  OE2 GLU d   1      34.217  36.313  47.437  0.00  0.00    -0.648 OA
ENDBRANCH 143 146
ENDBRANCH 140 143
ENDBRANCH   1 140
TORSDOF 41
