REMARK  30 active torsions:
REMARK  status: ('A' for Active; 'I' for Inactive)
REMARK    1  A    between atoms: CBV_1  and  CBU_2 
REMARK       I    between atoms: CBU_2  and  NBT_4 
REMARK    2  A    between atoms: NBT_4  and  CBS_5 
REMARK    3  A    between atoms: CBQ_6  and  OBR_7 
REMARK    4  A    between atoms: CBO_8  and  OBP_9 
REMARK    5  A    between atoms: CBL_10  and  CBM_11 
REMARK    6  A    between atoms: CBM_11  and  OBN_12 
REMARK    7  A    between atoms: CBJ_14  and  OBI_15 
REMARK    8  A    between atoms: OBI_15  and  CAA_16 
REMARK       I    between atoms: CAA_16  and  NAC_18 
REMARK    9  A    between atoms: NAC_18  and  CAD_19 
REMARK   10  A    between atoms: CAD_19  and  CAE_20 
REMARK   11  A    between atoms: CAE_20  and  CAF_21 
REMARK   12  A    between atoms: CAF_21  and  OAG_22 
REMARK   13  A    between atoms: OAG_22  and  CAH_23 
REMARK   14  A    between atoms: CAH_23  and  CAI_24 
REMARK   15  A    between atoms: CAI_24  and  OAJ_25 
REMARK   16  A    between atoms: OAJ_25  and  CAK_26 
REMARK   17  A    between atoms: CAK_26  and  CAL_27 
REMARK   18  A    between atoms: CAL_27  and  OAM_28 
REMARK   19  A    between atoms: OAM_28  and  CAN_29 
REMARK   20  A    between atoms: CAN_29  and  CAO_30 
REMARK   21  A    between atoms: CAO_30  and  CAP_31 
REMARK   22  A    between atoms: CAP_31  and  NAQ_32 
REMARK       I    between atoms: NAQ_32  and  CAR_33 
REMARK   23  A    between atoms: CAR_33  and  O1_35 
REMARK   24  A    between atoms: O1_35  and  C1_36 
REMARK   25  A    between atoms: C5_38  and  C6_39 
REMARK   26  A    between atoms: C6_39  and  O6_40 
REMARK   27  A    between atoms: C4_41  and  O4_42 
REMARK   28  A    between atoms: C3_43  and  O3_44 
REMARK   29  A    between atoms: C2_45  and  N2_46 
REMARK       I    between atoms: N2_46  and  CAX_47 
REMARK   30  A    between atoms: CAX_47  and  CAZ_48 
ROOT
ATOM      1  OAJ GYT d   1      30.105  42.100  14.922  0.00  0.00    -0.387 OA
ENDROOT
BRANCH   1   2
ATOM      2  CAI GYT d   1      31.484  42.170  14.564  0.00  0.00     0.039 C 
ATOM      3  H   GYT d   1      31.652  43.043  13.934  0.00  0.00     0.077 H 
ATOM      4  H   GYT d   1      32.090  42.252  15.466  0.00  0.00     0.077 H 
BRANCH   2   5
ATOM      5  CAH GYT d   1      31.871  40.918  13.807  0.00  0.00     0.039 C 
ATOM      6  H   GYT d   1      31.879  40.075  14.498  0.00  0.00     0.077 H 
ATOM      7  H   GYT d   1      31.149  40.751  13.008  0.00  0.00     0.077 H 
BRANCH   5   8
ATOM      8  OAG GYT d   1      33.173  41.060  13.234  0.00  0.00    -0.389 OA
BRANCH   8   9
ATOM      9  CAF GYT d   1      33.080  41.463  11.861  0.00  0.00     0.021 C 
ATOM     10  H   GYT d   1      32.883  40.597  11.229  0.00  0.00     0.074 H 
ATOM     11  H   GYT d   1      32.261  42.171  11.733  0.00  0.00     0.074 H 
BRANCH   9  12
ATOM     12  CAE GYT d   1      34.409  42.116  11.462  0.00  0.00    -0.030 C 
ATOM     13  H   GYT d   1      34.388  43.160  11.776  0.00  0.00     0.038 H 
ATOM     14  H   GYT d   1      35.220  41.568  11.942  0.00  0.00     0.038 H 
BRANCH  12  15
ATOM     15  CAD GYT d   1      34.626  42.072   9.953  0.00  0.00    -0.001 C 
ATOM     16  H   GYT d   1      33.732  42.424   9.437  0.00  0.00     0.064 H 
ATOM     17  H   GYT d   1      35.459  42.718   9.677  0.00  0.00     0.064 H 
BRANCH  15  18
ATOM     18  NAC GYT d   1      34.915  40.691   9.568  0.00  0.00    -0.337 N 
ATOM     19  CAA GYT d   1      35.624  40.370   8.492  0.00  0.00     0.362 C 
ATOM     20  OAB GYT d   1      36.150  41.195   7.749  0.00  0.00    -0.238 OA
ATOM     21  H   GYT d   1      34.555  39.938  10.154  0.00  0.00     0.164 HD
BRANCH  19  22
ATOM     22  OBI GYT d   1      35.756  39.050   8.225  0.00  0.00    -0.270 OA
BRANCH  22  23
ATOM     23  CBJ GYT d   1      36.524  38.793   7.064  0.00  0.00     0.164 C 
ATOM     24  CBS GYT d   1      36.003  37.453   6.543  0.00  0.00     0.087 C 
ATOM     25  CBQ GYT d   1      36.161  36.382   7.617  0.00  0.00     0.086 C 
ATOM     26  H   GYT d   1      36.569  37.174   5.654  0.00  0.00     0.084 H 
ATOM     27  CBO GYT d   1      37.590  36.363   8.147  0.00  0.00     0.089 C 
ATOM     28  H   GYT d   1      35.482  36.619   8.437  0.00  0.00     0.090 H 
ATOM     29  CBL GYT d   1      38.028  37.768   8.566  0.00  0.00     0.089 C 
ATOM     30  H   GYT d   1      38.261  36.021   7.359  0.00  0.00     0.091 H 
ATOM     31  OBK GYT d   1      37.895  38.670   7.461  0.00  0.00    -0.348 OA
ATOM     32  H   GYT d   1      37.391  38.103   9.385  0.00  0.00     0.090 H 
ATOM     33  H   GYT d   1      36.450  39.574   6.307  0.00  0.00     0.133 H 
BRANCH  24  34
ATOM     34  NBT GYT d   1      34.578  37.580   6.228  0.00  0.00    -0.349 N 
ATOM     35  CBU GYT d   1      34.104  37.356   5.006  0.00  0.00     0.214 C 
ATOM     36  OBW GYT d   1      34.799  37.030   4.051  0.00  0.00    -0.274 OA
ATOM     37  H   GYT d   1      33.930  37.848   6.968  0.00  0.00     0.163 HD
BRANCH  35  38
ATOM     38  CBV GYT d   1      32.594  37.534   4.857  0.00  0.00    -0.003 C 
ATOM     39  H   GYT d   1      32.392  38.311   4.119  0.00  0.00     0.040 H 
ATOM     40  H   GYT d   1      32.149  36.595   4.529  0.00  0.00     0.040 H 
ATOM     41  H   GYT d   1      32.167  37.823   5.817  0.00  0.00     0.040 H 
ENDBRANCH  35  38
ENDBRANCH  24  34
BRANCH  25  42
ATOM     42  OBR GYT d   1      35.830  35.103   7.092  0.00  0.00    -0.391 OA
ATOM     43  H   GYT d   1      35.934  34.440   7.778  0.00  0.00     0.210 HD
ENDBRANCH  25  42
BRANCH  27  44
ATOM     44  OBP GYT d   1      37.661  35.474   9.256  0.00  0.00    -0.390 OA
ATOM     45  H   GYT d   1      37.064  35.775   9.945  0.00  0.00     0.210 HD
ENDBRANCH  27  44
BRANCH  29  46
ATOM     46  CBM GYT d   1      39.478  37.750   9.040  0.00  0.00     0.043 C 
ATOM     47  H   GYT d   1      39.573  37.064   9.882  0.00  0.00     0.078 H 
ATOM     48  H   GYT d   1      39.769  38.755   9.347  0.00  0.00     0.078 H 
BRANCH  46  49
ATOM     49  OBN GYT d   1      40.328  37.316   7.980  0.00  0.00    -0.398 OA
ATOM     50  H   GYT d   1      40.244  37.918   7.237  0.00  0.00     0.209 HD
ENDBRANCH  46  49
ENDBRANCH  29  46
ENDBRANCH  22  23
ENDBRANCH  19  22
ENDBRANCH  15  18
ENDBRANCH  12  15
ENDBRANCH   9  12
ENDBRANCH   8   9
ENDBRANCH   5   8
ENDBRANCH   2   5
ENDBRANCH   1   2
BRANCH   1  51
ATOM     51  CAK GYT d   1      29.690  43.330  15.519  0.00  0.00     0.039 C 
ATOM     52  H   GYT d   1      30.576  43.907  15.784  0.00  0.00     0.077 H 
ATOM     53  H   GYT d   1      29.092  43.106  16.402  0.00  0.00     0.077 H 
BRANCH  51  54
ATOM     54  CAL GYT d   1      28.847  44.146  14.553  0.00  0.00     0.039 C 
ATOM     55  H   GYT d   1      29.377  44.221  13.604  0.00  0.00     0.077 H 
ATOM     56  H   GYT d   1      28.677  45.133  14.984  0.00  0.00     0.077 H 
BRANCH  54  57
ATOM     57  OAM GYT d   1      27.576  43.519  14.323  0.00  0.00    -0.389 OA
BRANCH  57  58
ATOM     58  CAN GYT d   1      27.386  43.331  12.919  0.00  0.00     0.021 C 
ATOM     59  H   GYT d   1      26.768  42.447  12.762  0.00  0.00     0.074 H 
ATOM     60  H   GYT d   1      28.360  43.208  12.444  0.00  0.00     0.074 H 
BRANCH  58  61
ATOM     61  CAO GYT d   1      26.684  44.542  12.303  0.00  0.00    -0.030 C 
ATOM     62  H   GYT d   1      27.235  44.852  11.415  0.00  0.00     0.038 H 
ATOM     63  H   GYT d   1      26.653  45.342  13.042  0.00  0.00     0.038 H 
BRANCH  61  64
ATOM     64  CAP GYT d   1      25.252  44.195  11.895  0.00  0.00    -0.001 C 
ATOM     65  H   GYT d   1      24.844  44.999  11.283  0.00  0.00     0.064 H 
ATOM     66  H   GYT d   1      24.640  44.071  12.789  0.00  0.00     0.064 H 
BRANCH  64  67
ATOM     67  NAQ GYT d   1      25.250  42.945  11.124  0.00  0.00    -0.337 N 
ATOM     68  CAR GYT d   1      24.440  42.056  11.693  0.00  0.00     0.362 C 
ATOM     69  OAS GYT d   1      23.962  42.168  12.799  0.00  0.00    -0.238 OA
ATOM     70  H   GYT d   1      25.791  42.782  10.275  0.00  0.00     0.164 HD
BRANCH  68  71
ATOM     71  O1  GYT d   1      24.255  40.982  10.770  0.00  0.00    -0.270 OA
BRANCH  71  72
ATOM     72  C1  GYT d   1      23.399  39.981  11.297  0.00  0.00     0.164 C 
ATOM     73  O5  GYT d   1      22.022  40.327  11.081  0.00  0.00    -0.348 OA
ATOM     74  C5  GYT d   1      21.719  40.513   9.695  0.00  0.00     0.089 C 
ATOM     75  C4  GYT d   1      22.007  39.239   8.898  0.00  0.00     0.089 C 
ATOM     76  H   GYT d   1      22.359  41.298   9.291  0.00  0.00     0.090 H 
ATOM     77  C3  GYT d   1      23.466  38.834   9.086  0.00  0.00     0.086 C 
ATOM     78  H   GYT d   1      21.361  38.440   9.260  0.00  0.00     0.091 H 
ATOM     79  C2  GYT d   1      23.762  38.693  10.569  0.00  0.00     0.087 C 
ATOM     80  H   GYT d   1      24.105  39.606   8.656  0.00  0.00     0.090 H 
ATOM     81  H   GYT d   1      23.175  37.871  10.979  0.00  0.00     0.084 H 
ATOM     82  H   GYT d   1      23.525  39.872  12.374  0.00  0.00     0.133 H 
BRANCH  74  83
ATOM     83  C6  GYT d   1      20.259  40.945   9.545  0.00  0.00     0.043 C 
ATOM     84  H   GYT d   1      19.612  40.219  10.038  0.00  0.00     0.078 H 
ATOM     85  H   GYT d   1      20.002  40.999   8.487  0.00  0.00     0.078 H 
BRANCH  83  86
ATOM     86  O6  GYT d   1      20.080  42.227  10.144  0.00  0.00    -0.398 OA
ATOM     87  H   GYT d   1      20.306  42.178  11.076  0.00  0.00     0.209 HD
ENDBRANCH  83  86
ENDBRANCH  74  83
BRANCH  75  88
ATOM     88  O4  GYT d   1      21.743  39.459   7.512  0.00  0.00    -0.390 OA
ATOM     89  H   GYT d   1      22.304  40.168   7.189  0.00  0.00     0.210 HD
ENDBRANCH  75  88
BRANCH  77  90
ATOM     90  O3  GYT d   1      23.738  37.604   8.417  0.00  0.00    -0.391 OA
ATOM     91  H   GYT d   1      24.659  37.367   8.547  0.00  0.00     0.210 HD
ENDBRANCH  77  90
BRANCH  79  92
ATOM     92  N2  GYT d   1      25.192  38.433  10.744  0.00  0.00    -0.349 N 
ATOM     93  CAX GYT d   1      25.379  37.648  11.801  0.00  0.00     0.214 C 
ATOM     94  OAY GYT d   1      24.484  37.219  12.508  0.00  0.00    -0.274 OA
ATOM     95  H   GYT d   1      25.933  38.799  10.146  0.00  0.00     0.163 HD
BRANCH  93  96
ATOM     96  CAZ GYT d   1      26.874  37.383  11.974  0.00  0.00    -0.003 C 
ATOM     97  H   GYT d   1      27.196  37.749  12.949  0.00  0.00     0.040 H 
ATOM     98  H   GYT d   1      27.062  36.311  11.907  0.00  0.00     0.040 H 
ATOM     99  H   GYT d   1      27.427  37.900  11.190  0.00  0.00     0.040 H 
ENDBRANCH  93  96
ENDBRANCH  79  92
ENDBRANCH  71  72
ENDBRANCH  68  71
ENDBRANCH  64  67
ENDBRANCH  61  64
ENDBRANCH  58  61
ENDBRANCH  57  58
ENDBRANCH  54  57
ENDBRANCH  51  54
ENDBRANCH   1  51
TORSDOF 30
