REMARK  11 active torsions:
REMARK  status: ('A' for Active; 'I' for Inactive)
REMARK    1  A    between atoms: CG_4  and  CD_2 
REMARK    2  A    between atoms: CB_5  and  CG_4 
REMARK    3  A    between atoms: CA_31  and  CB_5 
REMARK    4  A    between atoms: CA_31  and  C_6 
REMARK       I    between atoms: N_9  and  CAU_10 
REMARK    5  A    between atoms: N_9  and  CA_31 
REMARK    6  A    between atoms: CAU_10  and  CAT_12 
REMARK    7  A    between atoms: CAO_17  and  CAN_18 
REMARK    8  A    between atoms: CAN_18  and  NAY_19 
REMARK    9  A    between atoms: NAY_19  and  CAA_20 
REMARK   10  A    between atoms: CAF_25  and  CAH_26 
REMARK   11  A    between atoms: CAH_26  and  CAI_27 
ROOT
ATOM      1  CAT VSV d   1     -11.482  29.028  19.499  0.00  0.00     0.032 A 
ATOM      2  CAQ VSV d   1     -11.451  30.329  18.949  0.00  0.00    -0.060 A 
ATOM      3  CAS VSV d   1     -12.558  28.181  19.284  0.00  0.00    -0.068 A 
ATOM      4  CAR VSV d   1     -13.615  28.607  18.512  0.00  0.00    -0.081 A 
ATOM      5  CAP VSV d   1     -13.608  29.853  17.954  0.00  0.00    -0.075 A 
ATOM      6  CAO VSV d   1     -12.553  30.726  18.163  0.00  0.00    -0.040 A 
ATOM      7  H6  VSV d   1     -10.614  30.995  19.124  0.00  0.00     0.086 H 
ATOM      8  H7  VSV d   1     -12.567  27.189  19.721  0.00  0.00     0.085 H 
ATOM      9  H8  VSV d   1     -14.460  27.948  18.346  0.00  0.00     0.083 H 
ATOM     10  H9  VSV d   1     -14.443  30.165  17.337  0.00  0.00     0.084 H 
ENDROOT
BRANCH   6  11
ATOM     11  CAN VSV d   1     -12.556  32.047  17.400  0.00  0.00     0.016 C 
ATOM     12  H10 VSV d   1     -12.233  31.852  16.367  0.00  0.00     0.071 H 
ATOM     13  H11 VSV d   1     -11.842  32.729  17.885  0.00  0.00     0.071 H 
BRANCH  11  14
ATOM     14  NAY VSV d   1     -13.792  32.666  17.360  0.00  0.00    -0.386 N 
ATOM     15  H12 VSV d   1     -14.241  32.801  16.443  0.00  0.00     0.160 HD
BRANCH  14  16
ATOM     16  CAA VSV d   1     -14.448  33.107  18.473  0.00  0.00     0.028 A 
ATOM     17  CAC VSV d   1     -13.923  32.945  19.765  0.00  0.00    -0.057 A 
ATOM     18  CAE VSV d   1     -14.643  33.293  20.903  0.00  0.00    -0.071 A 
ATOM     19  H13 VSV d   1     -12.926  32.536  19.879  0.00  0.00     0.086 H 
ATOM     20  CAF VSV d   1     -15.933  33.837  20.743  0.00  0.00    -0.035 A 
ATOM     21  H14 VSV d   1     -14.221  33.149  21.891  0.00  0.00     0.084 H 
ATOM     22  CAG VSV d   1     -16.443  34.072  19.468  0.00  0.00    -0.071 A 
ATOM     23  CAB VSV d   1     -15.712  33.704  18.331  0.00  0.00    -0.057 A 
ATOM     24  H16 VSV d   1     -17.413  34.543  19.355  0.00  0.00     0.084 H 
ATOM     25  H15 VSV d   1     -16.121  33.880  17.343  0.00  0.00     0.086 H 
BRANCH  20  26
ATOM     26  CAH VSV d   1     -16.690  34.148  22.008  0.00  0.00    -0.051 C 
ATOM     27  H17 VSV d   1     -16.074  34.181  22.905  0.00  0.00     0.087 H 
BRANCH  26  28
ATOM     28  CAI VSV d   1     -18.023  34.397  22.225  0.00  0.00     0.079 A 
ATOM     29  SBG VSV d   1     -19.305  34.513  21.035  0.00  0.00    -0.024 SA
ATOM     30  CAL VSV d   1     -20.464  34.844  22.292  0.00  0.00     0.291 A 
ATOM     31  NAX VSV d   1     -20.011  34.772  23.605  0.00  0.00    -0.283 N 
ATOM     32  OBH VSV d   1     -21.653  35.006  22.082  0.00  0.00    -0.260 OA
ATOM     33  CAK VSV d   1     -18.629  34.513  23.539  0.00  0.00     0.266 A 
ATOM     34  H18 VSV d   1     -20.560  34.883  24.434  0.00  0.00     0.172 HD
ATOM     35  OBE VSV d   1     -17.927  34.501  24.541  0.00  0.00    -0.267 OA
ENDBRANCH  26  28
ENDBRANCH  20  26
ENDBRANCH  14  16
ENDBRANCH  11  14
ENDBRANCH   6  11
BRANCH   1  36
ATOM     36  CAU VSV d   1     -10.390  28.622  20.410  0.00  0.00     0.252 C 
ATOM     37  N   VSV d   1      -9.142  29.231  20.048  0.00  0.00    -0.342 N 
ATOM     38  H5  VSV d   1      -9.028  29.696  19.170  0.00  0.00     0.163 HD
ATOM     39  OBC VSV d   1     -10.488  27.783  21.311  0.00  0.00    -0.268 OA
BRANCH  37  40
ATOM     40  CA  VSV d   1      -8.057  29.147  20.998  0.00  0.00     0.097 C 
ATOM     41  H19 VSV d   1      -8.408  29.379  22.014  0.00  0.00     0.089 H 
BRANCH  40  42
ATOM     42  CB  VSV d   1      -7.032  30.201  20.531  0.00  0.00    -0.028 C 
ATOM     43  H3  VSV d   1      -6.465  29.823  19.667  0.00  0.00     0.037 H 
ATOM     44  H4  VSV d   1      -7.546  31.133  20.253  0.00  0.00     0.037 H 
BRANCH  42  45
ATOM     45  CG  VSV d   1      -6.122  30.440  21.674  0.00  0.00     0.018 C 
ATOM     46  H1  VSV d   1      -6.712  30.766  22.544  0.00  0.00     0.049 H 
ATOM     47  H2  VSV d   1      -5.595  29.506  21.918  0.00  0.00     0.049 H 
BRANCH  45  48
ATOM     48  CD  VSV d   1      -5.138  31.477  21.343  0.00  0.00     0.172 C 
ATOM     49  OE1 VSV d   1      -5.256  32.276  20.357  0.00  0.00    -0.648 OA
ATOM     50  OE2 VSV d   1      -4.240  31.558  22.210  0.00  0.00    -0.648 OA
ENDBRANCH  45  48
ENDBRANCH  42  45
ENDBRANCH  40  42
BRANCH  40  51
ATOM     51  C   VSV d   1      -7.469  27.733  20.971  0.00  0.00     0.196 C 
ATOM     52  OXT VSV d   1      -7.378  27.000  19.966  0.00  0.00    -0.646 OA
ATOM     53  O   VSV d   1      -7.216  27.266  22.108  0.00  0.00    -0.646 OA
ENDBRANCH  40  51
ENDBRANCH  37  40
ENDBRANCH   1  36
TORSDOF 11
