REMARK  6 active torsions:
REMARK  status: ('A' for Active; 'I' for Inactive)
REMARK    1  A    between atoms: NBI_6  and  CAT_7 
REMARK    2  A    between atoms: CAT_7  and  CBB_8 
REMARK    3  A    between atoms: CBD_13  and  CBE_14 
REMARK    4  A    between atoms: CBF_23  and  NBK_24 
REMARK    5  A    between atoms: NBJ_29  and  CAU_30 
REMARK    6  A    between atoms: CAU_30  and  CBA_31 
ROOT
ATOM      1  CBE X6D d   1      -1.488  32.515  80.321  0.00  0.00     0.140 A 
ATOM      2  NAX X6D d   1      -1.403  32.624  79.003  0.00  0.00    -0.323 N 
ATOM      3  NAW X6D d   1      -2.195  31.421  80.581  0.00  0.00    -0.225 NA
ATOM      4  CBH X6D d   1      -2.560  30.825  79.465  0.00  0.00     0.127 A 
ATOM      5  CBG X6D d   1      -2.068  31.628  78.439  0.00  0.00     0.160 A 
ATOM      6  NAV X6D d   1      -2.281  31.331  77.149  0.00  0.00    -0.239 NA
ATOM      7  CAK X6D d   1      -2.977  30.245  76.841  0.00  0.00     0.023 A 
ATOM      8  CBC X6D d   1      -3.539  29.399  77.814  0.00  0.00     0.052 A 
ATOM      9 BR   X6D d   1      -4.455  27.896  77.120  0.00  0.00    -0.048 Br
ATOM     10  CBF X6D d   1      -3.324  29.682  79.168  0.00  0.00     0.062 A 
ATOM     11  H   X6D d   1      -0.904  33.359  78.502  0.00  0.00     0.169 HD
ATOM     12  H   X6D d   1      -3.120  29.997  75.789  0.00  0.00     0.117 H 
ENDROOT
BRANCH  10  13
ATOM     13  NBK X6D d   1      -3.865  28.930  80.291  0.00  0.00    -0.277 NA
ATOM     14  CAR X6D d   1      -5.205  28.761  80.421  0.00  0.00     0.009 C 
ATOM     15  CAP X6D d   1      -5.840  27.663  81.261  0.00  0.00     0.125 C 
ATOM     16  H   X6D d   1      -5.516  28.503  79.409  0.00  0.00     0.059 H 
ATOM     17  H   X6D d   1      -5.515  29.670  80.936  0.00  0.00     0.059 H 
ATOM     18  NBJ X6D d   1      -5.344  27.784  82.675  0.00  0.00     0.095 N 
ATOM     19  H   X6D d   1      -5.569  26.687  80.858  0.00  0.00     0.081 H 
ATOM     20  H   X6D d   1      -6.925  27.764  81.241  0.00  0.00     0.081 H 
ATOM     21  CAQ X6D d   1      -4.870  29.178  82.726  0.00  0.00     0.125 C 
ATOM     22  CAS X6D d   1      -3.580  29.263  81.737  0.00  0.00     0.009 C 
ATOM     23  H   X6D d   1      -5.652  29.868  82.409  0.00  0.00     0.081 H 
ATOM     24  H   X6D d   1      -4.601  29.462  83.743  0.00  0.00     0.081 H 
ATOM     25  H   X6D d   1      -3.232  30.296  81.761  0.00  0.00     0.059 H 
ATOM     26  H   X6D d   1      -2.859  28.528  82.094  0.00  0.00     0.059 H 
BRANCH  18  27
ATOM     27  CAU X6D d   1      -6.309  26.768  83.174  0.00  0.00     0.137 C 
ATOM     28  H   X6D d   1      -7.270  27.032  82.732  0.00  0.00     0.087 H 
ATOM     29  H   X6D d   1      -6.233  26.798  84.261  0.00  0.00     0.087 H 
BRANCH  27  30
ATOM     30  CBA X6D d   1      -6.059  25.309  82.782  0.00  0.00    -0.030 A 
ATOM     31  CAE X6D d   1      -6.886  24.631  81.846  0.00  0.00    -0.074 A 
ATOM     32  CAC X6D d   1      -6.584  23.304  81.567  0.00  0.00    -0.061 A 
ATOM     33  H   X6D d   1      -7.726  25.133  81.365  0.00  0.00     0.084 H 
ATOM     34  CAZ X6D d   1      -5.534  22.648  82.212  0.00  0.00     0.034 A 
ATOM     35  H   X6D d   1      -7.179  22.764  80.830  0.00  0.00     0.086 H 
ATOM     36 CL   X6D d   1      -5.197  21.015  81.810  0.00  0.00    -0.084 Cl
ATOM     37  CAD X6D d   1      -4.745  23.321  83.142  0.00  0.00    -0.061 A 
ATOM     38  CAF X6D d   1      -5.012  24.655  83.438  0.00  0.00    -0.074 A 
ATOM     39  H   X6D d   1      -3.922  22.805  83.636  0.00  0.00     0.086 H 
ATOM     40  H   X6D d   1      -4.409  25.185  84.175  0.00  0.00     0.084 H 
ENDBRANCH  27  30
ENDBRANCH  18  27
ENDBRANCH  10  13
BRANCH   1  41
ATOM     41  CBD X6D d   1      -0.905  33.310  81.301  0.00  0.00     0.010 A 
ATOM     42  CAI X6D d   1      -1.163  32.966  82.613  0.00  0.00    -0.069 A 
ATOM     43  CAG X6D d   1      -0.549  33.641  83.642  0.00  0.00    -0.074 A 
ATOM     44  H   X6D d   1      -1.857  32.155  82.834  0.00  0.00     0.085 H 
ATOM     45  CBB X6D d   1       0.344  34.634  83.345  0.00  0.00    -0.030 A 
ATOM     46  H   X6D d   1      -0.771  33.389  84.679  0.00  0.00     0.084 H 
ATOM     47  CAH X6D d   1       0.657  34.942  82.025  0.00  0.00    -0.074 A 
ATOM     48  CAJ X6D d   1       0.048  34.260  80.996  0.00  0.00    -0.069 A 
ATOM     49  H   X6D d   1       1.385  35.723  81.805  0.00  0.00     0.084 H 
ATOM     50  H   X6D d   1       0.314  34.467  79.959  0.00  0.00     0.085 H 
BRANCH  45  51
ATOM     51  CAT X6D d   1       0.983  35.324  84.540  0.00  0.00     0.137 C 
ATOM     52  H   X6D d   1       0.803  34.695  85.412  0.00  0.00     0.087 H 
ATOM     53  H   X6D d   1       2.038  35.465  84.307  0.00  0.00     0.087 H 
BRANCH  51  54
ATOM     54  NBI X6D d   1       0.423  36.641  84.832  0.00  0.00     0.096 N 
ATOM     55  CAN X6D d   1       0.634  37.520  83.674  0.00  0.00     0.133 C 
ATOM     56  CAL X6D d   1       0.070  38.879  83.981  0.00  0.00     0.044 C 
ATOM     57  H   X6D d   1       1.701  37.603  83.466  0.00  0.00     0.083 H 
ATOM     58  H   X6D d   1       0.133  37.103  82.800  0.00  0.00     0.083 H 
ATOM     59  OAY X6D d   1       0.772  39.398  85.158  0.00  0.00    -0.388 OA
ATOM     60  H   X6D d   1      -1.000  38.810  84.178  0.00  0.00     0.077 H 
ATOM     61  H   X6D d   1       0.209  39.548  83.132  0.00  0.00     0.077 H 
ATOM     62  CAM X6D d   1       0.594  38.571  86.301  0.00  0.00     0.044 C 
ATOM     63  CAO X6D d   1       1.148  37.195  85.977  0.00  0.00     0.133 C 
ATOM     64  H   X6D d   1      -0.464  38.501  86.553  0.00  0.00     0.077 H 
ATOM     65  H   X6D d   1       1.118  38.995  87.157  0.00  0.00     0.077 H 
ATOM     66  H   X6D d   1       1.026  36.539  86.839  0.00  0.00     0.083 H 
ATOM     67  H   X6D d   1       2.208  37.275  85.735  0.00  0.00     0.083 H 
ENDBRANCH  51  54
ENDBRANCH  45  51
ENDBRANCH   1  41
TORSDOF 6
