REMARK  7 active torsions:
REMARK  status: ('A' for Active; 'I' for Inactive)
REMARK    1  A    between atoms: C01_1  and  C02_2 
REMARK    2  A    between atoms: C04_4  and  C05_5 
REMARK    3  A    between atoms: C05_5  and  N06_6 
REMARK    4  A    between atoms: N09_9  and  C10_10 
REMARK    5  A    between atoms: C17_17  and  C18_18 
REMARK    6  A    between atoms: C21_21  and  N22_22 
REMARK    7  A    between atoms: N25_25  and  C26_26 
ROOT
ATOM      1  C10 YM4 d   1      -3.965  31.016  -6.764  0.00  0.00     0.080 A 
ATOM      2  C11 YM4 d   1      -4.069  30.866  -8.124  0.00  0.00     0.057 A 
ATOM      3 BR1  YM4 d   1      -5.024  29.336  -8.851  0.00  0.00    -0.047 Br
ATOM      4  C13 YM4 d   1      -3.459  31.784  -9.045  0.00  0.00     0.024 A 
ATOM      5  N14 YM4 d   1      -2.740  32.888  -8.546  0.00  0.00    -0.238 NA
ATOM      6  C15 YM4 d   1      -2.637  33.060  -7.159  0.00  0.00     0.180 A 
ATOM      7  N16 YM4 d   1      -1.988  34.060  -6.419  0.00  0.00    -0.208 NA
ATOM      8  C17 YM4 d   1      -2.219  33.776  -5.100  0.00  0.00     0.141 A 
ATOM      9  N31 YM4 d   1      -2.973  32.572  -4.988  0.00  0.00    -0.335 N 
ATOM     10  C32 YM4 d   1      -3.234  32.164  -6.264  0.00  0.00     0.110 A 
ATOM     11  H   YM4 d   1      -3.551  31.628 -10.120  0.00  0.00     0.117 H 
ATOM     12  H   YM4 d   1      -3.260  32.108  -4.126  0.00  0.00     0.168 HD
ENDROOT
BRANCH   8  13
ATOM     13  C18 YM4 d   1      -1.686  34.506  -4.020  0.00  0.00     0.010 A 
ATOM     14  C19 YM4 d   1      -2.095  34.110  -2.694  0.00  0.00    -0.067 A 
ATOM     15  C20 YM4 d   1      -1.538  34.839  -1.555  0.00  0.00    -0.056 A 
ATOM     16  H   YM4 d   1      -2.799  33.291  -2.546  0.00  0.00     0.085 H 
ATOM     17  C21 YM4 d   1      -0.615  35.896  -1.781  0.00  0.00     0.030 A 
ATOM     18  H   YM4 d   1      -1.829  34.573  -0.539  0.00  0.00     0.086 H 
ATOM     19  C29 YM4 d   1      -0.193  36.289  -3.118  0.00  0.00    -0.056 A 
ATOM     20  C30 YM4 d   1      -0.745  35.560  -4.268  0.00  0.00    -0.067 A 
ATOM     21  H   YM4 d   1       0.516  37.105  -3.262  0.00  0.00     0.086 H 
ATOM     22  H   YM4 d   1      -0.447  35.814  -5.285  0.00  0.00     0.085 H 
BRANCH  17  23
ATOM     23  N22 YM4 d   1      -0.117  36.609  -0.583  0.00  0.00    -0.378 N 
ATOM     24  C23 YM4 d   1       0.175  35.712   0.582  0.00  0.00     0.010 C 
ATOM     25  C24 YM4 d   1       1.242  36.385   1.478  0.00  0.00     0.005 C 
ATOM     26  H   YM4 d   1       0.547  34.752   0.224  0.00  0.00     0.066 H 
ATOM     27  H   YM4 d   1      -0.736  35.545   1.156  0.00  0.00     0.066 H 
ATOM     28  N25 YM4 d   1       1.132  37.867   1.505  0.00  0.00    -0.414 N 
ATOM     29  H   YM4 d   1       2.222  36.133   1.072  0.00  0.00     0.066 H 
ATOM     30  H   YM4 d   1       1.095  36.024   2.496  0.00  0.00     0.066 H 
ATOM     31  C27 YM4 d   1       0.609  38.709   0.397  0.00  0.00     0.005 C 
ATOM     32  C28 YM4 d   1      -0.432  38.033  -0.491  0.00  0.00     0.010 C 
ATOM     33  H   YM4 d   1       1.458  38.951  -0.242  0.00  0.00     0.066 H 
ATOM     34  H   YM4 d   1       0.120  39.567   0.858  0.00  0.00     0.066 H 
ATOM     35  H   YM4 d   1      -1.426  38.165  -0.063  0.00  0.00     0.066 H 
ATOM     36  H   YM4 d   1      -0.417  38.480  -1.485  0.00  0.00     0.066 H 
BRANCH  28  37
ATOM     37  C26 YM4 d   1       0.857  38.462   2.820  0.00  0.00    -0.023 C 
ATOM     38  H   YM4 d   1      -0.089  38.078   3.200  0.00  0.00     0.055 H 
ATOM     39  H   YM4 d   1       1.660  38.202   3.510  0.00  0.00     0.055 H 
ATOM     40  H   YM4 d   1       0.797  39.546   2.722  0.00  0.00     0.055 H 
ENDBRANCH  28  37
ENDBRANCH  17  23
ENDBRANCH   8  13
BRANCH   1  41
ATOM     41  N09 YM4 d   1      -4.674  30.098  -5.851  0.00  0.00    -0.375 N 
ATOM     42  C08 YM4 d   1      -6.108  30.154  -6.042  0.00  0.00     0.010 C 
ATOM     43  C07 YM4 d   1      -6.834  28.901  -5.548  0.00  0.00     0.005 C 
ATOM     44  H   YM4 d   1      -6.484  31.000  -5.467  0.00  0.00     0.066 H 
ATOM     45  H   YM4 d   1      -6.295  30.242  -7.112  0.00  0.00     0.066 H 
ATOM     46  N06 YM4 d   1      -6.156  28.361  -4.338  0.00  0.00    -0.404 N 
ATOM     47  H   YM4 d   1      -7.863  29.159  -5.296  0.00  0.00     0.066 H 
ATOM     48  H   YM4 d   1      -6.819  28.146  -6.334  0.00  0.00     0.066 H 
ATOM     49  C34 YM4 d   1      -5.109  29.141  -3.632  0.00  0.00     0.005 C 
ATOM     50  C33 YM4 d   1      -4.041  29.614  -4.630  0.00  0.00     0.010 C 
ATOM     51  H   YM4 d   1      -4.639  28.509  -2.878  0.00  0.00     0.066 H 
ATOM     52  H   YM4 d   1      -5.567  30.010  -3.160  0.00  0.00     0.066 H 
ATOM     53  H   YM4 d   1      -3.466  30.424  -4.181  0.00  0.00     0.066 H 
ATOM     54  H   YM4 d   1      -3.385  28.778  -4.875  0.00  0.00     0.066 H 
BRANCH  46  55
ATOM     55  C05 YM4 d   1      -7.109  27.610  -3.511  0.00  0.00     0.032 C 
ATOM     56  H   YM4 d   1      -7.149  28.018  -2.501  0.00  0.00     0.073 H 
ATOM     57  H   YM4 d   1      -8.116  27.680  -3.922  0.00  0.00     0.073 H 
BRANCH  55  58
ATOM     58  C04 YM4 d   1      -6.633  26.157  -3.490  0.00  0.00     0.082 A 
ATOM     59  C03 YM4 d   1      -7.211  25.034  -4.203  0.00  0.00    -0.025 A 
ATOM     60  C02 YM4 d   1      -6.423  23.911  -3.924  0.00  0.00     0.077 A 
ATOM     61  H   YM4 d   1      -8.096  25.060  -4.839  0.00  0.00     0.090 H 
ATOM     62  O36 YM4 d   1      -5.372  24.309  -3.055  0.00  0.00    -0.218 OA
ATOM     63  N35 YM4 d   1      -5.518  25.712  -2.798  0.00  0.00    -0.131 NA
BRANCH  60  64
ATOM     64  C01 YM4 d   1      -6.637  22.478  -4.451  0.00  0.00    -0.029 C 
ATOM     65  H   YM4 d   1      -7.613  22.116  -4.129  0.00  0.00     0.036 H 
ATOM     66  H   YM4 d   1      -6.591  22.482  -5.540  0.00  0.00     0.036 H 
ATOM     67  H   YM4 d   1      -5.857  21.827  -4.056  0.00  0.00     0.036 H 
ENDBRANCH  60  64
ENDBRANCH  55  58
ENDBRANCH  46  55
ENDBRANCH   1  41
TORSDOF 7
