REMARK  1 active torsions:
REMARK  status: ('A' for Active; 'I' for Inactive)
REMARK    1  A    between atoms: N3_3  and  CN3_4 
ROOT
ATOM      1  N9  3MA d   1      18.628  36.534   6.234  0.00  0.00    -0.335 N 
ATOM      2  C4  3MA d   1      17.411  36.966   6.611  0.00  0.00     0.142 A 
ATOM      3  N3  3MA d   1      16.541  37.887   6.151  0.00  0.00    -0.330 N 
ATOM      4  C2  3MA d   1      15.361  38.077   6.793  0.00  0.00     0.069 A 
ATOM      5  N1  3MA d   1      14.967  37.403   7.898  0.00  0.00    -0.224 NA
ATOM      6  C6  3MA d   1      15.756  36.448   8.451  0.00  0.00     0.155 A 
ATOM      7  N6  3MA d   1      15.406  35.742   9.553  0.00  0.00    -0.382 N 
ATOM      8  C5  3MA d   1      17.055  36.172   7.811  0.00  0.00     0.147 A 
ATOM      9  N7  3MA d   1      18.075  35.328   8.064  0.00  0.00    -0.236 NA
ATOM     10  C8  3MA d   1      19.016  35.553   7.107  0.00  0.00     0.066 A 
ATOM     11  H   3MA d   1      14.681  38.827   6.389  0.00  0.00     0.143 H 
ATOM     12  H   3MA d   1      16.037  35.033   9.926  0.00  0.00     0.157 HD
ATOM     13  H   3MA d   1      14.511  35.919  10.009  0.00  0.00     0.157 HD
ATOM     14  H   3MA d   1      19.963  35.017   7.043  0.00  0.00     0.143 H 
ATOM     15  H   3MA d   1      19.172  36.880   5.431  0.00  0.00     0.168 HD
ENDROOT
BRANCH   3  16
ATOM     16  CN3 3MA d   1      16.880  38.681   4.948  0.00  0.00    -0.012 C 
ATOM     17  H   3MA d   1      16.133  38.503   4.174  0.00  0.00     0.057 H 
ATOM     18  H   3MA d   1      16.893  39.740   5.205  0.00  0.00     0.057 H 
ATOM     19  H   3MA d   1      17.862  38.382   4.582  0.00  0.00     0.057 H 
ENDBRANCH   3  16
TORSDOF 1
