REMARK  6 active torsions:
REMARK  status: ('A' for Active; 'I' for Inactive)
REMARK    1  A    between atoms: CAO_2  and  CAP_3 
REMARK       I    between atoms: CAO_2  and  NAN_9 
REMARK    2  A    between atoms: NAN_9  and  CAM_10 
REMARK    3  A    between atoms: CAJ_13  and  OAT_14 
REMARK    4  A    between atoms: OAT_14  and  CAZ_15 
REMARK    5  A    between atoms: CAI_24  and  OAS_25 
REMARK    6  A    between atoms: OAS_25  and  CAY_26 
ROOT
ATOM      1  CAM 090 d   1      18.000  35.826   8.003  0.00  0.00     0.685 C 
ATOM      2  NAL 090 d   1      18.749  36.434   6.917  0.00  0.00    -0.188 N 
ATOM      3  CAK 090 d   1      18.176  37.600   6.264  0.00  0.00     0.095 A 
ATOM      4  CAJ 090 d   1      18.757  38.085   5.138  0.00  0.00     0.129 A 
ATOM      5  CAE 090 d   1      16.862  38.063   6.624  0.00  0.00     0.022 A 
ATOM      6  CAF 090 d   1      16.173  37.499   7.843  0.00  0.00     0.210 A 
ATOM      7  NAG 090 d   1      16.713  36.377   8.487  0.00  0.00    -0.182 N 
ATOM      8  CAH 090 d   1      16.051  35.920   9.602  0.00  0.00     0.037 A 
ATOM      9  CAB 090 d   1      14.842  36.877   9.729  0.00  0.00     0.100 A 
ATOM     10  NAA 090 d   1      14.971  37.870   8.577  0.00  0.00    -0.048 N 
ATOM     11  CAD 090 d   1      16.227  39.041   5.889  0.00  0.00    -0.068 A 
ATOM     12  CAC 090 d   1      16.844  39.565   4.750  0.00  0.00    -0.047 A 
ATOM     13  CAI 090 d   1      18.135  39.113   4.398  0.00  0.00     0.103 A 
ATOM     14  H   090 d   1      19.649  36.055   6.622  0.00  0.00     0.184 HD
ATOM     15  H   090 d   1      16.096  38.305   7.113  0.00  0.00     0.127 H 
ATOM     16  H   090 d   1      16.681  35.926  10.491  0.00  0.00     0.067 H 
ATOM     17  H   090 d   1      15.748  34.877   9.507  0.00  0.00     0.067 H 
ATOM     18  H   090 d   1      14.841  37.387  10.692  0.00  0.00     0.078 H 
ATOM     19  H   090 d   1      13.899  36.332   9.678  0.00  0.00     0.078 H 
ATOM     20  H   090 d   1      14.150  37.837   7.973  0.00  0.00     0.280 HD
ATOM     21  H   090 d   1      15.037  38.827   8.925  0.00  0.00     0.280 HD
ATOM     22  H   090 d   1      15.246  39.405   6.195  0.00  0.00     0.084 H 
ATOM     23  H   090 d   1      16.336  40.313   4.141  0.00  0.00     0.087 H 
ENDROOT
BRANCH   1  24
ATOM     24  NAN 090 d   1      18.599  34.683   8.610  0.00  0.00    -0.155 N 
ATOM     25  CAO 090 d   1      19.949  34.317   8.205  0.00  0.00     0.271 C 
ATOM     26  OAU 090 d   1      20.255  34.415   7.035  0.00  0.00    -0.267 OA
ATOM     27  H   090 d   1      18.096  34.137   9.309  0.00  0.00     0.187 HD
BRANCH  25  28
ATOM     28  CAP 090 d   1      20.739  33.423   9.189  0.00  0.00     0.050 A 
ATOM     29  CAQ 090 d   1      20.267  33.312  10.614  0.00  0.00     0.017 A 
ATOM     30  NAR 090 d   1      20.863  32.468  11.483  0.00  0.00    -0.272 NA
ATOM     31  H   090 d   1      19.430  33.923  10.950  0.00  0.00     0.116 H 
ATOM     32  CAX 090 d   1      21.971  31.722  11.078  0.00  0.00     0.002 A 
ATOM     33  CAW 090 d   1      22.468  31.864   9.728  0.00  0.00    -0.065 A 
ATOM     34  H   090 d   1      22.457  31.038  11.774  0.00  0.00     0.114 H 
ATOM     35  CAV 090 d   1      21.809  32.688   8.802  0.00  0.00    -0.065 A 
ATOM     36  H   090 d   1      23.366  31.325   9.425  0.00  0.00     0.085 H 
ATOM     37  H   090 d   1      22.159  32.736   7.771  0.00  0.00     0.085 H 
ENDBRANCH  25  28
ENDBRANCH   1  24
BRANCH   4  38
ATOM     38  OAT 090 d   1      19.993  37.554   4.789  0.00  0.00    -0.351 OA
BRANCH  38  39
ATOM     39  CAZ 090 d   1      21.139  38.347   5.008  0.00  0.00     0.011 C 
ATOM     40  H   090 d   1      21.055  39.271   4.436  0.00  0.00     0.067 H 
ATOM     41  H   090 d   1      21.220  38.581   6.069  0.00  0.00     0.067 H 
ATOM     42  H   090 d   1      22.025  37.799   4.687  0.00  0.00     0.067 H 
ENDBRANCH  38  39
ENDBRANCH   4  38
BRANCH  13  43
ATOM     43  OAS 090 d   1      18.744  39.647   3.249  0.00  0.00    -0.353 OA
BRANCH  43  44
ATOM     44  CAY 090 d   1      18.129  40.632   2.448  0.00  0.00     0.010 C 
ATOM     45  H   090 d   1      17.187  40.246   2.059  0.00  0.00     0.066 H 
ATOM     46  H   090 d   1      17.938  41.521   3.050  0.00  0.00     0.066 H 
ATOM     47  H   090 d   1      18.788  40.888   1.619  0.00  0.00     0.066 H 
ENDBRANCH  43  44
ENDBRANCH  13  43
TORSDOF 6
