REMARK  9 active torsions:
REMARK  status: ('A' for Active; 'I' for Inactive)
REMARK    1  A    between atoms: SAN_2  and  NAU_4 
REMARK    2  A    between atoms: SAN_2  and  CAF_8 
REMARK    3  A    between atoms: NAU_4  and  CAV_5 
REMARK    4  A    between atoms: CAV_5  and  CAW_6 
REMARK    5  A    between atoms: CAW_6  and  OAX_7 
REMARK    6  A    between atoms: CAH_14  and  CAI_15 
REMARK    7  A    between atoms: CAJ_16  and  CAE_17 
REMARK    8  A    between atoms: CAQ_20  and  NAR_21 
REMARK       I    between atoms: NAR_21  and  CAS_22 
REMARK    9  A    between atoms: CAS_22  and  CAT_24 
ROOT
ATOM      1  CAF 093 d   1      19.974  33.979   7.724  0.00  0.00     0.102 A 
ATOM      2  CAB 093 d   1      19.824  33.414   8.955  0.00  0.00     0.057 A 
ATOM      3 CL   093 d   1      21.013  32.213   9.496  0.00  0.00    -0.083 Cl
ATOM      4  CAC 093 d   1      18.815  33.883   9.863  0.00  0.00    -0.060 A 
ATOM      5  CAD 093 d   1      17.859  34.891   9.400  0.00  0.00    -0.070 A 
ATOM      6  CAG 093 d   1      19.024  35.015   7.261  0.00  0.00    -0.048 A 
ATOM      7  CAH 093 d   1      17.997  35.407   8.102  0.00  0.00    -0.020 A 
ATOM      8  H   093 d   1      18.762  33.495  10.880  0.00  0.00     0.086 H 
ATOM      9  H   093 d   1      17.055  35.234  10.051  0.00  0.00     0.084 H 
ATOM     10  H   093 d   1      19.131  35.462   6.273  0.00  0.00     0.087 H 
ENDROOT
BRANCH   7  11
ATOM     11  CAI 093 d   1      17.128  36.488   7.504  0.00  0.00     0.022 A 
ATOM     12  CAJ 093 d   1      15.899  37.170   8.219  0.00  0.00     0.133 A 
ATOM     13  NAK 093 d   1      15.234  38.263   7.270  0.00  0.00    -0.036 N 
ATOM     14  H   093 d   1      15.597  37.012   9.254  0.00  0.00     0.092 H 
ATOM     15  CAQ 093 d   1      15.994  38.311   5.962  0.00  0.00     0.218 A 
ATOM     16  H   093 d   1      15.270  39.177   7.721  0.00  0.00     0.281 HD
ATOM     17  H   093 d   1      14.260  38.017   7.092  0.00  0.00     0.281 HD
ATOM     18  SAP 093 d   1      17.343  37.214   6.076  0.00  0.00    -0.078 SA
ATOM     19  H   093 d   1      15.259  38.647   5.230  0.00  0.00     0.137 H 
BRANCH  12  20
ATOM     20  CAE 093 d   1      15.406  36.814   9.617  0.00  0.00    -0.045 C 
ATOM     21  H   093 d   1      15.118  35.763   9.643  0.00  0.00     0.030 H 
ATOM     22  H   093 d   1      16.204  36.991  10.338  0.00  0.00     0.030 H 
ATOM     23  H   093 d   1      14.545  37.434   9.866  0.00  0.00     0.030 H 
ENDBRANCH  12  20
BRANCH  15  24
ATOM     24  NAR 093 d   1      15.801  39.180   4.812  0.00  0.00    -0.325 N 
ATOM     25  CAS 093 d   1      16.945  39.454   3.942  0.00  0.00     0.215 C 
ATOM     26  OAL 093 d   1      18.014  38.985   4.163  0.00  0.00    -0.274 OA
ATOM     27  H   093 d   1      14.888  39.590   4.616  0.00  0.00     0.165 HD
BRANCH  25  28
ATOM     28  CAT 093 d   1      16.786  40.358   2.717  0.00  0.00    -0.003 C 
ATOM     29  H   093 d   1      17.454  41.214   2.810  0.00  0.00     0.040 H 
ATOM     30  H   093 d   1      17.037  39.796   1.817  0.00  0.00     0.040 H 
ATOM     31  H   093 d   1      15.755  40.705   2.655  0.00  0.00     0.040 H 
ENDBRANCH  25  28
ENDBRANCH  15  24
ENDBRANCH   7  11
BRANCH   1  32
ATOM     32  SAN 093 d   1      21.222  33.368   6.563  0.00  0.00     0.260 S 
ATOM     33  OAM 093 d   1      20.698  32.075   6.123  0.00  0.00    -0.200 OA
ATOM     34  OAO 093 d   1      21.336  34.256   5.392  0.00  0.00    -0.200 OA
BRANCH  32  35
ATOM     35  NAU 093 d   1      22.742  33.205   7.371  0.00  0.00    -0.313 N 
ATOM     36  H   093 d   1      23.094  32.330   7.760  0.00  0.00     0.172 HD
BRANCH  35  37
ATOM     37  CAV 093 d   1      23.460  34.480   7.427  0.00  0.00     0.022 C 
ATOM     38  H   093 d   1      22.891  35.093   8.126  0.00  0.00     0.068 H 
ATOM     39  H   093 d   1      23.542  34.803   6.389  0.00  0.00     0.068 H 
BRANCH  37  40
ATOM     40  CAW 093 d   1      24.901  34.498   7.964  0.00  0.00     0.032 C 
ATOM     41  H   093 d   1      25.456  33.803   7.333  0.00  0.00     0.076 H 
ATOM     42  H   093 d   1      24.820  34.265   9.026  0.00  0.00     0.076 H 
BRANCH  40  43
ATOM     43  OAX 093 d   1      25.607  35.710   7.899  0.00  0.00    -0.399 OA
ATOM     44  H   093 d   1      26.486  35.587   8.263  0.00  0.00     0.209 HD
ENDBRANCH  40  43
ENDBRANCH  37  40
ENDBRANCH  35  37
ENDBRANCH  32  35
ENDBRANCH   1  32
TORSDOF 9
