REMARK  3 active torsions:
REMARK  status: ('A' for Active; 'I' for Inactive)
REMARK    1  A    between atoms: C11_11  and  N12_12 
REMARK    2  A    between atoms: C19_19  and  C20_20 
REMARK    3  A    between atoms: C24_24  and  O25_25 
ROOT
ATOM      1  N01 X6K d   1      20.907  38.125   3.549  0.00  0.00    -0.236 NA
ATOM      2  C02 X6K d   1      22.161  38.053   3.068  0.00  0.00     0.005 A 
ATOM      3  C03 X6K d   1      23.107  37.193   3.668  0.00  0.00    -0.065 A 
ATOM      4  C04 X6K d   1      22.734  36.419   4.759  0.00  0.00    -0.065 A 
ATOM      5  C05 X6K d   1      21.425  36.492   5.264  0.00  0.00     0.049 A 
ATOM      6  C06 X6K d   1      20.521  37.319   4.686  0.00  0.00     0.182 A 
ATOM      7  O07 X6K d   1      19.271  37.189   5.407  0.00  0.00    -0.285 OA
ATOM      8  C08 X6K d   1      19.448  36.228   6.477  0.00  0.00     0.153 A 
ATOM      9  C09 X6K d   1      20.734  35.791   6.417  0.00  0.00     0.111 A 
ATOM     10  N10 X6K d   1      21.168  34.904   7.282  0.00  0.00    -0.225 NA
ATOM     11  C11 X6K d   1      18.570  35.718   7.471  0.00  0.00     0.165 A 
ATOM     12  N18 X6K d   1      19.027  34.818   8.353  0.00  0.00    -0.208 NA
ATOM     13  C19 X6K d   1      20.274  34.391   8.290  0.00  0.00     0.162 A 
ATOM     14  H   X6K d   1      22.449  38.662   2.211  0.00  0.00     0.114 H 
ATOM     15  H   X6K d   1      24.123  37.137   3.277  0.00  0.00     0.085 H 
ATOM     16  H   X6K d   1      23.459  35.752   5.225  0.00  0.00     0.085 H 
ENDROOT
BRANCH  11  17
ATOM     17  N12 X6K d   1      17.184  36.146   7.618  0.00  0.00    -0.359 N 
ATOM     18  C13 X6K d   1      16.770  37.038   6.515  0.00  0.00     0.016 C 
ATOM     19  C14 X6K d   1      15.924  38.206   7.013  0.00  0.00     0.034 C 
ATOM     20  H   X6K d   1      16.171  36.458   5.813  0.00  0.00     0.067 H 
ATOM     21  H   X6K d   1      17.668  37.442   6.047  0.00  0.00     0.067 H 
ATOM     22  O15 X6K d   1      14.937  37.827   7.989  0.00  0.00    -0.388 OA
ATOM     23  H   X6K d   1      15.393  38.615   6.153  0.00  0.00     0.076 H 
ATOM     24  H   X6K d   1      16.598  38.918   7.489  0.00  0.00     0.076 H 
ATOM     25  C16 X6K d   1      15.428  37.073   9.109  0.00  0.00     0.034 C 
ATOM     26  C17 X6K d   1      16.217  35.828   8.667  0.00  0.00     0.016 C 
ATOM     27  H   X6K d   1      14.572  36.742   9.698  0.00  0.00     0.076 H 
ATOM     28  H   X6K d   1      16.097  37.714   9.683  0.00  0.00     0.076 H 
ATOM     29  H   X6K d   1      16.760  35.441   9.529  0.00  0.00     0.067 H 
ATOM     30  H   X6K d   1      15.512  35.096   8.274  0.00  0.00     0.067 H 
ENDBRANCH  11  17
BRANCH  13  31
ATOM     31  C20 X6K d   1      20.801  33.391   9.304  0.00  0.00     0.014 A 
ATOM     32  C21 X6K d   1      20.150  33.204  10.493  0.00  0.00    -0.069 A 
ATOM     33  C22 X6K d   1      20.657  32.302  11.443  0.00  0.00    -0.079 A 
ATOM     34  H   X6K d   1      19.235  33.757  10.704  0.00  0.00     0.085 H 
ATOM     35  C23 X6K d   1      21.904  31.611  11.165  0.00  0.00    -0.051 A 
ATOM     36  H   X6K d   1      20.122  32.123  12.376  0.00  0.00     0.083 H 
ATOM     37  C24 X6K d   1      22.600  31.846   9.951  0.00  0.00     0.066 A 
ATOM     38  H   X6K d   1      22.308  30.908  11.893  0.00  0.00     0.087 H 
ATOM     39  C26 X6K d   1      22.098  32.707   9.027  0.00  0.00    -0.037 A 
ATOM     40  H   X6K d   1      22.635  32.895   8.097  0.00  0.00     0.089 H 
BRANCH  37  41
ATOM     41  O25 X6K d   1      23.816  31.205   9.661  0.00  0.00    -0.361 OA
ATOM     42  H   X6K d   1      24.464  31.433  10.331  0.00  0.00     0.217 HD
ENDBRANCH  37  41
ENDBRANCH  13  31
TORSDOF 3
