REMARK WARNING: 32 MAX_TORS EXCEEDED!!!
REMARK  37 active torsions:
REMARK  status: ('A' for Active; 'I' for Inactive)
REMARK    1  A    between atoms: O6_21  and  C1_1 
REMARK    2  A    between atoms: C2_2  and  O2_7 
REMARK    3  A    between atoms: C3_3  and  O3_8 
REMARK    4  A    between atoms: C4_4  and  O4_9 
REMARK    5  A    between atoms: C5_5  and  C6_6 
REMARK    6  A    between atoms: O4_30  and  C1_11 
REMARK    7  A    between atoms: C2_12  and  O2_17 
REMARK    8  A    between atoms: C3_13  and  O3_18 
REMARK    9  A    between atoms: C4_14  and  O4_19 
REMARK   10  A    between atoms: C5_15  and  C6_16 
REMARK   11  A    between atoms: C6_16  and  O6_21 
REMARK   12  A    between atoms: O3_56  and  C1_22 
REMARK   13  A    between atoms: C2_23  and  O2_28 
REMARK   14  A    between atoms: C3_24  and  O3_29 
REMARK   15  A    between atoms: C4_25  and  O4_30 
REMARK   16  A    between atoms: C5_26  and  C6_27 
REMARK   17  A    between atoms: C6_27  and  O6_32 
REMARK   18  A    between atoms: O3_29  and  C1_33 
REMARK   19  A    between atoms: C2_34  and  N2_41 
REMARK   20  A    between atoms: C3_35  and  O3_42 
REMARK   21  A    between atoms: C4_36  and  O4_43 
REMARK   22  A    between atoms: C5_37  and  C6_38 
REMARK   23  A    between atoms: C6_38  and  O6_45 
REMARK   24  A    between atoms: C7_39  and  C8_40 
REMARK       I    between atoms: N2_41  and  C7_39 
REMARK   25  A    between atoms: C1_47  and  O1L_61 
REMARK   26  A    between atoms: N2_60  and  C2_48 
REMARK   27  A    between atoms: C3_49  and  O3_56 
REMARK   28  A    between atoms: C4_50  and  O4_57 
REMARK   29  A    between atoms: C5_51  and  C6_52 
REMARK   30  A    between atoms: C6_52  and  O6_58 
REMARK   31  A    between atoms: C7_53  and  C8_54 
REMARK       I    between atoms: C7_53  and  N2_60 
REMARK   32  A    between atoms: O6_58  and  C1_62 
REMARK   33  A    between atoms: C2_63  and  O2_68 
REMARK   34  A    between atoms: C3_64  and  O3_69 
REMARK   35  A    between atoms: C4_65  and  O4_70 
REMARK   36  A    between atoms: C5_66  and  C6_67 
REMARK   37  A    between atoms: C6_67  and  O6_72 
ROOT
ATOM      1  C1  NON d   1       9.439 -13.754  36.634  0.00  0.00     0.159 C 
ATOM      2  C2  NON d   1       9.004 -14.937  35.761  0.00  0.00     0.110 C 
ATOM      3  C3  NON d   1       9.491 -14.747  34.330  0.00  0.00     0.098 C 
ATOM      4  C4  NON d   1       9.051 -13.380  33.794  0.00  0.00     0.096 C 
ATOM      5  C5  NON d   1       9.582 -12.304  34.765  0.00  0.00     0.089 C 
ATOM      6  O5  NON d   1       9.098 -12.509  36.082  0.00  0.00    -0.348 OA
ATOM      7  H22 NON d   1       8.949 -13.840  37.615  0.00  0.00     0.133 H 
ATOM      8  H23 NON d   1       7.905 -14.934  35.722  0.00  0.00     0.094 H 
ATOM      9  H24 NON d   1      10.590 -14.783  34.324  0.00  0.00     0.091 H 
ATOM     10  H25 NON d   1       9.494 -13.227  32.799  0.00  0.00     0.091 H 
ATOM     11  H26 NON d   1      10.678 -12.398  34.782  0.00  0.00     0.090 H 
ENDROOT
BRANCH   1  12
ATOM     12  O3  NON d   1      10.849 -13.846  36.803  0.00  0.00    -0.348 OA
BRANCH  12  13
ATOM     13  C3  NON d   1      11.346 -13.198  37.982  0.00  0.00     0.093 C 
ATOM     14  C2  NON d   1      12.698 -12.671  37.518  0.00  0.00     0.087 C 
ATOM     15  C1  NON d   1      13.502 -12.213  38.731  0.00  0.00     0.151 C 
ATOM     16  H46 NON d   1      13.232 -13.506  37.041  0.00  0.00     0.084 H 
ATOM     17  O   NON d   1      13.587 -13.122  39.800  0.00  0.00    -0.349 OA
ATOM     18  H45 NON d   1      14.525 -12.035  38.368  0.00  0.00     0.132 H 
ATOM     19  C5  NON d   1      12.322 -13.556  40.271  0.00  0.00     0.089 C 
ATOM     20  C4  NON d   1      11.540 -14.196  39.123  0.00  0.00     0.089 C 
ATOM     21  H49 NON d   1      11.751 -12.701  40.663  0.00  0.00     0.090 H 
ATOM     22  H48 NON d   1      12.108 -15.060  38.749  0.00  0.00     0.091 H 
ATOM     23  H47 NON d   1      10.680 -12.384  38.304  0.00  0.00     0.091 H 
BRANCH  14  24
ATOM     24  N2  NON d   1      12.625 -11.583  36.542  0.00  0.00    -0.349 N 
ATOM     25  C7  NON d   1      13.188 -11.663  35.331  0.00  0.00     0.214 C 
ATOM     26  O7  NON d   1      13.740 -12.681  34.893  0.00  0.00    -0.274 OA
ATOM     27  H56 NON d   1      12.135 -10.747  36.790  0.00  0.00     0.163 HD
BRANCH  25  28
ATOM     28  C8  NON d   1      13.075 -10.442  34.454  0.00  0.00    -0.003 C 
ATOM     29  H52 NON d   1      12.560  -9.641  35.005  0.00  0.00     0.040 H 
ATOM     30  H53 NON d   1      12.501 -10.692  33.549  0.00  0.00     0.040 H 
ATOM     31  H54 NON d   1      14.081 -10.102  34.168  0.00  0.00     0.040 H 
ENDBRANCH  25  28
ENDBRANCH  14  24
BRANCH  15  32
ATOM     32  O1L NON d   1      13.021 -11.013  39.286  0.00  0.00    -0.369 OA
ATOM     33  H57 NON d   1      13.627 -10.708  39.951  0.00  0.00     0.212 HD
ENDBRANCH  15  32
BRANCH  19  34
ATOM     34  C6  NON d   1      12.590 -14.551  41.393  0.00  0.00     0.049 C 
ATOM     35  H50 NON d   1      13.603 -14.962  41.276  0.00  0.00     0.078 H 
ATOM     36  H51 NON d   1      11.854 -15.367  41.335  0.00  0.00     0.078 H 
BRANCH  34  37
ATOM     37  O6  NON d   1      12.488 -13.925  42.654  0.00  0.00    -0.356 OA
BRANCH  37  38
ATOM     38  C1  NON d   1      11.278 -13.883  43.275  0.00  0.00     0.158 C 
ATOM     39  C2  NON d   1      11.275 -13.011  44.526  0.00  0.00     0.110 C 
ATOM     40  C3  NON d   1      12.246 -13.653  45.526  0.00  0.00     0.092 C 
ATOM     41  H59 NON d   1      10.266 -13.016  44.964  0.00  0.00     0.094 H 
ATOM     42  C4  NON d   1      11.870 -15.106  45.785  0.00  0.00     0.090 C 
ATOM     43  H60 NON d   1      13.249 -13.640  45.075  0.00  0.00     0.091 H 
ATOM     44  C5  NON d   1      11.671 -15.899  44.503  0.00  0.00     0.089 C 
ATOM     45  H61 NON d   1      10.937 -15.130  46.368  0.00  0.00     0.091 H 
ATOM     46  O5  NON d   1      10.792 -15.178  43.636  0.00  0.00    -0.348 OA
ATOM     47  H62 NON d   1      12.647 -16.005  44.006  0.00  0.00     0.090 H 
ATOM     48  H58 NON d   1      10.568 -13.445  42.559  0.00  0.00     0.133 H 
BRANCH  39  49
ATOM     49  O2  NON d   1      11.603 -11.677  44.215  0.00  0.00    -0.388 OA
ATOM     50  H65 NON d   1      10.971 -11.333  43.595  0.00  0.00     0.210 HD
ENDBRANCH  39  49
BRANCH  40  51
ATOM     51  O3  NON d   1      12.309 -12.918  46.738  0.00  0.00    -0.390 OA
ATOM     52  H66 NON d   1      11.461 -12.941  47.166  0.00  0.00     0.210 HD
ENDBRANCH  40  51
BRANCH  42  53
ATOM     53  O4  NON d   1      12.904 -15.724  46.518  0.00  0.00    -0.390 OA
ATOM     54  H67 NON d   1      13.048 -15.245  47.326  0.00  0.00     0.210 HD
ENDBRANCH  42  53
BRANCH  44  55
ATOM     55  C6  NON d   1      11.121 -17.301  44.775  0.00  0.00     0.043 C 
ATOM     56  H63 NON d   1      11.852 -17.860  45.377  0.00  0.00     0.078 H 
ATOM     57  H64 NON d   1      10.966 -17.815  43.815  0.00  0.00     0.078 H 
BRANCH  55  58
ATOM     58  O6  NON d   1       9.896 -17.255  45.472  0.00  0.00    -0.398 OA
ATOM     59  H68 NON d   1      10.023 -16.816  46.305  0.00  0.00     0.209 HD
ENDBRANCH  55  58
ENDBRANCH  44  55
ENDBRANCH  37  38
ENDBRANCH  34  37
ENDBRANCH  19  34
BRANCH  20  60
ATOM     60  O4  NON d   1      10.269 -14.638  39.569  0.00  0.00    -0.390 OA
ATOM     61  H55 NON d   1      10.383 -15.280  40.260  0.00  0.00     0.210 HD
ENDBRANCH  20  60
ENDBRANCH  12  13
ENDBRANCH   1  12
BRANCH   2  62
ATOM     62  O2  NON d   1       9.380 -16.145  36.357  0.00  0.00    -0.388 OA
ATOM     63  H29 NON d   1       9.037 -16.180  37.242  0.00  0.00     0.210 HD
ENDBRANCH   2  62
BRANCH   3  64
ATOM     64  O3  NON d   1       9.008 -15.794  33.529  0.00  0.00    -0.348 OA
BRANCH  64  65
ATOM     65  C1  NON d   1       9.835 -16.809  33.211  0.00  0.00     0.154 C 
ATOM     66  C2  NON d   1       9.001 -18.041  32.847  0.00  0.00     0.087 C 
ATOM     67  C3  NON d   1       9.847 -19.161  32.224  0.00  0.00     0.086 C 
ATOM     68  H32 NON d   1       8.230 -17.741  32.122  0.00  0.00     0.084 H 
ATOM     69  C4  NON d   1      10.854 -18.618  31.229  0.00  0.00     0.089 C 
ATOM     70  H33 NON d   1      10.401 -19.664  33.030  0.00  0.00     0.090 H 
ATOM     71  C5  NON d   1      11.577 -17.382  31.775  0.00  0.00     0.089 C 
ATOM     72  H34 NON d   1      10.317 -18.336  30.311  0.00  0.00     0.091 H 
ATOM     73  O5  NON d   1      10.636 -16.371  32.125  0.00  0.00    -0.349 OA
ATOM     74  H35 NON d   1      12.123 -17.687  32.680  0.00  0.00     0.090 H 
ATOM     75  H31 NON d   1      10.480 -17.052  34.068  0.00  0.00     0.132 H 
BRANCH  66  76
ATOM     76  N2  NON d   1       8.362 -18.541  34.042  0.00  0.00    -0.349 N 
ATOM     77  C7  NON d   1       7.066 -18.468  34.268  0.00  0.00     0.214 C 
ATOM     78  O7  NON d   1       6.321 -17.982  33.436  0.00  0.00    -0.274 OA
ATOM     79  H41 NON d   1       8.938 -18.968  34.739  0.00  0.00     0.163 HD
BRANCH  77  80
ATOM     80  C8  NON d   1       6.547 -19.024  35.575  0.00  0.00    -0.003 C 
ATOM     81  H38 NON d   1       5.456 -18.893  35.621  0.00  0.00     0.040 H 
ATOM     82  H39 NON d   1       7.016 -18.489  36.413  0.00  0.00     0.040 H 
ATOM     83  H40 NON d   1       6.791 -20.095  35.641  0.00  0.00     0.040 H 
ENDBRANCH  77  80
ENDBRANCH  66  76
BRANCH  67  84
ATOM     84  O3  NON d   1       8.993 -20.112  31.601  0.00  0.00    -0.391 OA
ATOM     85  H42 NON d   1       8.370 -20.441  32.238  0.00  0.00     0.210 HD
ENDBRANCH  67  84
BRANCH  69  86
ATOM     86  O4  NON d   1      11.824 -19.613  30.910  0.00  0.00    -0.390 OA
ATOM     87  H43 NON d   1      12.421 -19.273  30.254  0.00  0.00     0.210 HD
ENDBRANCH  69  86
BRANCH  71  88
ATOM     88  C6  NON d   1      12.583 -16.776  30.793  0.00  0.00     0.043 C 
ATOM     89  H36 NON d   1      13.319 -17.541  30.507  0.00  0.00     0.078 H 
ATOM     90  H37 NON d   1      13.099 -15.932  31.274  0.00  0.00     0.078 H 
BRANCH  88  91
ATOM     91  O6  NON d   1      11.911 -16.315  29.633  0.00  0.00    -0.398 OA
ATOM     92  H44 NON d   1      11.466 -17.043  29.216  0.00  0.00     0.209 HD
ENDBRANCH  88  91
ENDBRANCH  71  88
ENDBRANCH  64  65
ENDBRANCH   3  64
BRANCH   5  93
ATOM     93  C6  NON d   1       9.245 -10.873  34.354  0.00  0.00     0.043 C 
ATOM     94  H27 NON d   1       9.660 -10.168  35.090  0.00  0.00     0.078 H 
ATOM     95  H28 NON d   1       8.153 -10.749  34.302  0.00  0.00     0.078 H 
BRANCH  93  96
ATOM     96  O6  NON d   1       9.812 -10.627  33.088  0.00  0.00    -0.398 OA
ATOM     97  H30 NON d   1       9.610  -9.739  32.819  0.00  0.00     0.209 HD
ENDBRANCH  93  96
ENDBRANCH   5  93
BRANCH   4  98
ATOM     98  O4  NON d   1       7.709 -13.277  33.686  0.00  0.00    -0.348 OA
BRANCH  98  99
ATOM     99  C1  NON d   1       7.242 -12.819  32.443  0.00  0.00     0.159 C 
ATOM    100  C2  NON d   1       5.819 -12.297  32.443  0.00  0.00     0.110 C 
ATOM    101  C3  NON d   1       4.926 -13.555  32.520  0.00  0.00     0.092 C 
ATOM    102  H13 NON d   1       5.615 -11.738  31.518  0.00  0.00     0.094 H 
ATOM    103  C4  NON d   1       5.289 -14.499  31.370  0.00  0.00     0.090 C 
ATOM    104  H14 NON d   1       5.118 -14.070  33.473  0.00  0.00     0.091 H 
ATOM    105  C5  NON d   1       6.790 -14.824  31.420  0.00  0.00     0.089 C 
ATOM    106  H15 NON d   1       5.057 -14.020  30.407  0.00  0.00     0.091 H 
ATOM    107  O5  NON d   1       7.546 -13.620  31.327  0.00  0.00    -0.348 OA
ATOM    108  H16 NON d   1       6.988 -15.316  32.384  0.00  0.00     0.090 H 
ATOM    109  H12 NON d   1       7.845 -11.915  32.274  0.00  0.00     0.133 H 
BRANCH 100 110
ATOM    110  O2  NON d   1       5.602 -11.468  33.540  0.00  0.00    -0.388 OA
ATOM    111  H19 NON d   1       5.807 -11.941  34.338  0.00  0.00     0.210 HD
ENDBRANCH 100 110
BRANCH 101 112
ATOM    112  O3  NON d   1       3.552 -13.191  32.474  0.00  0.00    -0.390 OA
ATOM    113  H20 NON d   1       3.369 -12.752  31.652  0.00  0.00     0.210 HD
ENDBRANCH 101 112
BRANCH 103 114
ATOM    114  O4  NON d   1       4.507 -15.665  31.516  0.00  0.00    -0.390 OA
ATOM    115  H21 NON d   1       4.701 -16.072  32.352  0.00  0.00     0.210 HD
ENDBRANCH 103 114
BRANCH 105 116
ATOM    116  C6  NON d   1       7.339 -15.710  30.305  0.00  0.00     0.049 C 
ATOM    117  H17 NON d   1       7.030 -16.750  30.488  0.00  0.00     0.078 H 
ATOM    118  H18 NON d   1       8.437 -15.648  30.306  0.00  0.00     0.078 H 
BRANCH 116 119
ATOM    119  O6  NON d   1       6.867 -15.312  29.071  0.00  0.00    -0.356 OA
BRANCH 119 120
ATOM    120  C1  NON d   1       6.024 -16.153  28.326  0.00  0.00     0.158 C 
ATOM    121  C2  NON d   1       5.645 -15.383  27.058  0.00  0.00     0.110 C 
ATOM    122  C3  NON d   1       6.798 -15.299  26.061  0.00  0.00     0.092 C 
ATOM    123  H2  NON d   1       5.365 -14.356  27.337  0.00  0.00     0.094 H 
ATOM    124  C4  NON d   1       7.376 -16.678  25.871  0.00  0.00     0.087 C 
ATOM    125  H3  NON d   1       7.577 -14.640  26.472  0.00  0.00     0.091 H 
ATOM    126  C5  NON d   1       7.809 -17.256  27.216  0.00  0.00     0.065 C 
ATOM    127  H4  NON d   1       6.628 -17.341  25.412  0.00  0.00     0.091 H 
ATOM    128  O5  NON d   1       6.679 -17.383  28.067  0.00  0.00    -0.351 OA
ATOM    129  H5  NON d   1       8.557 -16.593  27.676  0.00  0.00     0.086 H 
ATOM    130  H1  NON d   1       5.110 -16.363  28.901  0.00  0.00     0.133 H 
BRANCH 121 131
ATOM    131  O2  NON d   1       4.528 -16.026  26.510  0.00  0.00    -0.388 OA
ATOM    132  H9  NON d   1       3.834 -16.059  27.158  0.00  0.00     0.210 HD
ENDBRANCH 121 131
BRANCH 122 133
ATOM    133  O3  NON d   1       6.361 -14.761  24.824  0.00  0.00    -0.390 OA
ATOM    134  H10 NON d   1       6.001 -13.893  24.967  0.00  0.00     0.210 HD
ENDBRANCH 122 133
BRANCH 124 135
ATOM    135  O4  NON d   1       8.494 -16.541  25.015  0.00  0.00    -0.390 OA
ATOM    136  H11 NON d   1       8.212 -16.181  24.183  0.00  0.00     0.210 HD
ENDBRANCH 124 135
BRANCH 126 137
ATOM    137  C6  NON d   1       8.390 -18.646  27.035  0.00  0.00    -0.050 C 
ATOM    138  H6  NON d   1       8.696 -19.046  28.013  0.00  0.00     0.031 H 
ATOM    139  H7  NON d   1       9.265 -18.594  26.370  0.00  0.00     0.031 H 
ATOM    140  H8  NON d   1       7.630 -19.306  26.590  0.00  0.00     0.031 H 
ENDBRANCH 126 137
ENDBRANCH 119 120
ENDBRANCH 116 119
ENDBRANCH 105 116
ENDBRANCH  98  99
ENDBRANCH   4  98
TORSDOF 37
