REMARK WARNING: 32 MAX_TORS EXCEEDED!!!
REMARK  37 active torsions:
REMARK  status: ('A' for Active; 'I' for Inactive)
REMARK    1  A    between atoms: O6_21  and  C1_1 
REMARK    2  A    between atoms: C2_2  and  O2_7 
REMARK    3  A    between atoms: C3_3  and  O3_8 
REMARK    4  A    between atoms: C4_4  and  O4_9 
REMARK    5  A    between atoms: C5_5  and  C6_6 
REMARK    6  A    between atoms: O4_30  and  C1_11 
REMARK    7  A    between atoms: C2_12  and  O2_17 
REMARK    8  A    between atoms: C3_13  and  O3_18 
REMARK    9  A    between atoms: C4_14  and  O4_19 
REMARK   10  A    between atoms: C5_15  and  C6_16 
REMARK   11  A    between atoms: C6_16  and  O6_21 
REMARK   12  A    between atoms: O3_57  and  C1_22 
REMARK   13  A    between atoms: C2_23  and  O2_28 
REMARK   14  A    between atoms: C3_24  and  O3_29 
REMARK   15  A    between atoms: C4_25  and  O4_30 
REMARK   16  A    between atoms: C5_26  and  C6_27 
REMARK   17  A    between atoms: C6_27  and  O6_32 
REMARK   18  A    between atoms: O3_29  and  C1_33 
REMARK   19  A    between atoms: C2_34  and  N2_41 
REMARK   20  A    between atoms: C3_35  and  O3_42 
REMARK   21  A    between atoms: C4_36  and  O4_43 
REMARK   22  A    between atoms: C5_37  and  C6_38 
REMARK   23  A    between atoms: C6_38  and  O6_45 
REMARK   24  A    between atoms: C7_39  and  C8_40 
REMARK       I    between atoms: N2_41  and  C7_39 
REMARK   25  A    between atoms: C1_47  and  O1_56 
REMARK   26  A    between atoms: N2_55  and  C2_48 
REMARK   27  A    between atoms: C3_49  and  O3_57 
REMARK   28  A    between atoms: C4_50  and  O4_58 
REMARK   29  A    between atoms: C5_51  and  C6_52 
REMARK   30  A    between atoms: C6_52  and  O6_60 
REMARK   31  A    between atoms: C7_53  and  C8_54 
REMARK       I    between atoms: C7_53  and  N2_55 
REMARK   32  A    between atoms: O6_60  and  C1_62 
REMARK   33  A    between atoms: C2_63  and  O2_68 
REMARK   34  A    between atoms: C3_64  and  O3_69 
REMARK   35  A    between atoms: C4_65  and  O4_70 
REMARK   36  A    between atoms: C5_66  and  C6_67 
REMARK   37  A    between atoms: C6_67  and  O6_72 
ROOT
ATOM      1  C1  NON d   1       9.017 -14.038  36.728  0.00  0.00     0.159 C 
ATOM      2  C2  NON d   1       8.664 -15.259  35.871  0.00  0.00     0.110 C 
ATOM      3  C3  NON d   1       9.162 -15.067  34.435  0.00  0.00     0.098 C 
ATOM      4  C4  NON d   1       8.744 -13.705  33.871  0.00  0.00     0.096 C 
ATOM      5  C5  NON d   1       9.243 -12.602  34.826  0.00  0.00     0.089 C 
ATOM      6  O5  NON d   1       8.747 -12.772  36.154  0.00  0.00    -0.348 OA
ATOM      7  H22 NON d   1       8.494 -14.118  37.692  0.00  0.00     0.133 H 
ATOM      8  H23 NON d   1       7.567 -15.316  35.820  0.00  0.00     0.094 H 
ATOM      9  H24 NON d   1      10.261 -15.111  34.437  0.00  0.00     0.091 H 
ATOM     10  H25 NON d   1       9.225 -13.584  32.889  0.00  0.00     0.091 H 
ATOM     11  H26 NON d   1      10.340 -12.683  34.853  0.00  0.00     0.090 H 
ENDROOT
BRANCH   1  12
ATOM     12  O3  NON d   1      10.417 -14.057  36.904  0.00  0.00    -0.348 OA
BRANCH  12  13
ATOM     13  C3  NON d   1      10.883 -13.363  38.060  0.00  0.00     0.093 C 
ATOM     14  C2  NON d   1      12.194 -12.654  37.789  0.00  0.00     0.087 C 
ATOM     15  C1  NON d   1      12.596 -11.944  39.076  0.00  0.00     0.151 C 
ATOM     16  H46 NON d   1      12.953 -13.403  37.517  0.00  0.00     0.084 H 
ATOM     17  O5  NON d   1      12.773 -12.811  40.165  0.00  0.00    -0.349 OA
ATOM     18  H45 NON d   1      11.818 -11.202  39.308  0.00  0.00     0.132 H 
ATOM     19  C5  NON d   1      11.639 -13.597  40.469  0.00  0.00     0.089 C 
ATOM     20  C4  NON d   1      11.058 -14.314  39.245  0.00  0.00     0.089 C 
ATOM     21  H49 NON d   1      10.857 -12.943  40.883  0.00  0.00     0.090 H 
ATOM     22  H48 NON d   1      11.775 -15.090  38.939  0.00  0.00     0.091 H 
ATOM     23  H47 NON d   1      10.130 -12.608  38.329  0.00  0.00     0.091 H 
BRANCH  14  24
ATOM     24  N2  NON d   1      12.126 -11.653  36.731  0.00  0.00    -0.349 N 
ATOM     25  C7  NON d   1      12.772 -11.802  35.563  0.00  0.00     0.214 C 
ATOM     26  O7  NON d   1      13.401 -12.828  35.245  0.00  0.00    -0.274 OA
ATOM     27  H55 NON d   1      11.580 -10.828  36.880  0.00  0.00     0.163 HD
BRANCH  25  28
ATOM     28  C8  NON d   1      12.659 -10.656  34.597  0.00  0.00    -0.003 C 
ATOM     29  H52 NON d   1      13.224 -10.890  33.683  0.00  0.00     0.040 H 
ATOM     30  H53 NON d   1      13.069  -9.745  35.059  0.00  0.00     0.040 H 
ATOM     31  H54 NON d   1      11.601 -10.494  34.342  0.00  0.00     0.040 H 
ENDBRANCH  25  28
ENDBRANCH  14  24
BRANCH  15  32
ATOM     32  O1  NON d   1      13.840 -11.323  38.997  0.00  0.00    -0.369 OA
ATOM     33  H56 NON d   1      14.511 -11.979  38.847  0.00  0.00     0.212 HD
ENDBRANCH  15  32
BRANCH  19  34
ATOM     34  C6  NON d   1      12.065 -14.602  41.529  0.00  0.00     0.049 C 
ATOM     35  H50 NON d   1      13.088 -14.948  41.319  0.00  0.00     0.078 H 
ATOM     36  H51 NON d   1      11.378 -15.461  41.520  0.00  0.00     0.078 H 
BRANCH  34  37
ATOM     37  O6  NON d   1      12.027 -13.974  42.807  0.00  0.00    -0.356 OA
BRANCH  37  38
ATOM     38  C1  NON d   1      10.912 -14.073  43.551  0.00  0.00     0.158 C 
ATOM     39  C2  NON d   1      10.926 -13.243  44.823  0.00  0.00     0.110 C 
ATOM     40  C3  NON d   1      12.019 -13.803  45.732  0.00  0.00     0.092 C 
ATOM     41  H59 NON d   1       9.950 -13.319  45.325  0.00  0.00     0.094 H 
ATOM     42  C4  NON d   1      11.735 -15.280  45.990  0.00  0.00     0.090 C 
ATOM     43  H60 NON d   1      12.989 -13.716  45.220  0.00  0.00     0.091 H 
ATOM     44  C5  NON d   1      11.487 -16.064  44.693  0.00  0.00     0.089 C 
ATOM     45  H61 NON d   1      10.830 -15.354  46.610  0.00  0.00     0.091 H 
ATOM     46  O5  NON d   1      10.531 -15.379  43.904  0.00  0.00    -0.348 OA
ATOM     47  H62 NON d   1      12.431 -16.090  44.129  0.00  0.00     0.090 H 
ATOM     48  H58 NON d   1      10.107 -13.671  42.919  0.00  0.00     0.133 H 
BRANCH  39  49
ATOM     49  O2  NON d   1      11.189 -11.888  44.523  0.00  0.00    -0.388 OA
ATOM     50  H65 NON d   1      10.504 -11.551  43.958  0.00  0.00     0.210 HD
ENDBRANCH  39  49
BRANCH  40  51
ATOM     51  O3  NON d   1      12.083 -13.064  46.934  0.00  0.00    -0.390 OA
ATOM     52  H66 NON d   1      11.254 -13.133  47.392  0.00  0.00     0.210 HD
ENDBRANCH  40  51
BRANCH  42  53
ATOM     53  O4  NON d   1      12.810 -15.831  46.697  0.00  0.00    -0.390 OA
ATOM     54  H67 NON d   1      12.950 -15.335  47.495  0.00  0.00     0.210 HD
ENDBRANCH  42  53
BRANCH  44  55
ATOM     55  C6  NON d   1      11.081 -17.512  44.966  0.00  0.00     0.043 C 
ATOM     56  H63 NON d   1      11.860 -18.009  45.563  0.00  0.00     0.078 H 
ATOM     57  H64 NON d   1      10.952 -18.047  44.013  0.00  0.00     0.078 H 
BRANCH  55  58
ATOM     58  O6  NON d   1       9.866 -17.511  45.678  0.00  0.00    -0.398 OA
ATOM     59  H68 NON d   1       9.982 -17.047  46.499  0.00  0.00     0.209 HD
ENDBRANCH  55  58
ENDBRANCH  44  55
ENDBRANCH  37  38
ENDBRANCH  34  37
ENDBRANCH  19  34
BRANCH  20  60
ATOM     60  O4  NON d   1       9.848 -14.960  39.597  0.00  0.00    -0.390 OA
ATOM     61  H57 NON d   1      10.017 -15.595  40.283  0.00  0.00     0.210 HD
ENDBRANCH  20  60
ENDBRANCH  12  13
ENDBRANCH   1  12
BRANCH   2  62
ATOM     62  O2  NON d   1       9.103 -16.463  36.481  0.00  0.00    -0.388 OA
ATOM     63  H29 NON d   1       8.757 -16.513  37.364  0.00  0.00     0.210 HD
ENDBRANCH   2  62
BRANCH   3  64
ATOM     64  O3  NON d   1       8.668 -16.131  33.640  0.00  0.00    -0.348 OA
BRANCH  64  65
ATOM     65  C1  NON d   1       9.526 -17.126  33.317  0.00  0.00     0.154 C 
ATOM     66  C2  NON d   1       8.756 -18.394  32.938  0.00  0.00     0.087 C 
ATOM     67  C3  NON d   1       9.667 -19.457  32.321  0.00  0.00     0.086 C 
ATOM     68  H32 NON d   1       7.983 -18.128  32.202  0.00  0.00     0.084 H 
ATOM     69  C4  NON d   1      10.699 -18.864  31.363  0.00  0.00     0.089 C 
ATOM     70  H33 NON d   1      10.202 -19.971  33.133  0.00  0.00     0.090 H 
ATOM     71  C5  NON d   1      11.371 -17.633  31.958  0.00  0.00     0.089 C 
ATOM     72  H34 NON d   1      10.198 -18.571  30.428  0.00  0.00     0.091 H 
ATOM     73  O5  NON d   1      10.384 -16.667  32.283  0.00  0.00    -0.349 OA
ATOM     74  H35 NON d   1      11.901 -17.931  32.874  0.00  0.00     0.090 H 
ATOM     75  H31 NON d   1      10.144 -17.358  34.197  0.00  0.00     0.132 H 
BRANCH  66  76
ATOM     76  N2  NON d   1       8.114 -18.933  34.127  0.00  0.00    -0.349 N 
ATOM     77  C7  NON d   1       6.807 -19.017  34.294  0.00  0.00     0.214 C 
ATOM     78  O7  NON d   1       6.015 -18.666  33.434  0.00  0.00    -0.274 OA
ATOM     79  H41 NON d   1       8.701 -19.262  34.867  0.00  0.00     0.163 HD
BRANCH  77  80
ATOM     80  C8  NON d   1       6.358 -19.590  35.615  0.00  0.00    -0.003 C 
ATOM     81  H38 NON d   1       5.259 -19.615  35.649  0.00  0.00     0.040 H 
ATOM     82  H39 NON d   1       6.736 -18.962  36.435  0.00  0.00     0.040 H 
ATOM     83  H40 NON d   1       6.751 -20.611  35.724  0.00  0.00     0.040 H 
ENDBRANCH  77  80
ENDBRANCH  66  76
BRANCH  67  84
ATOM     84  O3  NON d   1       8.869 -20.395  31.624  0.00  0.00    -0.391 OA
ATOM     85  H42 NON d   1       8.226 -20.765  32.218  0.00  0.00     0.210 HD
ENDBRANCH  67  84
BRANCH  69  86
ATOM     86  O4  NON d   1      11.653 -19.877  31.087  0.00  0.00    -0.390 OA
ATOM     87  H43 NON d   1      12.293 -19.547  30.467  0.00  0.00     0.210 HD
ENDBRANCH  69  86
BRANCH  71  88
ATOM     88  C6  NON d   1      12.377 -17.006  30.992  0.00  0.00     0.043 C 
ATOM     89  H36 NON d   1      13.096 -17.777  30.679  0.00  0.00     0.078 H 
ATOM     90  H37 NON d   1      12.910 -16.196  31.511  0.00  0.00     0.078 H 
BRANCH  88  91
ATOM     91  O6  NON d   1      11.751 -16.476  29.845  0.00  0.00    -0.398 OA
ATOM     92  H44 NON d   1      11.293 -17.170  29.386  0.00  0.00     0.209 HD
ENDBRANCH  88  91
ENDBRANCH  71  88
ENDBRANCH  64  65
ENDBRANCH   3  64
BRANCH   5  93
ATOM     93  C6  NON d   1       8.894 -11.174  34.415  0.00  0.00     0.043 C 
ATOM     94  H27 NON d   1       9.298 -10.471  35.158  0.00  0.00     0.078 H 
ATOM     95  H28 NON d   1       7.801 -11.066  34.364  0.00  0.00     0.078 H 
BRANCH  93  96
ATOM     96  O6  NON d   1       9.449 -10.891  33.157  0.00  0.00    -0.398 OA
ATOM     97  H30 NON d   1       9.228 -10.001  32.907  0.00  0.00     0.209 HD
ENDBRANCH  93  96
ENDBRANCH   5  93
BRANCH   4  98
ATOM     98  O4  NON d   1       7.426 -13.537  33.712  0.00  0.00    -0.348 OA
BRANCH  98  99
ATOM     99  C1  NON d   1       7.014 -13.056  32.441  0.00  0.00     0.159 C 
ATOM    100  C2  NON d   1       5.543 -12.645  32.463  0.00  0.00     0.110 C 
ATOM    101  C3  NON d   1       4.625 -13.875  32.552  0.00  0.00     0.092 C 
ATOM    102  H13 NON d   1       5.315 -12.117  31.525  0.00  0.00     0.094 H 
ATOM    103  C4  NON d   1       4.977 -14.874  31.457  0.00  0.00     0.090 C 
ATOM    104  H14 NON d   1       4.774 -14.358  33.529  0.00  0.00     0.091 H 
ATOM    105  C5  NON d   1       6.481 -15.197  31.534  0.00  0.00     0.089 C 
ATOM    106  H15 NON d   1       4.766 -14.420  30.477  0.00  0.00     0.091 H 
ATOM    107  O5  NON d   1       7.226 -13.993  31.407  0.00  0.00    -0.348 OA
ATOM    108  H16 NON d   1       6.680 -15.666  32.509  0.00  0.00     0.090 H 
ATOM    109  H12 NON d   1       7.616 -12.164  32.214  0.00  0.00     0.133 H 
BRANCH 100 110
ATOM    110  O2  NON d   1       5.322 -11.754  33.543  0.00  0.00    -0.388 OA
ATOM    111  H19 NON d   1       5.497 -12.202  34.362  0.00  0.00     0.210 HD
ENDBRANCH 100 110
BRANCH 101 112
ATOM    112  O3  NON d   1       3.265 -13.475  32.445  0.00  0.00    -0.390 OA
ATOM    113  H20 NON d   1       3.064 -12.853  33.135  0.00  0.00     0.210 HD
ENDBRANCH 101 112
BRANCH 103 114
ATOM    114  O4  NON d   1       4.178 -16.039  31.593  0.00  0.00    -0.390 OA
ATOM    115  H21 NON d   1       4.353 -16.445  32.434  0.00  0.00     0.210 HD
ENDBRANCH 103 114
BRANCH 105 116
ATOM    116  C6  NON d   1       7.012 -16.104  30.432  0.00  0.00     0.049 C 
ATOM    117  H17 NON d   1       6.622 -17.120  30.594  0.00  0.00     0.078 H 
ATOM    118  H18 NON d   1       8.110 -16.120  30.488  0.00  0.00     0.078 H 
BRANCH 116 119
ATOM    119  O6  NON d   1       6.645 -15.689  29.187  0.00  0.00    -0.356 OA
BRANCH 119 120
ATOM    120  C1  NON d   1       5.802 -16.531  28.431  0.00  0.00     0.158 C 
ATOM    121  C2  NON d   1       5.430 -15.762  27.165  0.00  0.00     0.110 C 
ATOM    122  C3  NON d   1       6.589 -15.655  26.183  0.00  0.00     0.092 C 
ATOM    123  H2  NON d   1       5.123 -14.746  27.455  0.00  0.00     0.094 H 
ATOM    124  C4  NON d   1       7.243 -17.014  26.000  0.00  0.00     0.087 C 
ATOM    125  H3  NON d   1       7.335 -14.957  26.590  0.00  0.00     0.091 H 
ATOM    126  C5  NON d   1       7.640 -17.605  27.359  0.00  0.00     0.065 C 
ATOM    127  H4  NON d   1       6.529 -17.698  25.518  0.00  0.00     0.091 H 
ATOM    128  O5  NON d   1       6.479 -17.756  28.159  0.00  0.00    -0.351 OA
ATOM    129  H5  NON d   1       8.353 -16.925  27.849  0.00  0.00     0.086 H 
ATOM    130  H1  NON d   1       4.887 -16.753  29.000  0.00  0.00     0.133 H 
BRANCH 121 131
ATOM    131  O2  NON d   1       4.358 -16.400  26.528  0.00  0.00    -0.388 OA
ATOM    132  H9  NON d   1       4.093 -15.892  25.770  0.00  0.00     0.210 HD
ENDBRANCH 121 131
BRANCH 122 133
ATOM    133  O3  NON d   1       6.129 -15.154  24.939  0.00  0.00    -0.390 OA
ATOM    134  H10 NON d   1       5.493 -15.756  24.572  0.00  0.00     0.210 HD
ENDBRANCH 122 133
BRANCH 124 135
ATOM    135  O4  NON d   1       8.360 -16.850  25.156  0.00  0.00    -0.390 OA
ATOM    136  H11 NON d   1       8.078 -16.483  24.326  0.00  0.00     0.210 HD
ENDBRANCH 124 135
BRANCH 126 137
ATOM    137  C6  NON d   1       8.260 -18.992  27.241  0.00  0.00    -0.050 C 
ATOM    138  H6  NON d   1       8.523 -19.363  28.243  0.00  0.00     0.031 H 
ATOM    139  H7  NON d   1       9.167 -18.937  26.621  0.00  0.00     0.031 H 
ATOM    140  H8  NON d   1       7.538 -19.678  26.774  0.00  0.00     0.031 H 
ENDBRANCH 126 137
ENDBRANCH 119 120
ENDBRANCH 116 119
ENDBRANCH 105 116
ENDBRANCH  98  99
ENDBRANCH   4  98
TORSDOF 37
