REMARK  5 active torsions:
REMARK  status: ('A' for Active; 'I' for Inactive)
REMARK    1  A    between atoms: OAD_1  and  CAR_2 
REMARK    2  A    between atoms: CAS_7  and  CAT_8 
REMARK    3  A    between atoms: CAU_13  and  CAA_14 
REMARK    4  A    between atoms: CAU_13  and  CAB_15 
REMARK    5  A    between atoms: CAO_19  and  SAE_20 
ROOT
ATOM      1  CAT EGB d   1      -6.550  14.007  30.082  0.00  0.00     0.161 C 
ATOM      2  CAQ EGB d   1      -6.925  15.431  29.636  0.00  0.00     0.045 C 
ATOM      3  CAN EGB d   1      -8.195  15.925  29.920  0.00  0.00     0.160 C 
ATOM      4  OAC EGB d   1      -8.997  15.135  30.408  0.00  0.00    -0.293 OA
ATOM      5  CAJ EGB d   1      -8.682  17.346  29.559  0.00  0.00     0.001 C 
ATOM      6  CAU EGB d   1      -7.482  18.337  29.554  0.00  0.00    -0.036 C 
ATOM      7  CAK EGB d   1      -6.407  17.749  28.613  0.00  0.00    -0.020 C 
ATOM      8  CAP EGB d   1      -6.023  16.283  29.023  0.00  0.00     0.020 C 
ATOM      9  NAL EGB d   1      -4.799  15.839  28.681  0.00  0.00    -0.357 N 
ATOM     10  CAO EGB d   1      -4.329  14.613  29.307  0.00  0.00     0.210 C 
ATOM     11  NAM EGB d   1      -5.326  13.558  29.374  0.00  0.00    -0.033 N 
ATOM     12  H6  EGB d   1      -7.364  13.338  29.768  0.00  0.00     0.100 H 
ATOM     13  H7  EGB d   1      -9.423  17.676  30.302  0.00  0.00     0.046 H 
ATOM     14  H8  EGB d   1      -9.145  17.330  28.561  0.00  0.00     0.046 H 
ATOM     15  H15 EGB d   1      -5.507  18.380  28.659  0.00  0.00     0.043 H 
ATOM     16  H16 EGB d   1      -6.797  17.742  27.585  0.00  0.00     0.043 H 
ATOM     17  H17 EGB d   1      -4.217  16.349  28.001  0.00  0.00     0.162 HD
ATOM     18  H18 EGB d   1      -4.049  14.860  30.342  0.00  0.00     0.136 H 
ATOM     19  H20 EGB d   1      -5.573  13.282  28.437  0.00  0.00     0.281 HD
ATOM     20  H21 EGB d   1      -4.935  12.769  29.865  0.00  0.00     0.281 HD
ENDROOT
BRANCH   1  21
ATOM     21  CAS EGB d   1      -6.462  13.905  31.631  0.00  0.00    -0.020 A 
ATOM     22  CAI EGB d   1      -7.414  13.151  32.325  0.00  0.00    -0.043 A 
ATOM     23  CAR EGB d   1      -7.383  13.019  33.729  0.00  0.00     0.066 A 
ATOM     24  H2  EGB d   1      -8.199  12.653  31.767  0.00  0.00     0.088 H 
ATOM     25  CAG EGB d   1      -6.424  13.685  34.488  0.00  0.00    -0.051 A 
ATOM     26  CAF EGB d   1      -5.488  14.479  33.815  0.00  0.00    -0.080 A 
ATOM     27  H3  EGB d   1      -6.403  13.591  35.568  0.00  0.00     0.087 H 
ATOM     28  CAH EGB d   1      -5.515  14.599  32.409  0.00  0.00    -0.074 A 
ATOM     29  H4  EGB d   1      -4.731  15.009  34.382  0.00  0.00     0.083 H 
ATOM     30  H5  EGB d   1      -4.791  15.239  31.917  0.00  0.00     0.084 H 
BRANCH  23  31
ATOM     31  OAD EGB d   1      -8.316  12.230  34.345  0.00  0.00    -0.361 OA
ATOM     32  H1  EGB d   1      -9.185  12.564  34.157  0.00  0.00     0.217 HD
ENDBRANCH  23  31
ENDBRANCH   1  21
BRANCH  10  33
ATOM     33  SAE EGB d   1      -2.854  14.033  28.452  0.00  0.00    -0.129 SA
ATOM     34  H19 EGB d   1      -2.528  13.183  28.886  0.00  0.00     0.105 HD
ENDBRANCH  10  33
BRANCH   6  35
ATOM     35  CAA EGB d   1      -6.865  18.481  30.952  0.00  0.00    -0.069 C 
ATOM     36  H9  EGB d   1      -6.022  19.187  30.910  0.00  0.00     0.028 H 
ATOM     37  H10 EGB d   1      -6.505  17.500  31.297  0.00  0.00     0.028 H 
ATOM     38  H11 EGB d   1      -7.625  18.859  31.651  0.00  0.00     0.028 H 
ENDBRANCH   6  35
BRANCH   6  39
ATOM     39  CAB EGB d   1      -7.956  19.728  29.097  0.00  0.00    -0.069 C 
ATOM     40  H12 EGB d   1      -8.403  19.652  28.095  0.00  0.00     0.028 H 
ATOM     41  H13 EGB d   1      -7.098  20.415  29.064  0.00  0.00     0.028 H 
ATOM     42  H14 EGB d   1      -8.706  20.111  29.805  0.00  0.00     0.028 H 
ENDBRANCH   6  39
TORSDOF 5
