REMARK  9 active torsions:
REMARK  status: ('A' for Active; 'I' for Inactive)
REMARK    1  A    between atoms: CAH_7  and  NAI_6 
REMARK    2  A    between atoms: CAG_8  and  CAH_7 
REMARK    3  A    between atoms: NAP_14  and  CAQ_13 
REMARK    4  A    between atoms: CAO_15  and  NAP_14 
REMARK    5  A    between atoms: CAO_15  and  CAN_16 
REMARK    6  A    between atoms: C21_35  and  CBF_30 
REMARK    7  A    between atoms: CAT_34  and  CAX_33 
REMARK    8  A    between atoms: N25_36  and  CAT_34 
REMARK       I    between atoms: C21_35  and  N25_36 
REMARK    9  A    between atoms: N25_36  and  C29_37 
ROOT
ATOM      1  CAO ZOP d   1      89.285  54.125  55.326  0.00  0.00     0.059 C 
ATOM      2  CBD ZOP d   1      88.610  54.381  56.546  0.00  0.00     0.072 A 
ATOM      3  CBC ZOP d   1      88.399  55.685  57.244  0.00  0.00     0.009 A 
ATOM      4  CBB ZOP d   1      88.760  57.040  56.992  0.00  0.00    -0.069 A 
ATOM      5  CBJ ZOP d   1      87.964  53.413  57.389  0.00  0.00     0.259 A 
ATOM      6  OBK ZOP d   1      87.892  52.216  57.178  0.00  0.00    -0.267 OA
ATOM      7  NBI ZOP d   1      87.410  54.016  58.442  0.00  0.00    -0.322 N 
ATOM      8  CBH ZOP d   1      87.649  55.375  58.415  0.00  0.00     0.047 A 
ATOM      9  CBG ZOP d   1      87.269  56.401  59.287  0.00  0.00    -0.041 A 
ATOM     10  CBF ZOP d   1      87.655  57.739  59.028  0.00  0.00     0.034 A 
ATOM     11  CBA ZOP d   1      88.398  58.051  57.866  0.00  0.00    -0.067 A 
ATOM     12  H   ZOP d   1      89.331  57.285  56.096  0.00  0.00     0.085 H 
ATOM     13  H   ZOP d   1      86.880  53.537  59.170  0.00  0.00     0.169 HD
ATOM     14  H   ZOP d   1      86.673  56.170  60.170  0.00  0.00     0.088 H 
ATOM     15  H   ZOP d   1      88.684  59.082  57.659  0.00  0.00     0.085 H 
ENDROOT
BRANCH   1  16
ATOM     16  NAP ZOP d   1      89.335  52.807  54.877  0.00  0.00    -0.355 N 
ATOM     17  H   ZOP d   1      88.718  52.173  55.385  0.00  0.00     0.166 HD
BRANCH  16  18
ATOM     18  CAQ ZOP d   1      90.079  52.182  53.850  0.00  0.00     0.032 A 
ATOM     19  CAR ZOP d   1      90.495  52.832  52.663  0.00  0.00    -0.057 A 
ATOM     20  CAS ZOP d   1      91.209  52.138  51.677  0.00  0.00    -0.073 A 
ATOM     21  H   ZOP d   1      90.257  53.885  52.514  0.00  0.00     0.086 H 
ATOM     22  CAG ZOP d   1      91.500  50.774  51.847  0.00  0.00    -0.030 A 
ATOM     23  H   ZOP d   1      91.539  52.657  50.777  0.00  0.00     0.084 H 
ATOM     24  CAF ZOP d   1      91.074  50.106  53.010  0.00  0.00    -0.073 A 
ATOM     25  CAE ZOP d   1      90.360  50.803  54.000  0.00  0.00    -0.057 A 
ATOM     26  H   ZOP d   1      91.298  49.048  53.143  0.00  0.00     0.084 H 
ATOM     27  H   ZOP d   1      90.019  50.276  54.892  0.00  0.00     0.086 H 
BRANCH  22  28
ATOM     28  CAH ZOP d   1      92.262  50.030  50.776  0.00  0.00     0.137 C 
ATOM     29  H   ZOP d   1      93.224  50.514  50.608  0.00  0.00     0.087 H 
ATOM     30  H   ZOP d   1      92.431  49.001  51.094  0.00  0.00     0.087 H 
BRANCH  28  31
ATOM     31  NAI ZOP d   1      91.476  50.041  49.528  0.00  0.00     0.092 N 
ATOM     32  CAJ ZOP d   1      92.313  50.358  48.352  0.00  0.00     0.114 C 
ATOM     33  CAL ZOP d   1      91.429  50.540  47.101  0.00  0.00    -0.040 C 
ATOM     34  H   ZOP d   1      92.858  51.283  48.541  0.00  0.00     0.079 H 
ATOM     35  H   ZOP d   1      93.010  49.538  48.179  0.00  0.00     0.079 H 
ATOM     36  CAW ZOP d   1      90.554  49.290  46.864  0.00  0.00    -0.062 C 
ATOM     37  H   ZOP d   1      92.072  50.689  46.234  0.00  0.00     0.035 H 
ATOM     38  H   ZOP d   1      90.779  51.402  47.252  0.00  0.00     0.035 H 
ATOM     39  CAV ZOP d   1      89.758  48.918  48.133  0.00  0.00    -0.040 C 
ATOM     40  H   ZOP d   1      91.204  48.455  46.603  0.00  0.00     0.033 H 
ATOM     41  H   ZOP d   1      89.849  49.506  46.061  0.00  0.00     0.033 H 
ATOM     42  CAK ZOP d   1      90.694  48.796  49.352  0.00  0.00     0.114 C 
ATOM     43  H   ZOP d   1      89.267  47.959  47.970  0.00  0.00     0.035 H 
ATOM     44  H   ZOP d   1      89.025  49.701  48.330  0.00  0.00     0.035 H 
ATOM     45  H   ZOP d   1      91.381  47.965  49.191  0.00  0.00     0.079 H 
ATOM     46  H   ZOP d   1      90.094  48.624  50.245  0.00  0.00     0.079 H 
ENDBRANCH  28  31
ENDBRANCH  22  28
ENDBRANCH  16  18
ENDBRANCH   1  16
BRANCH   1  47
ATOM     47  CAN ZOP d   1      89.877  55.257  54.575  0.00  0.00    -0.008 A 
ATOM     48  CAM ZOP d   1      89.156  55.821  53.489  0.00  0.00    -0.071 A 
ATOM     49  CAC ZOP d   1      89.687  56.896  52.766  0.00  0.00    -0.082 A 
ATOM     50  H   ZOP d   1      88.182  55.414  53.217  0.00  0.00     0.084 H 
ATOM     51  CAA ZOP d   1      90.938  57.425  53.117  0.00  0.00    -0.083 A 
ATOM     52  H   ZOP d   1      89.129  57.321  51.932  0.00  0.00     0.083 H 
ATOM     53  CAB ZOP d   1      91.656  56.878  54.195  0.00  0.00    -0.082 A 
ATOM     54  H   ZOP d   1      91.354  58.261  52.554  0.00  0.00     0.083 H 
ATOM     55  CAD ZOP d   1      91.139  55.800  54.928  0.00  0.00    -0.071 A 
ATOM     56  H   ZOP d   1      92.626  57.297  54.464  0.00  0.00     0.083 H 
ATOM     57  H   ZOP d   1      91.703  55.383  55.763  0.00  0.00     0.084 H 
ENDBRANCH   1  47
BRANCH  10  58
ATOM     58  C21 ZOP d   1      87.253  58.813  59.960  0.00  0.00     0.253 C 
ATOM     59  OBE ZOP d   1      86.470  59.650  59.529  0.00  0.00    -0.267 OA
ATOM     60  N25 ZOP d   1      87.724  58.875  61.250  0.00  0.00    -0.353 N 
BRANCH  60  61
ATOM     61  CAT ZOP d   1      87.300  59.947  62.150  0.00  0.00    -0.006 C 
ATOM     62  H   ZOP d   1      88.166  60.349  62.676  0.00  0.00     0.063 H 
ATOM     63  H   ZOP d   1      86.831  60.745  61.574  0.00  0.00     0.063 H 
BRANCH  61  64
ATOM     64  CAX ZOP d   1      86.299  59.385  63.162  0.00  0.00    -0.061 C 
ATOM     65  H   ZOP d   1      85.434  58.986  62.632  0.00  0.00     0.029 H 
ATOM     66  H   ZOP d   1      86.773  58.589  63.736  0.00  0.00     0.029 H 
ATOM     67  H   ZOP d   1      85.980  60.180  63.835  0.00  0.00     0.029 H 
ENDBRANCH  61  64
ENDBRANCH  60  61
BRANCH  60  68
ATOM     68  C29 ZOP d   1      88.665  57.892  61.810  0.00  0.00    -0.016 C 
ATOM     69  H   ZOP d   1      89.576  58.401  62.123  0.00  0.00     0.056 H 
ATOM     70  H   ZOP d   1      88.207  57.401  62.669  0.00  0.00     0.056 H 
ATOM     71  H   ZOP d   1      88.906  57.148  61.051  0.00  0.00     0.056 H 
ENDBRANCH  60  68
ENDBRANCH  10  58
TORSDOF 9
