REMARK  7 active torsions:
REMARK  status: ('A' for Active; 'I' for Inactive)
REMARK    1  A    between atoms: SAZ_2  and  NAC_4 
REMARK    2  A    between atoms: SAZ_2  and  OAP_5 
REMARK    3  A    between atoms: OAP_5  and  CAV_6 
REMARK    4  A    between atoms: CAQ_15  and  OAF_16 
REMARK    5  A    between atoms: CAS_17  and  OAO_18 
REMARK    6  A    between atoms: OAO_18  and  CAA_19 
REMARK    7  A    between atoms: CAY_25  and  CAB_26 
ROOT
ATOM      1  CAV WZC d   1      20.555  28.096  18.668  0.00  0.00     0.066 C 
ATOM      2  CAK WZC d   1      20.734  28.194  17.143  0.00  0.00    -0.038 C 
ATOM      3  CAM WZC d   1      21.330  29.574  16.859  0.00  0.00    -0.058 C 
ATOM      4  CAX WZC d   1      21.720  30.027  18.259  0.00  0.00    -0.041 C 
ATOM      5  CAW WZC d   1      22.050  31.493  18.513  0.00  0.00    -0.042 C 
ATOM      6  CAJ WZC d   1      23.011  32.074  17.487  0.00  0.00    -0.057 C 
ATOM      7  CAI WZC d   1      23.199  33.560  17.777  0.00  0.00    -0.040 C 
ATOM      8  CAR WZC d   1      23.353  33.857  19.258  0.00  0.00    -0.049 A 
ATOM      9  CAG WZC d   1      23.767  35.142  19.609  0.00  0.00    -0.042 A 
ATOM     10  CAQ WZC d   1      23.939  35.502  20.940  0.00  0.00     0.099 A 
ATOM     11  CAS WZC d   1      23.694  34.579  21.943  0.00  0.00     0.101 A 
ATOM     12  CAH WZC d   1      23.273  33.286  21.603  0.00  0.00    -0.041 A 
ATOM     13  CAT WZC d   1      23.105  32.917  20.262  0.00  0.00    -0.044 A 
ATOM     14  CAU WZC d   1      22.652  31.538  19.926  0.00  0.00    -0.024 C 
ATOM     15  CAL WZC d   1      21.661  31.021  20.979  0.00  0.00    -0.057 C 
ATOM     16  CAN WZC d   1      21.070  29.643  20.650  0.00  0.00    -0.055 C 
ATOM     17  CAY WZC d   1      20.629  29.524  19.188  0.00  0.00    -0.012 C 
ATOM     18  H   WZC d   1      21.333  27.484  19.125  0.00  0.00     0.086 H 
ATOM     19  H   WZC d   1      19.780  28.070  16.631  0.00  0.00     0.036 H 
ATOM     20  H   WZC d   1      21.390  27.404  16.777  0.00  0.00     0.036 H 
ATOM     21  H   WZC d   1      20.641  30.253  16.356  0.00  0.00     0.033 H 
ATOM     22  H   WZC d   1      22.164  29.554  16.157  0.00  0.00     0.033 H 
ATOM     23  H   WZC d   1      22.704  29.595  18.442  0.00  0.00     0.042 H 
ATOM     24  H   WZC d   1      21.152  32.105  18.426  0.00  0.00     0.041 H 
ATOM     25  H   WZC d   1      22.605  31.942  16.484  0.00  0.00     0.034 H 
ATOM     26  H   WZC d   1      23.971  31.561  17.548  0.00  0.00     0.034 H 
ATOM     27  H   WZC d   1      22.311  34.084  17.423  0.00  0.00     0.040 H 
ATOM     28  H   WZC d   1      24.111  33.885  17.275  0.00  0.00     0.040 H 
ATOM     29  H   WZC d   1      23.959  35.876  18.826  0.00  0.00     0.088 H 
ATOM     30  H   WZC d   1      23.074  32.559  22.391  0.00  0.00     0.088 H 
ATOM     31  H   WZC d   1      23.518  30.877  19.936  0.00  0.00     0.048 H 
ATOM     32  H   WZC d   1      20.833  31.728  21.021  0.00  0.00     0.034 H 
ATOM     33  H   WZC d   1      22.206  30.925  21.918  0.00  0.00     0.034 H 
ATOM     34  H   WZC d   1      20.191  29.497  21.278  0.00  0.00     0.034 H 
ATOM     35  H   WZC d   1      21.843  28.895  20.829  0.00  0.00     0.034 H 
ENDROOT
BRANCH   1  36
ATOM     36  OAP WZC d   1      19.342  27.439  19.018  0.00  0.00    -0.254 OA
BRANCH  36  37
ATOM     37  SAZ WZC d   1      19.294  25.940  19.353  0.00  0.00     0.356 S 
ATOM     38  OAD WZC d   1      17.896  25.575  19.627  0.00  0.00    -0.176 OA
ATOM     39  OAE WZC d   1      20.061  25.519  20.525  0.00  0.00    -0.176 OA
BRANCH  37  40
ATOM     40  NAC WZC d   1      19.854  25.119  18.188  0.00  0.00    -0.306 N 
ATOM     41  H   WZC d   1      19.265  24.430  17.720  0.00  0.00     0.171 HD
ATOM     42  H   WZC d   1      20.816  25.261  17.880  0.00  0.00     0.171 HD
ENDBRANCH  37  40
ENDBRANCH  36  37
ENDBRANCH   1  36
BRANCH  17  43
ATOM     43  CAB WZC d   1      19.281  30.234  18.996  0.00  0.00    -0.066 C 
ATOM     44  H   WZC d   1      19.403  31.300  19.185  0.00  0.00     0.028 H 
ATOM     45  H   WZC d   1      18.934  30.082  17.974  0.00  0.00     0.028 H 
ATOM     46  H   WZC d   1      18.552  29.822  19.694  0.00  0.00     0.028 H 
ENDBRANCH  17  43
BRANCH  11  47
ATOM     47  OAO WZC d   1      23.872  34.950  23.260  0.00  0.00    -0.353 OA
BRANCH  47  48
ATOM     48  CAA WZC d   1      24.420  34.047  24.225  0.00  0.00     0.010 C 
ATOM     49  H   WZC d   1      23.783  33.166  24.299  0.00  0.00     0.066 H 
ATOM     50  H   WZC d   1      25.421  33.748  23.914  0.00  0.00     0.066 H 
ATOM     51  H   WZC d   1      24.472  34.542  25.195  0.00  0.00     0.066 H 
ENDBRANCH  47  48
ENDBRANCH  11  47
BRANCH  10  52
ATOM     52  OAF WZC d   1      24.344  36.773  21.238  0.00  0.00    -0.358 OA
ATOM     53  H   WZC d   1      24.417  36.869  22.190  0.00  0.00     0.217 HD
ENDBRANCH  10  52
TORSDOF 7
