REMARK  7 active torsions:
REMARK  status: ('A' for Active; 'I' for Inactive)
REMARK    1  A    between atoms: C1_1  and  C2_2 
REMARK    2  A    between atoms: C1_1  and  O1_7 
REMARK    3  A    between atoms: C2_2  and  O2_8 
REMARK    4  A    between atoms: C3_3  and  O3_9 
REMARK    5  A    between atoms: C4_4  and  O4_10 
REMARK    6  A    between atoms: C5_5  and  C6_6 
REMARK    7  A    between atoms: C6_6  and  O6_12 
ROOT
ATOM      1  C2  NON d   1      26.897  41.716  54.619  0.00  0.00     0.213 C 
ATOM      2  C3  NON d   1      28.290  41.140  54.380  0.00  0.00     0.118 C 
ATOM      3  C4  NON d   1      29.076  41.713  55.543  0.00  0.00     0.092 C 
ATOM      4  C5  NON d   1      28.046  41.627  56.661  0.00  0.00     0.089 C 
ATOM      5  O5  NON d   1      26.832  42.010  56.009  0.00  0.00    -0.341 OA
ATOM      6  H   NON d   1      28.315  40.051  54.352  0.00  0.00     0.095 H 
ATOM      7  H   NON d   1      29.456  42.720  55.373  0.00  0.00     0.091 H 
ATOM      8  H   NON d   1      28.069  40.632  57.105  0.00  0.00     0.090 H 
ENDROOT
BRANCH   1   9
ATOM      9  C1  NON d   1      25.801  40.719  54.289  0.00  0.00     0.071 C 
ATOM     10  H   NON d   1      25.741  39.973  55.081  0.00  0.00     0.082 H 
ATOM     11  H   NON d   1      26.030  40.231  53.342  0.00  0.00     0.082 H 
BRANCH   9  12
ATOM     12  O1  NON d   1      24.552  41.397  54.182  0.00  0.00    -0.395 OA
ATOM     13  H   NON d   1      24.605  42.055  53.485  0.00  0.00     0.209 HD
ENDBRANCH   9  12
ENDBRANCH   1   9
BRANCH   1  14
ATOM     14  O2  NON d   1      26.665  42.911  53.865  0.00  0.00    -0.362 OA
ATOM     15  H   NON d   1      25.796  43.259  54.078  0.00  0.00     0.213 HD
ENDBRANCH   1  14
BRANCH   2  16
ATOM     16  O3  NON d   1      28.823  41.478  53.091  0.00  0.00    -0.387 OA
ATOM     17  H   NON d   1      29.720  41.144  53.019  0.00  0.00     0.210 HD
ENDBRANCH   2  16
BRANCH   3  18
ATOM     18  O4  NON d   1      30.276  40.982  55.818  0.00  0.00    -0.390 OA
ATOM     19  H   NON d   1      30.882  41.075  55.080  0.00  0.00     0.210 HD
ENDBRANCH   3  18
BRANCH   4  20
ATOM     20  C6  NON d   1      28.276  42.578  57.834  0.00  0.00     0.043 C 
ATOM     21  H   NON d   1      28.165  43.608  57.494  0.00  0.00     0.078 H 
ATOM     22  H   NON d   1      29.282  42.432  58.228  0.00  0.00     0.078 H 
BRANCH  20  23
ATOM     23  O6  NON d   1      27.310  42.306  58.869  0.00  0.00    -0.398 OA
ATOM     24  H   NON d   1      27.409  41.399  59.167  0.00  0.00     0.209 HD
ENDBRANCH  20  23
ENDBRANCH   4  20
TORSDOF 7
