REMARK  3 active torsions:
REMARK  status: ('A' for Active; 'I' for Inactive)
REMARK    1  A    between atoms: C15_2  and  C16_23 
REMARK    2  A    between atoms: C04_13  and  C02_11 
REMARK    3  A    between atoms: N08_17  and  C07_16 
ROOT
ATOM      1  C13 ZZL d   1       4.692 -28.678  -9.068  0.00  0.00     0.043 C 
ATOM      2  C15 ZZL d   1       6.513 -28.269  -7.351  0.00  0.00     0.079 C 
ATOM      3  C24 ZZL d   1       5.665 -28.258  -6.231  0.00  0.00     0.007 A 
ATOM      4  C26 ZZL d   1       5.270 -27.239  -4.092  0.00  0.00     0.035 A 
ATOM      5  C28 ZZL d   1       4.149 -28.039  -3.892  0.00  0.00    -0.061 A 
ATOM      6  N08 ZZL d   1       2.429 -33.169  -6.701  0.00  0.00    -0.188 N 
ATOM      7  C09 ZZL d   1       2.988 -32.055  -7.191  0.00  0.00     0.727 A 
ATOM      8  N10 ZZL d   1       3.036 -31.922  -8.534  0.00  0.00    -0.074 NA
ATOM      9  C11 ZZL d   1       3.572 -30.857  -9.112  0.00  0.00     0.031 A 
ATOM     10  C12 ZZL d   1       4.093 -29.859  -8.302  0.00  0.00     0.010 A 
ATOM     11  N14 ZZL d   1       6.079 -28.464  -8.603  0.00  0.00    -0.283 NA
ATOM     12  C25 ZZL d   1       6.035 -27.338  -5.253  0.00  0.00    -0.049 A 
ATOM     13 CL1  ZZL d   1       5.716 -26.099  -2.880  0.00  0.00    -0.084 Cl
ATOM     14  C29 ZZL d   1       3.775 -28.956  -4.867  0.00  0.00    -0.068 A 
ATOM     15  C30 ZZL d   1       4.544 -29.067  -6.026  0.00  0.00     0.007 A 
ATOM     16  C31 ZZL d   1       4.054 -30.006  -6.928  0.00  0.00     0.096 A 
ATOM     17  N32 ZZL d   1       3.499 -31.101  -6.388  0.00  0.00    -0.061 NA
ATOM     18  H   ZZL d   1       4.099 -27.781  -8.888  0.00  0.00     0.074 H 
ATOM     19  H   ZZL d   1       4.689 -28.891 -10.137  0.00  0.00     0.074 H 
ATOM     20  H   ZZL d   1       3.567 -27.947  -2.975  0.00  0.00     0.086 H 
ATOM     21  H   ZZL d   1       2.275 -33.925  -7.368  0.00  0.00     0.184 HD
ATOM     22  H   ZZL d   1       3.603 -30.767 -10.198  0.00  0.00     0.116 H 
ATOM     23  H   ZZL d   1       6.911 -26.704  -5.394  0.00  0.00     0.087 H 
ATOM     24  H   ZZL d   1       2.892 -29.580  -4.728  0.00  0.00     0.085 H 
ENDROOT
BRANCH   6  25
ATOM     25  C07 ZZL d   1       2.047 -33.410  -5.437  0.00  0.00     0.049 A 
ATOM     26  C06 ZZL d   1       2.653 -32.812  -4.328  0.00  0.00    -0.056 A 
ATOM     27  C05 ZZL d   1       2.220 -33.120  -3.039  0.00  0.00    -0.064 A 
ATOM     28  H   ZZL d   1       3.467 -32.102  -4.472  0.00  0.00     0.087 H 
ATOM     29  C04 ZZL d   1       1.187 -34.038  -2.849  0.00  0.00     0.041 A 
ATOM     30  H   ZZL d   1       2.689 -32.643  -2.179  0.00  0.00     0.085 H 
ATOM     31  C34 ZZL d   1       0.585 -34.639  -3.950  0.00  0.00    -0.064 A 
ATOM     32  C33 ZZL d   1       1.016 -34.326  -5.235  0.00  0.00    -0.056 A 
ATOM     33  H   ZZL d   1      -0.224 -35.355  -3.806  0.00  0.00     0.085 H 
ATOM     34  H   ZZL d   1       0.542 -34.802  -6.093  0.00  0.00     0.087 H 
BRANCH  29  35
ATOM     35  C02 ZZL d   1       0.691 -34.382  -1.441  0.00  0.00     0.209 C 
ATOM     36  O01 ZZL d   1      -0.515 -34.677  -1.312  0.00  0.00    -0.644 OA
ATOM     37  O03 ZZL d   1       1.503 -34.341  -0.495  0.00  0.00    -0.644 OA
ENDBRANCH  29  35
ENDBRANCH   6  25
BRANCH   2  38
ATOM     38  C16 ZZL d   1       7.897 -28.122  -7.172  0.00  0.00     0.070 A 
ATOM     39  C17 ZZL d   1       8.599 -29.037  -6.378  0.00  0.00     0.132 A 
ATOM     40  F18 ZZL d   1       7.954 -30.057  -5.780  0.00  0.00    -0.205 F 
ATOM     41  C19 ZZL d   1       9.974 -28.899  -6.189  0.00  0.00    -0.045 A 
ATOM     42  C20 ZZL d   1      10.665 -27.853  -6.794  0.00  0.00    -0.077 A 
ATOM     43  H   ZZL d   1      10.510 -29.614  -5.564  0.00  0.00     0.088 H 
ATOM     44  C21 ZZL d   1       9.976 -26.940  -7.590  0.00  0.00    -0.045 A 
ATOM     45  H   ZZL d   1      11.740 -27.749  -6.646  0.00  0.00     0.083 H 
ATOM     46  C22 ZZL d   1       8.601 -27.070  -7.780  0.00  0.00     0.132 A 
ATOM     47  H   ZZL d   1      10.514 -26.121  -8.066  0.00  0.00     0.088 H 
ATOM     48  F23 ZZL d   1       7.970 -26.163  -8.555  0.00  0.00    -0.205 F 
ENDBRANCH   2  38
TORSDOF 3
