REMARK WARNING: 32 MAX_TORS EXCEEDED!!!
REMARK  37 active torsions:
REMARK  status: ('A' for Active; 'I' for Inactive)
REMARK    1  A    between atoms: O6_21  and  C1_1 
REMARK    2  A    between atoms: C2_2  and  O2_7 
REMARK    3  A    between atoms: C3_3  and  O3_8 
REMARK    4  A    between atoms: C4_4  and  O4_9 
REMARK    5  A    between atoms: C5_5  and  C6_6 
REMARK    6  A    between atoms: O4_30  and  C1_11 
REMARK    7  A    between atoms: C2_12  and  O2_17 
REMARK    8  A    between atoms: C3_13  and  O3_18 
REMARK    9  A    between atoms: C4_14  and  O4_19 
REMARK   10  A    between atoms: C5_15  and  C6_16 
REMARK   11  A    between atoms: C6_16  and  O6_21 
REMARK   12  A    between atoms: O3_57  and  C1_22 
REMARK   13  A    between atoms: C2_23  and  O2_28 
REMARK   14  A    between atoms: C3_24  and  O3_29 
REMARK   15  A    between atoms: C4_25  and  O4_30 
REMARK   16  A    between atoms: C5_26  and  C6_27 
REMARK   17  A    between atoms: C6_27  and  O6_32 
REMARK   18  A    between atoms: O3_29  and  C1_33 
REMARK   19  A    between atoms: C2_34  and  N2_41 
REMARK   20  A    between atoms: C3_35  and  O3_42 
REMARK   21  A    between atoms: C4_36  and  O4_43 
REMARK   22  A    between atoms: C5_37  and  C6_38 
REMARK   23  A    between atoms: C6_38  and  O6_45 
REMARK   24  A    between atoms: C7_39  and  C8_40 
REMARK       I    between atoms: N2_41  and  C7_39 
REMARK   25  A    between atoms: C1_47  and  O1_56 
REMARK   26  A    between atoms: N2_55  and  C2_48 
REMARK   27  A    between atoms: C3_49  and  O3_57 
REMARK   28  A    between atoms: C4_50  and  O4_58 
REMARK   29  A    between atoms: C5_51  and  C6_52 
REMARK   30  A    between atoms: C6_52  and  O6_60 
REMARK   31  A    between atoms: C7_53  and  C8_54 
REMARK       I    between atoms: C7_53  and  N2_55 
REMARK   32  A    between atoms: O6_60  and  C1_62 
REMARK   33  A    between atoms: C2_63  and  O2_68 
REMARK   34  A    between atoms: C3_64  and  O3_69 
REMARK   35  A    between atoms: C4_65  and  O4_70 
REMARK   36  A    between atoms: C5_66  and  C6_67 
REMARK   37  A    between atoms: C6_67  and  O6_72 
ROOT
ATOM      1  C1  NON d   1      -7.599 -14.874  36.617  0.00  0.00     0.159 C 
ATOM      2  C2  NON d   1      -8.837 -15.071  35.765  0.00  0.00     0.110 C 
ATOM      3  C3  NON d   1      -8.439 -15.502  34.353  0.00  0.00     0.098 C 
ATOM      4  C4  NON d   1      -7.380 -14.618  33.705  0.00  0.00     0.096 C 
ATOM      5  C5  NON d   1      -6.393 -14.305  34.724  0.00  0.00     0.089 C 
ATOM      6  O5  NON d   1      -6.714 -13.934  36.078  0.00  0.00    -0.348 OA
ATOM      7  H22 NON d   1      -7.919 -14.510  37.605  0.00  0.00     0.133 H 
ATOM      8  H23 NON d   1      -9.414 -14.135  35.721  0.00  0.00     0.094 H 
ATOM      9  H24 NON d   1      -8.004 -16.510  34.425  0.00  0.00     0.091 H 
ATOM     10  H25 NON d   1      -7.010 -15.043  32.760  0.00  0.00     0.091 H 
ATOM     11  H26 NON d   1      -5.933 -15.297  34.847  0.00  0.00     0.090 H 
ENDROOT
BRANCH   1  12
ATOM     12  O3  NON d   1      -6.938 -16.127  36.786  0.00  0.00    -0.348 OA
BRANCH  12  13
ATOM     13  C3  NON d   1      -6.151 -16.158  37.978  0.00  0.00     0.093 C 
ATOM     14  C2  NON d   1      -4.887 -16.950  37.667  0.00  0.00     0.087 C 
ATOM     15  C1  NON d   1      -4.015 -16.956  38.917  0.00  0.00     0.151 C 
ATOM     16  H46 NON d   1      -5.177 -17.978  37.405  0.00  0.00     0.084 H 
ATOM     17  O5  NON d   1      -4.710 -17.568  39.987  0.00  0.00    -0.349 OA
ATOM     18  H45 NON d   1      -3.801 -15.913  39.194  0.00  0.00     0.132 H 
ATOM     19  C5  NON d   1      -5.981 -17.017  40.319  0.00  0.00     0.089 C 
ATOM     20  C4  NON d   1      -6.913 -16.803  39.125  0.00  0.00     0.089 C 
ATOM     21  H49 NON d   1      -5.811 -16.031  40.777  0.00  0.00     0.090 H 
ATOM     22  H48 NON d   1      -7.327 -17.770  38.802  0.00  0.00     0.091 H 
ATOM     23  H47 NON d   1      -5.881 -15.131  38.265  0.00  0.00     0.091 H 
BRANCH  14  24
ATOM     24  N2  NON d   1      -4.078 -16.408  36.590  0.00  0.00    -0.349 N 
ATOM     25  C7  NON d   1      -3.965 -16.964  35.374  0.00  0.00     0.214 C 
ATOM     26  O7  NON d   1      -4.580 -17.984  35.036  0.00  0.00    -0.274 OA
ATOM     27  H55 NON d   1      -3.571 -15.564  36.766  0.00  0.00     0.163 HD
BRANCH  25  28
ATOM     28  C8  NON d   1      -3.043 -16.285  34.409  0.00  0.00    -0.003 C 
ATOM     29  H52 NON d   1      -3.039 -16.835  33.456  0.00  0.00     0.040 H 
ATOM     30  H53 NON d   1      -2.025 -16.267  34.825  0.00  0.00     0.040 H 
ATOM     31  H54 NON d   1      -3.387 -15.255  34.236  0.00  0.00     0.040 H 
ENDBRANCH  25  28
ENDBRANCH  14  24
BRANCH  15  32
ATOM     32  O1  NON d   1      -2.781 -17.610  38.674  0.00  0.00    -0.369 OA
ATOM     33  H56 NON d   1      -2.944 -18.519  38.452  0.00  0.00     0.212 HD
ENDBRANCH  15  32
BRANCH  19  34
ATOM     34  C6  NON d   1      -6.616 -17.922  41.352  0.00  0.00     0.049 C 
ATOM     35  H50 NON d   1      -6.317 -18.965  41.169  0.00  0.00     0.078 H 
ATOM     36  H51 NON d   1      -7.712 -17.840  41.297  0.00  0.00     0.078 H 
BRANCH  34  37
ATOM     37  O6  NON d   1      -6.168 -17.511  42.625  0.00  0.00    -0.356 OA
BRANCH  37  38
ATOM     38  C1  NON d   1      -6.718 -16.520  43.344  0.00  0.00     0.158 C 
ATOM     39  C2  NON d   1      -5.984 -16.106  44.599  0.00  0.00     0.110 C 
ATOM     40  C3  NON d   1      -5.977 -17.298  45.557  0.00  0.00     0.092 C 
ATOM     41  H59 NON d   1      -6.510 -15.265  45.076  0.00  0.00     0.094 H 
ATOM     42  C4  NON d   1      -7.410 -17.762  45.827  0.00  0.00     0.090 C 
ATOM     43  H60 NON d   1      -5.424 -18.130  45.096  0.00  0.00     0.091 H 
ATOM     44  C5  NON d   1      -8.177 -17.994  44.530  0.00  0.00     0.089 C 
ATOM     45  H61 NON d   1      -7.931 -16.997  46.421  0.00  0.00     0.091 H 
ATOM     46  O5  NON d   1      -8.027 -16.847  43.695  0.00  0.00    -0.348 OA
ATOM     47  H62 NON d   1      -7.728 -18.859  44.020  0.00  0.00     0.090 H 
ATOM     48  H58 NON d   1      -6.750 -15.638  42.687  0.00  0.00     0.133 H 
BRANCH  39  49
ATOM     49  O2  NON d   1      -4.674 -15.689  44.252  0.00  0.00    -0.388 OA
ATOM     50  H65 NON d   1      -4.725 -14.949  43.658  0.00  0.00     0.210 HD
ENDBRANCH  39  49
BRANCH  40  51
ATOM     51  O3  NON d   1      -5.305 -16.904  46.742  0.00  0.00    -0.390 OA
ATOM     52  H66 NON d   1      -5.776 -16.185  47.148  0.00  0.00     0.210 HD
ENDBRANCH  40  51
BRANCH  42  53
ATOM     53  O4  NON d   1      -7.359 -18.969  46.550  0.00  0.00    -0.390 OA
ATOM     54  H67 NON d   1      -6.882 -18.832  47.360  0.00  0.00     0.210 HD
ENDBRANCH  42  53
BRANCH  44  55
ATOM     55  C6  NON d   1      -9.654 -18.303  44.754  0.00  0.00     0.043 C 
ATOM     56  H63 NON d   1      -9.745 -19.271  45.268  0.00  0.00     0.078 H 
ATOM     57  H64 NON d   1     -10.162 -18.355  43.780  0.00  0.00     0.078 H 
BRANCH  55  58
ATOM     58  O6  NON d   1     -10.259 -17.315  45.532  0.00  0.00    -0.398 OA
ATOM     59  H68 NON d   1      -9.825 -17.268  46.376  0.00  0.00     0.209 HD
ENDBRANCH  55  58
ENDBRANCH  44  55
ENDBRANCH  37  38
ENDBRANCH  34  37
ENDBRANCH  19  34
BRANCH  20  60
ATOM     60  O4  NON d   1      -7.960 -15.931  39.501  0.00  0.00    -0.390 OA
ATOM     61  H57 NON d   1      -8.447 -16.315  40.221  0.00  0.00     0.210 HD
ENDBRANCH  20  60
ENDBRANCH  12  13
ENDBRANCH   1  12
BRANCH   2  62
ATOM     62  O2  NON d   1      -9.612 -16.092  36.341  0.00  0.00    -0.388 OA
ATOM     63  H29 NON d   1      -9.867 -15.837  37.220  0.00  0.00     0.210 HD
ENDBRANCH   2  62
BRANCH   3  64
ATOM     64  O3  NON d   1      -9.621 -15.596  33.583  0.00  0.00    -0.348 OA
BRANCH  64  65
ATOM     65  C1  NON d   1     -10.088 -16.804  33.219  0.00  0.00     0.154 C 
ATOM     66  C2  NON d   1     -11.584 -16.800  32.907  0.00  0.00     0.087 C 
ATOM     67  C3  NON d   1     -12.059 -18.121  32.307  0.00  0.00     0.086 C 
ATOM     68  H32 NON d   1     -11.790 -16.002  32.179  0.00  0.00     0.084 H 
ATOM     69  C4  NON d   1     -11.088 -18.700  31.291  0.00  0.00     0.089 C 
ATOM     70  H33 NON d   1     -12.195 -18.848  33.122  0.00  0.00     0.090 H 
ATOM     71  C5  NON d   1      -9.666 -18.668  31.857  0.00  0.00     0.089 C 
ATOM     72  H34 NON d   1     -11.113 -18.088  30.377  0.00  0.00     0.091 H 
ATOM     73  O5  NON d   1      -9.312 -17.326  32.162  0.00  0.00    -0.349 OA
ATOM     74  H35 NON d   1      -9.652 -19.258  32.785  0.00  0.00     0.090 H 
ATOM     75  H31 NON d   1      -9.951 -17.474  34.081  0.00  0.00     0.132 H 
BRANCH  66  76
ATOM     76  N2  NON d   1     -12.293 -16.507  34.146  0.00  0.00    -0.349 N 
ATOM     77  C7  NON d   1     -13.032 -15.411  34.340  0.00  0.00     0.214 C 
ATOM     78  O7  NON d   1     -13.191 -14.549  33.476  0.00  0.00    -0.274 OA
ATOM     79  H41 NON d   1     -12.222 -17.165  34.895  0.00  0.00     0.163 HD
BRANCH  77  80
ATOM     80  C8  NON d   1     -13.677 -15.259  35.691  0.00  0.00    -0.003 C 
ATOM     81  H38 NON d   1     -14.252 -14.322  35.719  0.00  0.00     0.040 H 
ATOM     82  H39 NON d   1     -12.899 -15.235  36.468  0.00  0.00     0.040 H 
ATOM     83  H40 NON d   1     -14.351 -16.109  35.873  0.00  0.00     0.040 H 
ENDBRANCH  77  80
ENDBRANCH  66  76
BRANCH  67  84
ATOM     84  O3  NON d   1     -13.291 -17.907  31.651  0.00  0.00    -0.391 OA
ATOM     85  H42 NON d   1     -13.917 -17.544  32.266  0.00  0.00     0.210 HD
ENDBRANCH  67  84
BRANCH  69  86
ATOM     86  O4  NON d   1     -11.506 -20.020  30.967  0.00  0.00    -0.390 OA
ATOM     87  H43 NON d   1     -10.919 -20.386  30.315  0.00  0.00     0.210 HD
ENDBRANCH  69  86
BRANCH  71  88
ATOM     88  C6  NON d   1      -8.647 -19.261  30.904  0.00  0.00     0.043 C 
ATOM     89  H36 NON d   1      -8.932 -20.292  30.648  0.00  0.00     0.078 H 
ATOM     90  H37 NON d   1      -7.652 -19.261  31.374  0.00  0.00     0.078 H 
BRANCH  88  91
ATOM     91  O6  NON d   1      -8.625 -18.471  29.744  0.00  0.00    -0.398 OA
ATOM     92  H44 NON d   1      -9.487 -18.472  29.345  0.00  0.00     0.209 HD
ENDBRANCH  88  91
ENDBRANCH  71  88
ENDBRANCH  64  65
ENDBRANCH   3  64
BRANCH   5  93
ATOM     93  C6  NON d   1      -5.197 -13.389  34.378  0.00  0.00     0.043 C 
ATOM     94  H27 NON d   1      -4.360 -13.578  35.067  0.00  0.00     0.078 H 
ATOM     95  H28 NON d   1      -5.495 -12.332  34.443  0.00  0.00     0.078 H 
BRANCH  93  96
ATOM     96  O6  NON d   1      -4.828 -13.708  33.069  0.00  0.00    -0.398 OA
ATOM     97  H30 NON d   1      -4.091 -13.168  32.808  0.00  0.00     0.209 HD
ENDBRANCH  93  96
ENDBRANCH   5  93
BRANCH   4  98
ATOM     98  O4  NON d   1      -7.709 -13.301  33.667  0.00  0.00    -0.348 OA
BRANCH  98  99
ATOM     99  C1  NON d   1      -7.918 -12.668  32.405  0.00  0.00     0.159 C 
ATOM    100  C2  NON d   1      -8.133 -11.152  32.364  0.00  0.00     0.110 C 
ATOM    101  C3  NON d   1      -9.645 -10.931  32.420  0.00  0.00     0.092 C 
ATOM    102  H13 NON d   1      -7.749 -10.758  31.411  0.00  0.00     0.094 H 
ATOM    103  C4  NON d   1     -10.340 -11.772  31.350  0.00  0.00     0.090 C 
ATOM    104  H14 NON d   1     -10.012 -11.244  33.408  0.00  0.00     0.091 H 
ATOM    105  C5  NON d   1      -9.947 -13.264  31.450  0.00  0.00     0.089 C 
ATOM    106  H15 NON d   1     -10.047 -11.399  30.358  0.00  0.00     0.091 H 
ATOM    107  O5  NON d   1      -8.531 -13.329  31.314  0.00  0.00    -0.348 OA
ATOM    108  H16 NON d   1     -10.255 -13.638  32.438  0.00  0.00     0.090 H 
ATOM    109  H12 NON d   1      -6.876 -12.708  32.055  0.00  0.00     0.133 H 
BRANCH 100 110
ATOM    110  O2  NON d   1      -7.445 -10.497  33.414  0.00  0.00    -0.388 OA
ATOM    111  H19 NON d   1      -7.757 -10.826  34.249  0.00  0.00     0.210 HD
ENDBRANCH 100 110
BRANCH 101 112
ATOM    112  O3  NON d   1      -9.943  -9.561  32.239  0.00  0.00    -0.390 OA
ATOM    113  H20 NON d   1      -9.505  -9.051  32.910  0.00  0.00     0.210 HD
ENDBRANCH 101 112
BRANCH 103 114
ATOM    114  O4  NON d   1     -11.722 -11.628  31.506  0.00  0.00    -0.390 OA
ATOM    115  H21 NON d   1     -11.980 -11.963  32.357  0.00  0.00     0.210 HD
ENDBRANCH 103 114
BRANCH 105 116
ATOM    116  C6  NON d   1     -10.523 -14.186  30.385  0.00  0.00     0.049 C 
ATOM    117  H17 NON d   1     -11.595 -14.338  30.579  0.00  0.00     0.078 H 
ATOM    118  H18 NON d   1     -10.002 -15.154  30.424  0.00  0.00     0.078 H 
BRANCH 116 119
ATOM    119  O6  NON d   1     -10.364 -13.640  29.148  0.00  0.00    -0.356 OA
BRANCH 119 120
ATOM    120  C1  NON d   1     -11.519 -13.314  28.384  0.00  0.00     0.158 C 
ATOM    121  C2  NON d   1     -11.095 -12.611  27.100  0.00  0.00     0.110 C 
ATOM    122  C3  NON d   1     -10.405 -13.575  26.146  0.00  0.00     0.092 C 
ATOM    123  H2  NON d   1     -10.417 -11.777  27.334  0.00  0.00     0.094 H 
ATOM    124  C4  NON d   1     -11.216 -14.853  25.978  0.00  0.00     0.087 C 
ATOM    125  H3  NON d   1      -9.410 -13.827  26.542  0.00  0.00     0.091 H 
ATOM    126  C5  NON d   1     -11.561 -15.455  27.348  0.00  0.00     0.065 C 
ATOM    127  H4  NON d   1     -12.162 -14.601  25.476  0.00  0.00     0.091 H 
ATOM    128  O5  NON d   1     -12.274 -14.487  28.122  0.00  0.00    -0.351 OA
ATOM    129  H5  NON d   1     -10.624 -15.713  27.863  0.00  0.00     0.086 H 
ATOM    130  H1  NON d   1     -12.146 -12.623  28.967  0.00  0.00     0.133 H 
BRANCH 121 131
ATOM    131  O2  NON d   1     -12.271 -12.134  26.498  0.00  0.00    -0.388 OA
ATOM    132  H9  NON d   1     -12.706 -11.531  27.090  0.00  0.00     0.210 HD
ENDBRANCH 121 131
BRANCH 122 133
ATOM    133  O3  NON d   1     -10.271 -12.949  24.887  0.00  0.00    -0.390 OA
ATOM    134  H10 NON d   1     -11.132 -12.741  24.545  0.00  0.00     0.210 HD
ENDBRANCH 122 133
BRANCH 124 135
ATOM    135  O4  NON d   1     -10.502 -15.749  25.140  0.00  0.00    -0.390 OA
ATOM    136  H11 NON d   1     -10.317 -15.325  24.310  0.00  0.00     0.210 HD
ENDBRANCH 124 135
BRANCH 126 137
ATOM    137  C6  NON d   1     -12.412 -16.712  27.228  0.00  0.00    -0.050 C 
ATOM    138  H6  NON d   1     -12.631 -17.104  28.232  0.00  0.00     0.031 H 
ATOM    139  H7  NON d   1     -11.865 -17.471  26.650  0.00  0.00     0.031 H 
ATOM    140  H8  NON d   1     -13.354 -16.469  26.715  0.00  0.00     0.031 H 
ENDBRANCH 126 137
ENDBRANCH 119 120
ENDBRANCH 116 119
ENDBRANCH 105 116
ENDBRANCH  98  99
ENDBRANCH   4  98
TORSDOF 37
