REMARK  1 active torsions:
REMARK  status: ('A' for Active; 'I' for Inactive)
REMARK    1  A    between atoms: C2_8  and  C1_11 
ROOT
ATOM      1  C13 X8D d   1       3.439  -7.076  17.040  0.00  0.00    -0.082 A 
ATOM      2  C14 X8D d   1       4.756  -6.696  17.054  0.00  0.00    -0.081 A 
ATOM      3  C12 X8D d   1       2.491  -6.301  17.679  0.00  0.00    -0.070 A 
ATOM      4  C15 X8D d   1       5.129  -5.539  17.707  0.00  0.00    -0.056 A 
ATOM      5  C11 X8D d   1       2.850  -5.139  18.340  0.00  0.00    -0.003 A 
ATOM      6  C10 X8D d   1       4.177  -4.776  18.349  0.00  0.00     0.056 A 
ATOM      7  C3  X8D d   1       2.230  -3.199  19.679  0.00  0.00    -0.032 A 
ATOM      8  C2  X8D d   1       1.855  -4.305  19.027  0.00  0.00    -0.046 A 
ATOM      9  C4  X8D d   1       3.669  -2.845  19.622  0.00  0.00     0.131 A 
ATOM     10  C7  X8D d   1       5.870  -2.853  19.175  0.00  0.00     0.347 A 
ATOM     11  N5  X8D d   1       4.185  -1.769  20.145  0.00  0.00    -0.281 N 
ATOM     12  N6  X8D d   1       5.530  -1.748  19.882  0.00  0.00    -0.249 N 
ATOM     13  N9  X8D d   1       4.529  -3.584  19.018  0.00  0.00    -0.246 N 
ATOM     14  O8  X8D d   1       6.934  -3.265  18.733  0.00  0.00    -0.245 OA
ATOM     15  H1  X8D d   1       3.142  -7.984  16.528  0.00  0.00     0.083 H 
ATOM     16  H2  X8D d   1       5.502  -7.303  16.554  0.00  0.00     0.083 H 
ATOM     17  H3  X8D d   1       1.451  -6.607  17.663  0.00  0.00     0.084 H 
ATOM     18  H4  X8D d   1       6.168  -5.231  17.715  0.00  0.00     0.087 H 
ATOM     19  H5  X8D d   1       1.516  -2.591  20.223  0.00  0.00     0.090 H 
ATOM     20  H9  X8D d   1       3.667  -1.051  20.671  0.00  0.00     0.188 HD
ATOM     21  H10 X8D d   1       6.163  -1.028  20.168  0.00  0.00     0.192 HD
ENDROOT
BRANCH   8  22
ATOM     22  C1  X8D d   1       0.436  -4.728  19.007  0.00  0.00    -0.050 C 
ATOM     23  H6  X8D d   1       0.338  -5.654  18.422  0.00  0.00     0.033 H 
ATOM     24  H7  X8D d   1      -0.176  -3.938  18.547  0.00  0.00     0.033 H 
ATOM     25  H8  X8D d   1       0.092  -4.906  20.037  0.00  0.00     0.033 H 
ENDBRANCH   8  22
TORSDOF 1
