REMARK  2 active torsions:
REMARK  status: ('A' for Active; 'I' for Inactive)
REMARK    1  A    between atoms: C14_8  and  C16_9 
REMARK    2  A    between atoms: C2_13  and  C1_16 
ROOT
ATOM      1  C13 X8E d   1       1.548  -5.181  18.641  0.00  0.00    -0.071 A 
ATOM      2  C12 X8E d   1       2.659  -5.592  17.937  0.00  0.00    -0.070 A 
ATOM      3  C15 X8E d   1       2.785  -3.364  19.533  0.00  0.00    -0.045 A 
ATOM      4  C14 X8E d   1       1.598  -4.061  19.448  0.00  0.00    -0.024 A 
ATOM      5  C11 X8E d   1       3.842  -4.891  18.022  0.00  0.00    -0.003 A 
ATOM      6  C10 X8E d   1       3.889  -3.777  18.826  0.00  0.00     0.057 A 
ATOM      7  C3  X8E d   1       6.179  -4.628  17.434  0.00  0.00    -0.032 A 
ATOM      8  C2  X8E d   1       5.036  -5.307  17.297  0.00  0.00    -0.046 A 
ATOM      9  C4  X8E d   1       6.152  -3.437  18.294  0.00  0.00     0.131 A 
ATOM     10  C7  X8E d   1       5.497  -1.789  19.667  0.00  0.00     0.347 A 
ATOM     11  N5  X8E d   1       7.166  -2.653  18.497  0.00  0.00    -0.281 N 
ATOM     12  N6  X8E d   1       6.805  -1.644  19.340  0.00  0.00    -0.249 N 
ATOM     13  N9  X8E d   1       5.094  -3.073  18.910  0.00  0.00    -0.246 N 
ATOM     14  O8  X8E d   1       4.727  -1.132  20.351  0.00  0.00    -0.245 OA
ATOM     15  H   X8E d   1       0.619  -5.746  18.560  0.00  0.00     0.084 H 
ATOM     16  H   X8E d   1       2.601  -6.480  17.307  0.00  0.00     0.085 H 
ATOM     17  H   X8E d   1       2.848  -2.479  20.166  0.00  0.00     0.088 H 
ATOM     18  H   X8E d   1       7.092  -4.944  16.929  0.00  0.00     0.090 H 
ATOM     19  H   X8E d   1       8.093  -2.773  18.088  0.00  0.00     0.188 HD
ATOM     20  H   X8E d   1       7.420  -0.900  19.671  0.00  0.00     0.192 HD
ENDROOT
BRANCH   4  21
ATOM     21  C16 X8E d   1       0.449  -3.591  20.227  0.00  0.00    -0.023 A 
ATOM     22  C17 X8E d   1      -0.497  -4.467  20.564  0.00  0.00    -0.055 A 
ATOM     23  C18 X8E d   1      -1.626  -3.960  21.367  0.00  0.00     0.003 A 
ATOM     24  H   X8E d   1      -0.439  -5.512  20.260  0.00  0.00     0.087 H 
ATOM     25  N19 X8E d   1      -1.660  -2.650  21.785  0.00  0.00    -0.273 NA
ATOM     26  H   X8E d   1      -2.443  -4.631  21.632  0.00  0.00     0.114 H 
ATOM     27  C20 X8E d   1      -0.730  -1.875  21.451  0.00  0.00     0.003 A 
ATOM     28  C21 X8E d   1       0.306  -2.254  20.706  0.00  0.00    -0.055 A 
ATOM     29  H   X8E d   1      -0.773  -0.839  21.788  0.00  0.00     0.114 H 
ATOM     30  H   X8E d   1       1.070  -1.519  20.453  0.00  0.00     0.087 H 
ENDBRANCH   4  21
BRANCH   8  31
ATOM     31  C1  X8E d   1       4.964  -6.522  16.452  0.00  0.00    -0.050 C 
ATOM     32  H   X8E d   1       5.231  -6.266  15.427  0.00  0.00     0.033 H 
ATOM     33  H   X8E d   1       5.659  -7.270  16.834  0.00  0.00     0.033 H 
ATOM     34  H   X8E d   1       3.950  -6.920  16.476  0.00  0.00     0.033 H 
ENDBRANCH   8  31
TORSDOF 2
