REMARK  3 active torsions:
REMARK  status: ('A' for Active; 'I' for Inactive)
REMARK    1  A    between atoms: C13_8  and  C16_9 
REMARK    2  A    between atoms: C20_12  and  O22_22 
REMARK    3  A    between atoms: C2_14  and  C1_17 
ROOT
ATOM      1  C14 X8I d   1       5.290  -4.521  40.799  0.00  0.00    -0.070 A 
ATOM      2  C15 X8I d   1       4.981  -3.566  41.739  0.00  0.00    -0.055 A 
ATOM      3  C12 X8I d   1       3.371  -3.922  39.543  0.00  0.00    -0.060 A 
ATOM      4  C13 X8I d   1       4.495  -4.713  39.691  0.00  0.00    -0.025 A 
ATOM      5  C11 X8I d   1       3.047  -2.955  40.477  0.00  0.00    -0.002 A 
ATOM      6  C10 X8I d   1       3.861  -2.787  41.573  0.00  0.00     0.056 A 
ATOM      7  C3  X8I d   1       1.594  -1.157  41.230  0.00  0.00    -0.032 A 
ATOM      8  C2  X8I d   1       1.868  -2.104  40.324  0.00  0.00    -0.046 A 
ATOM      9  C4  X8I d   1       2.521  -1.013  42.364  0.00  0.00     0.131 A 
ATOM     10  C7  X8I d   1       4.233  -1.309  43.786  0.00  0.00     0.347 A 
ATOM     11  N5  X8I d   1       2.406  -0.120  43.310  0.00  0.00    -0.281 N 
ATOM     12  N6  X8I d   1       3.445  -0.275  44.191  0.00  0.00    -0.249 N 
ATOM     13  N9  X8I d   1       3.531  -1.788  42.502  0.00  0.00    -0.246 N 
ATOM     14  O8  X8I d   1       5.247  -1.832  44.228  0.00  0.00    -0.245 OA
ATOM     15  H3  X8I d   1       6.175  -5.133  40.932  0.00  0.00     0.084 H 
ATOM     16  H4  X8I d   1       5.617  -3.428  42.606  0.00  0.00     0.087 H 
ATOM     17  H6  X8I d   1       2.732  -4.062  38.679  0.00  0.00     0.086 H 
ATOM     18  H8  X8I d   1       0.722  -0.520  41.132  0.00  0.00     0.090 H 
ATOM     19  H12 X8I d   1       1.658   0.585  43.382  0.00  0.00     0.188 HD
ATOM     20  H13 X8I d   1       3.600   0.285  45.005  0.00  0.00     0.192 HD
ENDROOT
BRANCH   4  21
ATOM     21  C16 X8I d   1       4.863  -5.708  38.700  0.00  0.00    -0.023 A 
ATOM     22  C17 X8I d   1       5.403  -6.926  39.069  0.00  0.00    -0.072 A 
ATOM     23  C18 X8I d   1       5.750  -7.868  38.125  0.00  0.00    -0.080 A 
ATOM     24  H2  X8I d   1       5.556  -7.144  40.120  0.00  0.00     0.084 H 
ATOM     25  C19 X8I d   1       5.570  -7.610  36.785  0.00  0.00    -0.051 A 
ATOM     26  H1  X8I d   1       6.167  -8.818  38.440  0.00  0.00     0.083 H 
ATOM     27  C20 X8I d   1       5.039  -6.397  36.414  0.00  0.00     0.066 A 
ATOM     28  H5  X8I d   1       5.841  -8.347  36.038  0.00  0.00     0.087 H 
ATOM     29  C21 X8I d   1       4.689  -5.451  37.354  0.00  0.00    -0.040 A 
ATOM     30  H7  X8I d   1       4.275  -4.501  37.035  0.00  0.00     0.089 H 
BRANCH  27  31
ATOM     31  O22 X8I d   1       4.853  -6.126  35.075  0.00  0.00    -0.361 OA
ATOM     32  H14 X8I d   1       3.932  -5.963  34.911  0.00  0.00     0.217 HD
ENDBRANCH  27  31
ENDBRANCH   4  21
BRANCH   8  33
ATOM     33  C1  X8I d   1       0.985  -2.318  39.144  0.00  0.00    -0.050 C 
ATOM     34  H9  X8I d   1       1.386  -3.137  38.530  0.00  0.00     0.033 H 
ATOM     35  H10 X8I d   1       0.944  -1.397  38.545  0.00  0.00     0.033 H 
ATOM     36  H11 X8I d   1      -0.028  -2.578  39.486  0.00  0.00     0.033 H 
ENDBRANCH   8  33
TORSDOF 3
