REMARK  14 active torsions:
REMARK  status: ('A' for Active; 'I' for Inactive)
REMARK    1  A    between atoms: N5_5  and  C11_11 
REMARK    2  A    between atoms: C7_7  and  C8_8 
REMARK       I    between atoms: C8_8  and  N9_9 
REMARK    3  A    between atoms: N9_9  and  C40_40 
REMARK    4  A    between atoms: C16_16  and  N18_18 
REMARK    5  A    between atoms: N18_18  and  C19_19 
REMARK    6  A    between atoms: C20_20  and  O25_25 
REMARK    7  A    between atoms: C22_22  and  C26_26 
REMARK    8  A    between atoms: O25_25  and  C36_36 
REMARK       I    between atoms: C26_26  and  N27_27 
REMARK    9  A    between atoms: N27_27  and  C29_29 
REMARK   10  A    between atoms: N32_32  and  C35_35 
REMARK   11  A    between atoms: C41_41  and  C48_48 
REMARK   12  A    between atoms: C45_45  and  C46_46 
REMARK   13  A    between atoms: C46_46  and  C47_47 
REMARK   14  A    between atoms: C48_48  and  C49_49 
ROOT
ATOM      1  C1  SVE d   1     -10.481  24.749  -2.508  0.00  0.00    -0.032 A 
ATOM      2  C2  SVE d   1      -9.686  25.997  -1.960  0.00  0.00    -0.034 A 
ATOM      3  C3  SVE d   1      -9.741  23.461  -2.316  0.00  0.00     0.009 A 
ATOM      4  C4  SVE d   1      -8.582  23.352  -1.709  0.00  0.00     0.091 A 
ATOM      5  N5  SVE d   1      -8.217  21.993  -1.764  0.00  0.00    -0.271 N 
ATOM      6  N6  SVE d   1      -9.178  21.301  -2.409  0.00  0.00    -0.166 NA
ATOM      7  C7  SVE d   1     -10.090  22.125  -2.749  0.00  0.00     0.153 A 
ATOM      8  C12 SVE d   1      -7.876  24.460  -1.091  0.00  0.00     0.112 A 
ATOM      9  C13 SVE d   1      -8.393  25.703  -1.169  0.00  0.00    -0.008 A 
ATOM     10  C14 SVE d   1      -7.660  26.779  -0.496  0.00  0.00     0.029 A 
ATOM     11  N15 SVE d   1      -6.564  26.510   0.128  0.00  0.00    -0.074 NA
ATOM     12  C16 SVE d   1      -6.046  25.174   0.180  0.00  0.00     0.727 A 
ATOM     13  N17 SVE d   1      -6.677  24.235  -0.394  0.00  0.00    -0.060 NA
ATOM     14  H1  SVE d   1     -10.664  24.893  -3.583  0.00  0.00     0.040 H 
ATOM     15  H2  SVE d   1     -11.443  24.684  -1.978  0.00  0.00     0.040 H 
ATOM     16  H3  SVE d   1     -10.362  26.558  -1.298  0.00  0.00     0.040 H 
ATOM     17  H4  SVE d   1      -9.414  26.624  -2.822  0.00  0.00     0.040 H 
ATOM     18  H9  SVE d   1      -8.037  27.795  -0.523  0.00  0.00     0.116 H 
ENDROOT
BRANCH  12  19
ATOM     19  N18 SVE d   1      -4.850  24.851   0.860  0.00  0.00    -0.185 N 
ATOM     20  H10 SVE d   1      -4.376  25.646   1.312  0.00  0.00     0.184 HD
BRANCH  19  21
ATOM     21  C19 SVE d   1      -4.195  23.584   1.017  0.00  0.00     0.083 A 
ATOM     22  C20 SVE d   1      -2.903  23.554   0.677  0.00  0.00     0.106 A 
ATOM     23  C21 SVE d   1      -2.112  22.288   0.831  0.00  0.00    -0.033 A 
ATOM     24  C22 SVE d   1      -2.697  21.177   1.309  0.00  0.00     0.034 A 
ATOM     25  H11 SVE d   1      -1.064  22.270   0.555  0.00  0.00     0.089 H 
ATOM     26  C23 SVE d   1      -4.136  21.191   1.673  0.00  0.00    -0.065 A 
ATOM     27  C24 SVE d   1      -4.855  22.342   1.536  0.00  0.00    -0.053 A 
ATOM     28  H12 SVE d   1      -4.613  20.292   2.046  0.00  0.00     0.085 H 
ATOM     29  H13 SVE d   1      -5.905  22.359   1.803  0.00  0.00     0.087 H 
BRANCH  22  30
ATOM     30  O25 SVE d   1      -2.371  24.776   0.182  0.00  0.00    -0.253 OA
BRANCH  30  31
ATOM     31  C36 SVE d   1      -1.173  25.277   0.746  0.00  0.00     0.530 C 
ATOM     32  F37 SVE d   1      -0.101  24.705   0.080  0.00  0.00    -0.144 F 
ATOM     33  F38 SVE d   1      -1.104  24.959   2.090  0.00  0.00    -0.144 F 
ATOM     34  F39 SVE d   1      -1.112  26.665   0.632  0.00  0.00    -0.144 F 
ENDBRANCH  30  31
ENDBRANCH  22  30
BRANCH  24  35
ATOM     35  C26 SVE d   1      -1.899  19.985   1.488  0.00  0.00     0.252 C 
ATOM     36  N27 SVE d   1      -2.227  18.824   0.897  0.00  0.00    -0.352 N 
ATOM     37  H14 SVE d   1      -3.002  18.795   0.266  0.00  0.00     0.163 HD
ATOM     38  O28 SVE d   1      -0.904  20.069   2.239  0.00  0.00    -0.268 OA
BRANCH  36  39
ATOM     39  C29 SVE d   1      -1.469  17.602   1.161  0.00  0.00     0.015 C 
ATOM     40  C30 SVE d   1      -1.881  16.501   0.134  0.00  0.00    -0.023 C 
ATOM     41  C31 SVE d   1      -1.172  15.154   0.474  0.00  0.00     0.085 C 
ATOM     42  H16 SVE d   1      -1.589  16.820  -0.877  0.00  0.00     0.038 H 
ATOM     43  H17 SVE d   1      -2.971  16.358   0.173  0.00  0.00     0.038 H 
ATOM     44  N32 SVE d   1      -1.492  14.750   1.884  0.00  0.00    -0.075 N 
ATOM     45  H18 SVE d   1      -0.084  15.277   0.368  0.00  0.00     0.076 H 
ATOM     46  H19 SVE d   1      -1.522  14.373  -0.217  0.00  0.00     0.076 H 
ATOM     47  C33 SVE d   1      -0.993  15.762   2.875  0.00  0.00     0.085 C 
ATOM     48  H20 SVE d   1      -2.493  14.674   1.977  0.00  0.00     0.279 HD
ATOM     49  C34 SVE d   1      -1.716  17.111   2.637  0.00  0.00    -0.023 C 
ATOM     50  H21 SVE d   1       0.091  15.898   2.747  0.00  0.00     0.076 H 
ATOM     51  H22 SVE d   1      -1.200  15.409   3.896  0.00  0.00     0.076 H 
ATOM     52  H23 SVE d   1      -2.796  16.979   2.801  0.00  0.00     0.038 H 
ATOM     53  H24 SVE d   1      -1.327  17.862   3.341  0.00  0.00     0.038 H 
ATOM     54  H15 SVE d   1      -0.397  17.816   1.038  0.00  0.00     0.072 H 
BRANCH  44  55
ATOM     55  C35 SVE d   1      -0.879  13.435   2.175  0.00  0.00     0.066 C 
ATOM     56  H25 SVE d   1      -1.243  12.692   1.450  0.00  0.00     0.068 H 
ATOM     57  H26 SVE d   1      -1.153  13.120   3.192  0.00  0.00     0.068 H 
ATOM     58  H27 SVE d   1       0.215  13.516   2.099  0.00  0.00     0.068 H 
ENDBRANCH  44  55
ENDBRANCH  36  39
ENDBRANCH  24  35
ENDBRANCH  19  21
ENDBRANCH  12  19
BRANCH   5  59
ATOM     59  C11 SVE d   1      -7.025  21.389  -1.229  0.00  0.00     0.003 C 
ATOM     60  H6  SVE d   1      -7.037  20.309  -1.437  0.00  0.00     0.059 H 
ATOM     61  H7  SVE d   1      -6.987  21.553  -0.142  0.00  0.00     0.059 H 
ATOM     62  H8  SVE d   1      -6.141  21.843  -1.700  0.00  0.00     0.059 H 
ENDBRANCH   5  59
BRANCH   7  63
ATOM     63  C8  SVE d   1     -11.266  21.701  -3.448  0.00  0.00     0.277 C 
ATOM     64  N9  SVE d   1     -11.502  20.389  -3.454  0.00  0.00    -0.321 N 
ATOM     65  H5  SVE d   1     -10.813  19.793  -3.041  0.00  0.00     0.169 HD
ATOM     66  O10 SVE d   1     -12.017  22.501  -4.026  0.00  0.00    -0.266 OA
BRANCH  64  67
ATOM     67  C40 SVE d   1     -12.645  19.781  -3.996  0.00  0.00     0.047 A 
ATOM     68  C41 SVE d   1     -12.588  19.376  -5.292  0.00  0.00    -0.031 A 
ATOM     69  C42 SVE d   1     -13.777  18.730  -5.905  0.00  0.00    -0.075 A 
ATOM     70  C43 SVE d   1     -14.909  18.547  -5.185  0.00  0.00    -0.082 A 
ATOM     71  H28 SVE d   1     -13.738  18.402  -6.938  0.00  0.00     0.084 H 
ATOM     72  C44 SVE d   1     -14.980  18.982  -3.777  0.00  0.00    -0.075 A 
ATOM     73  H29 SVE d   1     -15.770  18.077  -5.647  0.00  0.00     0.083 H 
ATOM     74  C45 SVE d   1     -13.911  19.577  -3.181  0.00  0.00    -0.031 A 
ATOM     75  H30 SVE d   1     -15.892  18.826  -3.212  0.00  0.00     0.084 H 
BRANCH  68  76
ATOM     76  C48 SVE d   1     -11.289  19.595  -6.080  0.00  0.00    -0.042 C 
ATOM     77  H36 SVE d   1     -10.478  19.063  -5.562  0.00  0.00     0.039 H 
ATOM     78  H37 SVE d   1     -11.071  20.673  -6.093  0.00  0.00     0.039 H 
BRANCH  76  79
ATOM     79  C49 SVE d   1     -11.340  19.099  -7.528  0.00  0.00    -0.073 C 
ATOM     80  H38 SVE d   1     -10.374  19.294  -8.017  0.00  0.00     0.028 H 
ATOM     81  H39 SVE d   1     -12.138  19.628  -8.069  0.00  0.00     0.028 H 
ATOM     82  H40 SVE d   1     -11.545  18.018  -7.538  0.00  0.00     0.028 H 
ENDBRANCH  76  79
ENDBRANCH  68  76
BRANCH  74  83
ATOM     83  C46 SVE d   1     -13.964  20.037  -1.707  0.00  0.00    -0.042 C 
ATOM     84  H31 SVE d   1     -13.768  21.119  -1.681  0.00  0.00     0.039 H 
ATOM     85  H32 SVE d   1     -13.173  19.507  -1.156  0.00  0.00     0.039 H 
BRANCH  83  86
ATOM     86  C47 SVE d   1     -15.304  19.777  -0.986  0.00  0.00    -0.073 C 
ATOM     87  H33 SVE d   1     -15.239  20.139   0.051  0.00  0.00     0.028 H 
ATOM     88  H34 SVE d   1     -15.517  18.698  -0.985  0.00  0.00     0.028 H 
ATOM     89  H35 SVE d   1     -16.111  20.309  -1.510  0.00  0.00     0.028 H 
ENDBRANCH  83  86
ENDBRANCH  74  83
ENDBRANCH  64  67
ENDBRANCH   7  63
TORSDOF 14
