REMARK  6 active torsions:
REMARK  status: ('A' for Active; 'I' for Inactive)
REMARK    1  A    between atoms: N1_26  and  C7_1 
REMARK    2  A    between atoms: C10_5  and  N3_6 
REMARK    3  A    between atoms: N3_6  and  C11_7 
REMARK    4  A    between atoms: S1_18  and  C1_17 
REMARK    5  A    between atoms: C2_21  and  S1_18 
REMARK    6  A    between atoms: C6_25  and  N1_26 
ROOT
ATOM      1  C7  X9F d   1      13.607   6.254  11.844  0.00  0.00     0.728 A 
ATOM      2  N2  X9F d   1      14.426   5.238  12.181  0.00  0.00    -0.075 NA
ATOM      3  C8  X9F d   1      13.882   4.072  12.541  0.00  0.00     0.025 A 
ATOM      4  C9  X9F d   1      12.535   3.866  12.578  0.00  0.00    -0.021 A 
ATOM      5  C10 X9F d   1      11.745   4.947  12.222  0.00  0.00     0.148 A 
ATOM      6  N6  X9F d   1      12.271   6.122  11.859  0.00  0.00    -0.045 NA
ATOM      7  H   X9F d   1      14.543   3.251  12.817  0.00  0.00     0.115 H 
ATOM      8  H   X9F d   1      12.105   2.908  12.870  0.00  0.00     0.091 H 
ENDROOT
BRANCH   1   9
ATOM      9  N1  X9F d   1      14.227   7.451  11.460  0.00  0.00    -0.188 N 
ATOM     10  H   X9F d   1      15.241   7.414  11.355  0.00  0.00     0.184 HD
BRANCH   9  11
ATOM     11  C6  X9F d   1      13.626   8.700  11.201  0.00  0.00     0.050 A 
ATOM     12  C5  X9F d   1      12.288   8.837  10.894  0.00  0.00    -0.057 A 
ATOM     13  C4  X9F d   1      11.748  10.085  10.642  0.00  0.00    -0.079 A 
ATOM     14  H   X9F d   1      11.651   7.954  10.850  0.00  0.00     0.086 H 
ATOM     15  C3  X9F d   1      12.551  11.206  10.685  0.00  0.00    -0.062 A 
ATOM     16  H   X9F d   1      10.688  10.183  10.409  0.00  0.00     0.083 H 
ATOM     17  C2  X9F d   1      13.889  11.066  10.983  0.00  0.00     0.061 A 
ATOM     18  H   X9F d   1      12.131  12.192  10.485  0.00  0.00     0.085 H 
ATOM     19  C18 X9F d   1      14.434   9.823  11.237  0.00  0.00    -0.036 A 
ATOM     20  H   X9F d   1      15.496   9.727  11.465  0.00  0.00     0.089 H 
BRANCH  17  21
ATOM     21  S1  X9F d   1      14.929  12.519  11.044  0.00  0.00     0.172 S 
ATOM     22  O1  X9F d   1      15.715  12.505   9.818  0.00  0.00    -0.223 OA
ATOM     23  O2  X9F d   1      14.060  13.655  11.318  0.00  0.00    -0.223 OA
BRANCH  21  24
ATOM     24  C1  X9F d   1      15.981  12.277  12.403  0.00  0.00     0.020 C 
ATOM     25  H   X9F d   1      16.486  11.316  12.303  0.00  0.00     0.049 H 
ATOM     26  H   X9F d   1      16.721  13.076  12.434  0.00  0.00     0.049 H 
ATOM     27  H   X9F d   1      15.394  12.287  13.322  0.00  0.00     0.049 H 
ENDBRANCH  21  24
ENDBRANCH  17  21
ENDBRANCH   9  11
ENDBRANCH   1   9
BRANCH   5  28
ATOM     28  N3  X9F d   1      10.338   4.817  12.231  0.00  0.00    -0.340 N 
ATOM     29  H   X9F d   1       9.763   5.587  11.889  0.00  0.00     0.167 HD
BRANCH  28  30
ATOM     30  C11 X9F d   1       9.715   3.651  12.700  0.00  0.00     0.047 A 
ATOM     31  C12 X9F d   1       9.611   3.376  14.052  0.00  0.00    -0.056 A 
ATOM     32  C13 X9F d   1       9.018   2.229  14.548  0.00  0.00    -0.079 A 
ATOM     33  H   X9F d   1      10.016   4.098  14.761  0.00  0.00     0.086 H 
ATOM     34  C14 X9F d   1       8.463   1.277  13.722  0.00  0.00    -0.052 A 
ATOM     35  H   X9F d   1       8.989   2.074  15.627  0.00  0.00     0.083 H 
ATOM     36  C15 X9F d   1       8.561   1.556  12.373  0.00  0.00     0.090 A 
ATOM     37  H   X9F d   1       7.984   0.375  14.103  0.00  0.00     0.087 H 
ATOM     38  N4  X9F d   1       8.121   0.843  11.291  0.00  0.00    -0.175 NA
ATOM     39  C17 X9F d   1       9.169   2.695  11.847  0.00  0.00     0.038 A 
ATOM     40  N5  X9F d   1       8.425   1.430  10.116  0.00  0.00    -0.288 N 
ATOM     41  C16 X9F d   1       9.058   2.571  10.435  0.00  0.00     0.010 A 
ATOM     42  H   X9F d   1       8.218   1.081   9.180  0.00  0.00     0.188 HD
ATOM     43  H   X9F d   1       9.433   3.298   9.714  0.00  0.00     0.115 H 
ENDBRANCH  28  30
ENDBRANCH   5  28
TORSDOF 6
