REMARK  7 active torsions:
REMARK  status: ('A' for Active; 'I' for Inactive)
REMARK    1  A    between atoms: C2_7  and  C1_12 
REMARK    2  A    between atoms: N7_21  and  C4_8 
REMARK    3  A    between atoms: C8_9  and  N7_21 
REMARK    4  A    between atoms: C15_14  and  C17_10 
REMARK    5  A    between atoms: N14_22  and  C12_11 
REMARK    6  A    between atoms: C15_14  and  C16_13 
REMARK    7  A    between atoms: C15_14  and  N14_22 
ROOT
ATOM      1  C10 AZ5 d   1      -3.078   3.562  27.182  0.00  0.00     0.046 A 
ATOM      2  C9  AZ5 d   1      -1.920   2.885  27.700  0.00  0.00     0.098 A 
ATOM      3  C8  AZ5 d   1      -0.867   2.663  26.904  0.00  0.00     0.171 A 
ATOM      4  C12 AZ5 d   1      -1.987   3.602  25.161  0.00  0.00     0.724 A 
ATOM      5  N11 AZ5 d   1      -3.041   3.861  25.862  0.00  0.00    -0.073 NA
ATOM      6  N13 AZ5 d   1      -0.868   3.000  25.691  0.00  0.00    -0.043 NA
ATOM      7 CL2  AZ5 d   1      -1.979   2.438  29.360  0.00  0.00    -0.079 Cl
ATOM      8  H4  AZ5 d   1      -3.926   3.817  27.808  0.00  0.00     0.118 H 
ENDROOT
BRANCH   4   9
ATOM      9  N14 AZ5 d   1      -2.030   3.913  23.829  0.00  0.00    -0.211 N 
ATOM     10  H14 AZ5 d   1      -2.875   4.369  23.456  0.00  0.00     0.178 HD
BRANCH   9  11
ATOM     11  C15 AZ5 d   1      -0.942   3.629  22.924  0.00  0.00     0.082 C 
ATOM     12  H11 AZ5 d   1      -0.557   2.616  23.113  0.00  0.00     0.085 H 
BRANCH  11  13
ATOM     13  C17 AZ5 d   1       0.155   4.626  23.076  0.00  0.00     0.148 A 
ATOM     14  N18 AZ5 d   1       1.373   4.207  22.716  0.00  0.00    -0.240 NA
ATOM     15  C19 AZ5 d   1       2.342   5.110  22.847  0.00  0.00     0.043 A 
ATOM     16  C20 AZ5 d   1       2.115   6.380  23.316  0.00  0.00     0.151 A 
ATOM     17  H2  AZ5 d   1       3.353   4.831  22.572  0.00  0.00     0.119 H 
ATOM     18  C21 AZ5 d   1       0.822   6.690  23.660  0.00  0.00     0.043 A 
ATOM     19  F23 AZ5 d   1       3.110   7.271  23.440  0.00  0.00    -0.203 F 
ATOM     20  N22 AZ5 d   1      -0.192   5.830  23.545  0.00  0.00    -0.240 NA
ATOM     21  H3  AZ5 d   1       0.615   7.682  24.044  0.00  0.00     0.119 H 
ENDBRANCH  11  13
BRANCH  11  22
ATOM     22  C16 AZ5 d   1      -1.457   3.742  21.514  0.00  0.00    -0.050 C 
ATOM     23  H8  AZ5 d   1      -2.272   3.019  21.362  0.00  0.00     0.030 H 
ATOM     24  H9  AZ5 d   1      -0.641   3.529  20.808  0.00  0.00     0.030 H 
ATOM     25  H10 AZ5 d   1      -1.835   4.761  21.342  0.00  0.00     0.030 H 
ENDBRANCH  11  22
ENDBRANCH   9  11
ENDBRANCH   4   9
BRANCH   3  26
ATOM     26  N7  AZ5 d   1       0.245   2.046  27.420  0.00  0.00    -0.324 N 
ATOM     27  H13 AZ5 d   1       0.161   1.773  28.410  0.00  0.00     0.169 HD
BRANCH  26  28
ATOM     28  C4  AZ5 d   1       1.442   1.733  26.846  0.00  0.00     0.125 A 
ATOM     29  C3  AZ5 d   1       1.818   1.946  25.489  0.00  0.00    -0.014 A 
ATOM     30  C2  AZ5 d   1       3.107   1.466  25.392  0.00  0.00     0.054 A 
ATOM     31  H1  AZ5 d   1       1.217   2.392  24.698  0.00  0.00     0.092 H 
ATOM     32  N6  AZ5 d   1       3.431   1.008  26.634  0.00  0.00    -0.178 NA
ATOM     33  N5  AZ5 d   1       2.445   1.158  27.520  0.00  0.00    -0.262 N 
ATOM     34  H12 AZ5 d   1       2.454   0.888  28.514  0.00  0.00     0.191 HD
BRANCH  30  35
ATOM     35  C1  AZ5 d   1       4.053   1.390  24.270  0.00  0.00    -0.034 C 
ATOM     36  H5  AZ5 d   1       4.992   0.931  24.613  0.00  0.00     0.035 H 
ATOM     37  H6  AZ5 d   1       4.256   2.403  23.892  0.00  0.00     0.035 H 
ATOM     38  H7  AZ5 d   1       3.619   0.779  23.465  0.00  0.00     0.035 H 
ENDBRANCH  30  35
ENDBRANCH  26  28
ENDBRANCH   3  26
TORSDOF 7
