REMARK  8 active torsions:
REMARK  status: ('A' for Active; 'I' for Inactive)
REMARK    1  A    between atoms: CA_2  and  N_1 
REMARK    2  A    between atoms: CB_3  and  CA_2 
REMARK    3  A    between atoms: CA_2  and  C_4 
REMARK    4  A    between atoms: SG_7  and  CB_3 
REMARK    5  A    between atoms: CAZ_27  and  SG_7 
REMARK    6  A    between atoms: CAZ_27  and  CAV_13 
REMARK    7  A    between atoms: CAZ_27  and  CAK_19 
REMARK    8  A    between atoms: CAI_25  and  CAZ_27 
ROOT
ATOM      1  CAZ 2XA d   1     -16.363   2.219 -42.332  0.00  0.00     0.089 C 
ENDROOT
BRANCH   1   2
ATOM      2  SG  2XA d   1     -15.055   3.481 -41.919  0.00  0.00    -0.141 SA
BRANCH   2   3
ATOM      3  CB  2XA d   1     -14.438   4.284 -43.491  0.00  0.00     0.014 C 
ATOM      4  H   2XA d   1     -13.551   3.708 -43.755  0.00  0.00     0.052 H 
ATOM      5  H   2XA d   1     -15.310   4.294 -44.145  0.00  0.00     0.052 H 
BRANCH   3   6
ATOM      6  CA  2XA d   1     -13.947   5.758 -43.488  0.00  0.00     0.190 C 
ATOM      7  H   2XA d   1     -13.037   5.801 -42.889  0.00  0.00     0.102 H 
BRANCH   6   8
ATOM      8  N   2XA d   1     -14.987   6.618 -42.896  0.00  0.00    -0.065 N 
ATOM      9  H   2XA d   1     -15.225   6.271 -41.967  0.00  0.00     0.275 HD
ATOM     10  H   2XA d   1     -14.636   7.573 -42.824  0.00  0.00     0.275 HD
ATOM     11  H   2XA d   1     -15.817   6.603 -43.489  0.00  0.00     0.275 HD
ENDBRANCH   6   8
BRANCH   6  12
ATOM     12  C   2XA d   1     -13.565   6.273 -44.918  0.00  0.00     0.205 C 
ATOM     13  OXT 2XA d   1     -13.929   7.432 -45.248  0.00  0.00    -0.646 OA
ATOM     14  O   2XA d   1     -12.886   5.513 -45.659  0.00  0.00    -0.646 OA
ENDBRANCH   6  12
ENDBRANCH   3   6
ENDBRANCH   2   3
ENDBRANCH   1   2
BRANCH   1  15
ATOM     15  CAV 2XA d   1     -17.343   2.841 -43.326  0.00  0.00    -0.030 A 
ATOM     16  CAM 2XA d   1     -17.134   2.709 -44.688  0.00  0.00    -0.073 A 
ATOM     17  CAG 2XA d   1     -17.973   3.317 -45.612  0.00  0.00    -0.061 A 
ATOM     18  H   2XA d   1     -16.292   2.115 -45.043  0.00  0.00     0.084 H 
ATOM     19  CAD 2XA d   1     -19.051   4.066 -45.180  0.00  0.00     0.034 A 
ATOM     20  H   2XA d   1     -17.781   3.204 -46.679  0.00  0.00     0.086 H 
ATOM     21  CAH 2XA d   1     -19.277   4.203 -43.812  0.00  0.00    -0.061 A 
ATOM     22 CL   2XA d   1     -20.087   4.808 -46.373  0.00  0.00    -0.084 Cl
ATOM     23  CAN 2XA d   1     -18.414   3.610 -42.898  0.00  0.00    -0.073 A 
ATOM     24  H   2XA d   1     -20.133   4.777 -43.458  0.00  0.00     0.086 H 
ATOM     25  H   2XA d   1     -18.582   3.752 -41.830  0.00  0.00     0.084 H 
ENDBRANCH   1  15
BRANCH   1  26
ATOM     26  CAK 2XA d   1     -15.479   1.087 -42.873  0.00  0.00    -0.030 A 
ATOM     27  CAF 2XA d   1     -15.992  -0.159 -43.217  0.00  0.00    -0.075 A 
ATOM     28  CAL 2XA d   1     -15.150  -1.148 -43.712  0.00  0.00    -0.082 A 
ATOM     29  H   2XA d   1     -17.057  -0.360 -43.098  0.00  0.00     0.084 H 
ATOM     30  CAR 2XA d   1     -13.790  -0.891 -43.856  0.00  0.00    -0.083 A 
ATOM     31  H   2XA d   1     -15.554  -2.122 -43.987  0.00  0.00     0.083 H 
ATOM     32  CAX 2XA d   1     -13.264   0.351 -43.524  0.00  0.00    -0.082 A 
ATOM     33  H   2XA d   1     -13.130  -1.673 -44.233  0.00  0.00     0.083 H 
ATOM     34  CAQ 2XA d   1     -14.119   1.318 -43.026  0.00  0.00    -0.075 A 
ATOM     35  H   2XA d   1     -12.202   0.559 -43.653  0.00  0.00     0.083 H 
ATOM     36  H   2XA d   1     -13.713   2.290 -42.746  0.00  0.00     0.084 H 
ENDBRANCH   1  26
BRANCH   1  37
ATOM     37  CAI 2XA d   1     -17.127   1.742 -41.087  0.00  0.00    -0.030 A 
ATOM     38  CAE 2XA d   1     -18.259   0.941 -41.219  0.00  0.00    -0.075 A 
ATOM     39  CAJ 2XA d   1     -18.927   0.485 -40.080  0.00  0.00    -0.082 A 
ATOM     40  H   2XA d   1     -18.623   0.670 -42.210  0.00  0.00     0.084 H 
ATOM     41  CAP 2XA d   1     -18.483   0.827 -38.805  0.00  0.00    -0.083 A 
ATOM     42  H   2XA d   1     -19.808  -0.147 -40.191  0.00  0.00     0.083 H 
ATOM     43  CAW 2XA d   1     -17.352   1.625 -38.659  0.00  0.00    -0.082 A 
ATOM     44  H   2XA d   1     -19.019   0.471 -37.925  0.00  0.00     0.083 H 
ATOM     45  CAO 2XA d   1     -16.691   2.069 -39.800  0.00  0.00    -0.075 A 
ATOM     46  H   2XA d   1     -16.990   1.897 -37.668  0.00  0.00     0.083 H 
ATOM     47  H   2XA d   1     -15.804   2.692 -39.686  0.00  0.00     0.084 H 
ENDBRANCH   1  37
TORSDOF 8
