REMARK  26 active torsions:
REMARK  status: ('A' for Active; 'I' for Inactive)
REMARK    1  A    between atoms: PA_1  and  O5B_4 
REMARK    2  A    between atoms: O3P_53  and  PA_1 
REMARK    3  A    between atoms: O5B_4  and  C5B_5 
REMARK    4  A    between atoms: C5B_5  and  C4B_6 
REMARK    5  A    between atoms: C3B_8  and  O3B_9 
REMARK    6  A    between atoms: C2B_10  and  O2B_11 
REMARK    7  A    between atoms: C1B_12  and  N9A_13 
REMARK    8  A    between atoms: C6A_17  and  N6A_18 
REMARK    9  A    between atoms: C2_24  and  O2_25 
REMARK   10  A    between atoms: C4_27  and  O4_28 
REMARK       I    between atoms: N5_30  and  C1B_54 
REMARK   11  A    between atoms: C7_33  and  C7M_34 
REMARK   12  A    between atoms: C8_35  and  C8M_36 
REMARK   13  A    between atoms: C1'_41  and  N10_39 
REMARK   14  A    between atoms: C2'_42  and  C1'_41 
REMARK   15  A    between atoms: C2'_42  and  O2'_43 
REMARK   16  A    between atoms: C3'_44  and  C2'_42 
REMARK   17  A    between atoms: C3'_44  and  O3'_45 
REMARK   18  A    between atoms: C4'_46  and  C3'_44 
REMARK   19  A    between atoms: C4'_46  and  O4'_47 
REMARK   20  A    between atoms: C5'_48  and  C4'_46 
REMARK   21  A    between atoms: O5'_49  and  C5'_48 
REMARK   22  A    between atoms: P_50  and  O5'_49 
REMARK   23  A    between atoms: P_50  and  O3P_53 
REMARK   24  A    between atoms: C1B_54  and  C2B_56 
REMARK   25  A    between atoms: C2B_56  and  C3B_57 
REMARK   26  A    between atoms: C3B_57  and  CB1_58 
ROOT
ATOM      1  C2' NON d   1      -7.107  61.176  86.198  0.00  0.00     0.078 C 
ATOM      2  H   NON d   1      -7.760  60.538  86.793  0.00  0.00     0.089 H 
ENDROOT
BRANCH   1   3
ATOM      3  C1' NON d   1      -6.063  60.358  85.448  0.00  0.00     0.028 C 
ATOM      4  H   NON d   1      -5.354  61.084  85.050  0.00  0.00     0.069 H 
ATOM      5  H   NON d   1      -5.691  59.629  86.168  0.00  0.00     0.069 H 
BRANCH   3   6
ATOM      6  N10 NON d   1      -6.521  59.560  84.272  0.00  0.00    -0.326 N 
ATOM      7  C9A NON d   1      -6.660  60.232  82.999  0.00  0.00     0.059 A 
ATOM      8  C5X NON d   1      -7.264  59.607  81.907  0.00  0.00     0.050 A 
ATOM      9  C9  NON d   1      -6.103  61.492  82.758  0.00  0.00    -0.049 A 
ATOM     10  N5  NON d   1      -7.932  58.371  82.008  0.00  0.00    -0.175 NA
ATOM     11  C6  NON d   1      -7.364  60.250  80.675  0.00  0.00    -0.053 A 
ATOM     12  C4X NON d   1      -8.039  57.858  83.373  0.00  0.00     0.122 C 
ATOM     13  C1B NON d   1      -7.538  57.266  81.116  0.00  0.00     0.209 C 
ATOM     14  C4  NON d   1      -9.145  56.943  83.624  0.00  0.00     0.192 C 
ATOM     15  C10 NON d   1      -7.529  58.603  84.535  0.00  0.00     0.161 C 
ATOM     16  N3  NON d   1      -9.447  56.617  84.894  0.00  0.00    -0.181 NA
ATOM     17  C2  NON d   1      -8.852  57.227  85.948  0.00  0.00     0.270 C 
ATOM     18  N1  NON d   1      -7.896  58.182  85.777  0.00  0.00    -0.187 NA
ATOM     19  O1B NON d   1      -8.279  57.081  80.134  0.00  0.00    -0.279 OA
ATOM     20  C7  NON d   1      -6.821  61.506  80.462  0.00  0.00    -0.054 A 
ATOM     21  H   NON d   1      -7.883  59.751  79.857  0.00  0.00     0.087 H 
ATOM     22  C8  NON d   1      -6.186  62.127  81.511  0.00  0.00    -0.054 A 
ATOM     23  H   NON d   1      -5.584  62.000  83.571  0.00  0.00     0.087 H 
BRANCH  14  24
ATOM     24  O4  NON d   1      -9.686  56.340  82.546  0.00  0.00    -0.343 OA
ATOM     25  H   NON d   1      -9.326  56.732  81.747  0.00  0.00     0.219 HD
ENDBRANCH  14  24
BRANCH  17  26
ATOM     26  O2  NON d   1      -9.236  56.875  87.201  0.00  0.00    -0.329 OA
ATOM     27  H   NON d   1      -9.912  56.195  87.148  0.00  0.00     0.221 HD
ENDBRANCH  17  26
BRANCH  13  28
ATOM     28  C2B NON d   1      -6.375  56.329  81.380  0.00  0.00     0.009 C 
ATOM     29  H   NON d   1      -5.591  56.499  80.642  0.00  0.00     0.046 H 
ATOM     30  H   NON d   1      -6.712  55.295  81.307  0.00  0.00     0.046 H 
BRANCH  28  31
ATOM     31  C3B NON d   1      -5.841  56.592  82.757  0.00  0.00    -0.034 C 
ATOM     32  H   NON d   1      -6.498  57.346  83.190  0.00  0.00     0.040 H 
ATOM     33  H   NON d   1      -4.794  56.862  82.621  0.00  0.00     0.040 H 
BRANCH  31  34
ATOM     34  CB1 NON d   1      -5.844  55.439  83.730  0.00  0.00    -0.058 A 
ATOM     35  CB6 NON d   1      -4.620  55.220  84.343  0.00  0.00    -0.076 A 
ATOM     36  CB5 NON d   1      -4.412  54.216  85.281  0.00  0.00    -0.066 A 
ATOM     37  H   NON d   1      -3.782  55.865  84.077  0.00  0.00     0.084 H 
ATOM     38  CB4 NON d   1      -5.469  53.394  85.634  0.00  0.00     0.011 A 
ATOM     39  H   NON d   1      -3.430  54.077  85.733  0.00  0.00     0.085 H 
ATOM     40  CB3 NON d   1      -6.729  53.608  85.023  0.00  0.00    -0.066 A 
ATOM     41 BR   NON d   1      -5.069  52.058  86.947  0.00  0.00    -0.051 Br
ATOM     42  CB2 NON d   1      -6.925  54.629  84.078  0.00  0.00    -0.076 A 
ATOM     43  H   NON d   1      -7.567  52.965  85.293  0.00  0.00     0.085 H 
ATOM     44  H   NON d   1      -7.904  54.785  83.625  0.00  0.00     0.084 H 
ENDBRANCH  31  34
ENDBRANCH  28  31
ENDBRANCH  13  28
BRANCH  20  45
ATOM     45  C7M NON d   1      -6.920  62.180  79.114  0.00  0.00    -0.051 C 
ATOM     46  H   NON d   1      -6.429  61.561  78.363  0.00  0.00     0.033 H 
ATOM     47  H   NON d   1      -7.970  62.310  78.850  0.00  0.00     0.033 H 
ATOM     48  H   NON d   1      -6.432  63.154  79.159  0.00  0.00     0.033 H 
ENDBRANCH  20  45
BRANCH  22  49
ATOM     49  C8M NON d   1      -5.589  63.488  81.277  0.00  0.00    -0.051 C 
ATOM     50  H   NON d   1      -6.052  64.207  81.953  0.00  0.00     0.033 H 
ATOM     51  H   NON d   1      -4.516  63.450  81.465  0.00  0.00     0.033 H 
ATOM     52  H   NON d   1      -5.768  63.789  80.245  0.00  0.00     0.033 H 
ENDBRANCH  22  49
ENDBRANCH   3   6
ENDBRANCH   1   3
BRANCH   1  53
ATOM     53  O2' NON d   1      -7.851  61.885  85.209  0.00  0.00    -0.391 OA
ATOM     54  H   NON d   1      -8.525  62.418  85.638  0.00  0.00     0.210 HD
ENDBRANCH   1  53
BRANCH   1  55
ATOM     55  C3' NON d   1      -6.421  62.151  87.162  0.00  0.00     0.088 C 
ATOM     56  H   NON d   1      -5.934  62.866  86.499  0.00  0.00     0.091 H 
BRANCH  55  57
ATOM     57  O3' NON d   1      -5.552  61.432  88.021  0.00  0.00    -0.390 OA
ATOM     58  H   NON d   1      -5.123  62.043  88.624  0.00  0.00     0.210 HD
ENDBRANCH  55  57
BRANCH  55  59
ATOM     59  C4' NON d   1      -7.342  62.909  88.107  0.00  0.00     0.084 C 
ATOM     60  H   NON d   1      -7.729  62.246  88.881  0.00  0.00     0.090 H 
BRANCH  59  61
ATOM     61  O4' NON d   1      -8.460  63.414  87.373  0.00  0.00    -0.391 OA
ATOM     62  H   NON d   1      -8.938  62.682  86.976  0.00  0.00     0.210 HD
ENDBRANCH  59  61
BRANCH  59  63
ATOM     63  C5' NON d   1      -6.547  64.027  88.812  0.00  0.00     0.058 C 
ATOM     64  H   NON d   1      -6.270  64.743  88.038  0.00  0.00     0.079 H 
ATOM     65  H   NON d   1      -5.719  63.539  89.325  0.00  0.00     0.079 H 
BRANCH  63  66
ATOM     66  O5' NON d   1      -7.266  64.772  89.817  0.00  0.00    -0.287 OA
BRANCH  66  67
ATOM     67  P   NON d   1      -6.439  65.734  90.822  0.00  0.00     0.417 P 
ATOM     68  O1P NON d   1      -5.211  65.093  91.451  0.00  0.00    -0.624 OA
ATOM     69  O2P NON d   1      -7.520  66.318  91.709  0.00  0.00    -0.624 OA
BRANCH  67  70
ATOM     70  O3P NON d   1      -5.779  66.889  89.904  0.00  0.00    -0.180 OA
BRANCH  70  71
ATOM     71  PA  NON d   1      -6.605  67.672  88.768  0.00  0.00     0.417 P 
ATOM     72  O1A NON d   1      -5.622  68.157  87.726  0.00  0.00    -0.624 OA
ATOM     73  O2A NON d   1      -7.873  66.898  88.425  0.00  0.00    -0.624 OA
BRANCH  71  74
ATOM     74  O5B NON d   1      -7.041  68.999  89.572  0.00  0.00    -0.287 OA
BRANCH  74  75
ATOM     75  C5B NON d   1      -6.113  70.072  89.751  0.00  0.00     0.058 C 
ATOM     76  H   NON d   1      -5.372  70.038  88.952  0.00  0.00     0.079 H 
ATOM     77  H   NON d   1      -5.630  69.965  90.722  0.00  0.00     0.079 H 
BRANCH  75  78
ATOM     78  C4B NON d   1      -6.837  71.417  89.701  0.00  0.00     0.089 C 
ATOM     79  O4B NON d   1      -5.922  72.473  89.981  0.00  0.00    -0.353 OA
ATOM     80  C1B NON d   1      -6.122  73.522  89.046  0.00  0.00     0.139 C 
ATOM     81  C2B NON d   1      -6.448  72.783  87.782  0.00  0.00     0.105 C 
ATOM     82  H   NON d   1      -6.907  74.218  89.342  0.00  0.00     0.122 H 
ATOM     83  C3B NON d   1      -7.382  71.715  88.314  0.00  0.00     0.091 C 
ATOM     84  H   NON d   1      -5.585  72.383  87.250  0.00  0.00     0.093 H 
ATOM     85  H   NON d   1      -7.412  70.835  87.672  0.00  0.00     0.091 H 
ATOM     86  H   NON d   1      -7.645  71.356  90.430  0.00  0.00     0.090 H 
BRANCH  80  87
ATOM     87  N9A NON d   1      -4.929  74.392  88.912  0.00  0.00    -0.294 N 
ATOM     88  C8A NON d   1      -3.760  74.171  88.278  0.00  0.00     0.071 A 
ATOM     89  N7A NON d   1      -2.940  75.246  88.433  0.00  0.00    -0.236 NA
ATOM     90  H   NON d   1      -3.509  73.266  87.724  0.00  0.00     0.144 H 
ATOM     91  C5A NON d   1      -3.616  76.132  89.183  0.00  0.00     0.149 A 
ATOM     92  C6A NON d   1      -3.279  77.398  89.647  0.00  0.00     0.155 A 
ATOM     93  C4A NON d   1      -4.872  75.589  89.476  0.00  0.00     0.167 A 
ATOM     94  N1A NON d   1      -4.169  78.109  90.390  0.00  0.00    -0.222 NA
ATOM     95  C2A NON d   1      -5.518  77.586  90.737  0.00  0.00     0.091 A 
ATOM     96  N3A NON d   1      -5.800  76.248  90.216  0.00  0.00    -0.222 NA
ATOM     97  H   NON d   1      -6.236  78.152  91.330  0.00  0.00     0.146 H 
BRANCH  92  98
ATOM     98  N6A NON d   1      -2.078  77.924  89.332  0.00  0.00    -0.382 N 
ATOM     99  H   NON d   1      -1.424  77.393  88.757  0.00  0.00     0.157 HD
ATOM    100  H   NON d   1      -1.824  78.853  89.669  0.00  0.00     0.157 HD
ENDBRANCH  92  98
ENDBRANCH  80  87
BRANCH  81 101
ATOM    101  O2B NON d   1      -7.039  73.618  86.807  0.00  0.00    -0.388 OA
ATOM    102  H   NON d   1      -7.798  74.065  87.188  0.00  0.00     0.210 HD
ENDBRANCH  81 101
BRANCH  83 103
ATOM    103  O3B NON d   1      -8.747  72.174  88.374  0.00  0.00    -0.390 OA
ATOM    104  H   NON d   1      -8.791  72.977  88.898  0.00  0.00     0.210 HD
ENDBRANCH  83 103
ENDBRANCH  75  78
ENDBRANCH  74  75
ENDBRANCH  71  74
ENDBRANCH  70  71
ENDBRANCH  67  70
ENDBRANCH  66  67
ENDBRANCH  63  66
ENDBRANCH  59  63
ENDBRANCH  55  59
ENDBRANCH   1  55
TORSDOF 26
