REMARK  26 active torsions:
REMARK  status: ('A' for Active; 'I' for Inactive)
REMARK    1  A    between atoms: PA_1  and  O5B_4 
REMARK    2  A    between atoms: O3P_53  and  PA_1 
REMARK    3  A    between atoms: O5B_4  and  C5B_5 
REMARK    4  A    between atoms: C5B_5  and  C4B_6 
REMARK    5  A    between atoms: C3B_8  and  O3B_9 
REMARK    6  A    between atoms: C2B_10  and  O2B_11 
REMARK    7  A    between atoms: C1B_12  and  N9A_13 
REMARK    8  A    between atoms: C6A_17  and  N6A_18 
REMARK    9  A    between atoms: C2_24  and  O2_25 
REMARK   10  A    between atoms: C4_27  and  O4_28 
REMARK       I    between atoms: N5_30  and  C1B_54 
REMARK   11  A    between atoms: C7_33  and  C7M_34 
REMARK   12  A    between atoms: C8_35  and  C8M_36 
REMARK   13  A    between atoms: C1'_41  and  N10_39 
REMARK   14  A    between atoms: C2'_42  and  C1'_41 
REMARK   15  A    between atoms: C2'_42  and  O2'_43 
REMARK   16  A    between atoms: C3'_44  and  C2'_42 
REMARK   17  A    between atoms: C3'_44  and  O3'_45 
REMARK   18  A    between atoms: C4'_46  and  C3'_44 
REMARK   19  A    between atoms: C4'_46  and  O4'_47 
REMARK   20  A    between atoms: C5'_48  and  C4'_46 
REMARK   21  A    between atoms: O5'_49  and  C5'_48 
REMARK   22  A    between atoms: P_50  and  O5'_49 
REMARK   23  A    between atoms: P_50  and  O3P_53 
REMARK   24  A    between atoms: C1B_54  and  C2B_56 
REMARK   25  A    between atoms: C2B_56  and  C3B_57 
REMARK   26  A    between atoms: C3B_57  and  CB1_58 
ROOT
ATOM      1  C2' NON d   1      -7.598  60.478  86.568  0.00  0.00     0.078 C 
ATOM      2  H   NON d   1      -8.322  59.904  87.146  0.00  0.00     0.089 H 
ENDROOT
BRANCH   1   3
ATOM      3  C1' NON d   1      -6.605  59.533  85.866  0.00  0.00     0.028 C 
ATOM      4  H   NON d   1      -5.839  60.200  85.470  0.00  0.00     0.069 H 
ATOM      5  H   NON d   1      -6.363  58.791  86.627  0.00  0.00     0.069 H 
BRANCH   3   6
ATOM      6  N10 NON d   1      -7.024  58.718  84.683  0.00  0.00    -0.326 N 
ATOM      7  C9A NON d   1      -7.111  59.440  83.425  0.00  0.00     0.059 A 
ATOM      8  C5X NON d   1      -7.745  58.879  82.308  0.00  0.00     0.050 A 
ATOM      9  C9  NON d   1      -6.472  60.686  83.234  0.00  0.00    -0.049 A 
ATOM     10  N5  NON d   1      -8.465  57.652  82.368  0.00  0.00    -0.175 NA
ATOM     11  C6  NON d   1      -7.784  59.569  81.098  0.00  0.00    -0.053 A 
ATOM     12  C4X NON d   1      -8.667  57.130  83.729  0.00  0.00     0.122 C 
ATOM     13  C1B NON d   1      -8.037  56.526  81.489  0.00  0.00     0.209 C 
ATOM     14  C4  NON d   1      -9.850  56.279  83.957  0.00  0.00     0.192 C 
ATOM     15  C10 NON d   1      -8.092  57.811  84.908  0.00  0.00     0.161 C 
ATOM     16  N3  NON d   1     -10.158  55.962  85.236  0.00  0.00    -0.181 NA
ATOM     17  C2  NON d   1      -9.509  56.521  86.300  0.00  0.00     0.270 C 
ATOM     18  N1  NON d   1      -8.482  57.403  86.141  0.00  0.00    -0.187 NA
ATOM     19  O1B NON d   1      -8.595  56.386  80.379  0.00  0.00    -0.279 OA
ATOM     20  C7  NON d   1      -7.169  60.798  80.942  0.00  0.00    -0.054 A 
ATOM     21  H   NON d   1      -8.313  59.129  80.253  0.00  0.00     0.087 H 
ATOM     22  C8  NON d   1      -6.508  61.366  82.007  0.00  0.00    -0.054 A 
ATOM     23  H   NON d   1      -5.933  61.134  84.068  0.00  0.00     0.087 H 
BRANCH  14  24
ATOM     24  O4  NON d   1     -10.483  55.709  82.895  0.00  0.00    -0.343 OA
ATOM     25  H   NON d   1     -10.122  56.065  82.080  0.00  0.00     0.219 HD
ENDBRANCH  14  24
BRANCH  17  26
ATOM     26  O2  NON d   1      -9.920  56.188  87.551  0.00  0.00    -0.329 OA
ATOM     27  H   NON d   1     -10.646  55.562  87.492  0.00  0.00     0.221 HD
ENDBRANCH  17  26
BRANCH  13  28
ATOM     28  C2B NON d   1      -7.018  55.482  81.900  0.00  0.00     0.009 C 
ATOM     29  H   NON d   1      -6.221  55.454  81.157  0.00  0.00     0.046 H 
ATOM     30  H   NON d   1      -7.512  54.513  81.968  0.00  0.00     0.046 H 
BRANCH  28  31
ATOM     31  C3B NON d   1      -6.421  55.824  83.246  0.00  0.00    -0.034 C 
ATOM     32  H   NON d   1      -7.016  56.637  83.661  0.00  0.00     0.040 H 
ATOM     33  H   NON d   1      -5.373  56.071  83.076  0.00  0.00     0.040 H 
BRANCH  31  34
ATOM     34  CB1 NON d   1      -6.452  54.695  84.252  0.00  0.00    -0.058 A 
ATOM     35  CB6 NON d   1      -5.267  54.475  84.962  0.00  0.00    -0.076 A 
ATOM     36  CB5 NON d   1      -5.186  53.470  85.911  0.00  0.00    -0.066 A 
ATOM     37  H   NON d   1      -4.397  55.102  84.766  0.00  0.00     0.084 H 
ATOM     38  CB4 NON d   1      -6.312  52.679  86.146  0.00  0.00     0.011 A 
ATOM     39  H   NON d   1      -4.262  53.300  86.463  0.00  0.00     0.085 H 
ATOM     40  CB3 NON d   1      -7.515  52.895  85.451  0.00  0.00    -0.066 A 
ATOM     41 BR   NON d   1      -6.145  51.318  87.460  0.00  0.00    -0.051 Br
ATOM     42  CB2 NON d   1      -7.589  53.911  84.500  0.00  0.00    -0.076 A 
ATOM     43  H   NON d   1      -8.385  52.271  85.655  0.00  0.00     0.085 H 
ATOM     44  H   NON d   1      -8.516  54.094  83.957  0.00  0.00     0.084 H 
ENDBRANCH  31  34
ENDBRANCH  28  31
ENDBRANCH  13  28
BRANCH  20  45
ATOM     45  C7M NON d   1      -7.212  61.519  79.622  0.00  0.00    -0.051 C 
ATOM     46  H   NON d   1      -6.745  60.900  78.856  0.00  0.00     0.033 H 
ATOM     47  H   NON d   1      -8.249  61.715  79.350  0.00  0.00     0.033 H 
ATOM     48  H   NON d   1      -6.673  62.462  79.707  0.00  0.00     0.033 H 
ENDBRANCH  20  45
BRANCH  22  49
ATOM     49  C8M NON d   1      -5.840  62.701  81.797  0.00  0.00    -0.051 C 
ATOM     50  H   NON d   1      -6.265  63.431  82.486  0.00  0.00     0.033 H 
ATOM     51  H   NON d   1      -4.771  62.604  81.983  0.00  0.00     0.033 H 
ATOM     52  H   NON d   1      -6.003  63.030  80.771  0.00  0.00     0.033 H 
ENDBRANCH  22  49
ENDBRANCH   3   6
ENDBRANCH   1   3
BRANCH   1  53
ATOM     53  O2' NON d   1      -8.308  61.231  85.585  0.00  0.00    -0.391 OA
ATOM     54  H   NON d   1      -8.928  61.821  86.021  0.00  0.00     0.210 HD
ENDBRANCH   1  53
BRANCH   1  55
ATOM     55  C3' NON d   1      -6.834  61.397  87.541  0.00  0.00     0.088 C 
ATOM     56  H   NON d   1      -6.385  62.124  86.864  0.00  0.00     0.091 H 
BRANCH  55  57
ATOM     57  O3' NON d   1      -5.893  60.642  88.315  0.00  0.00    -0.390 OA
ATOM     58  H   NON d   1      -5.428  61.230  88.914  0.00  0.00     0.210 HD
ENDBRANCH  55  57
BRANCH  55  59
ATOM     59  C4' NON d   1      -7.665  62.156  88.565  0.00  0.00     0.084 C 
ATOM     60  H   NON d   1      -8.079  61.478  89.312  0.00  0.00     0.090 H 
BRANCH  59  61
ATOM     61  O4' NON d   1      -8.797  62.775  87.933  0.00  0.00    -0.391 OA
ATOM     62  H   NON d   1      -9.344  62.099  87.525  0.00  0.00     0.210 HD
ENDBRANCH  59  61
BRANCH  59  63
ATOM     63  C5' NON d   1      -6.739  63.163  89.299  0.00  0.00     0.058 C 
ATOM     64  H   NON d   1      -6.321  63.829  88.544  0.00  0.00     0.079 H 
ATOM     65  H   NON d   1      -5.991  62.582  89.838  0.00  0.00     0.079 H 
BRANCH  63  66
ATOM     66  O5' NON d   1      -7.425  63.989  90.270  0.00  0.00    -0.287 OA
BRANCH  66  67
ATOM     67  P   NON d   1      -6.732  65.098  91.230  0.00  0.00     0.417 P 
ATOM     68  O1P NON d   1      -5.531  64.549  91.998  0.00  0.00    -0.624 OA
ATOM     69  O2P NON d   1      -7.911  65.743  91.979  0.00  0.00    -0.624 OA
BRANCH  67  70
ATOM     70  O3P NON d   1      -6.071  66.166  90.218  0.00  0.00    -0.180 OA
BRANCH  70  71
ATOM     71  PA  NON d   1      -6.959  67.099  89.247  0.00  0.00     0.417 P 
ATOM     72  O1A NON d   1      -6.022  67.475  88.098  0.00  0.00    -0.624 OA
ATOM     73  O2A NON d   1      -8.357  66.498  89.053  0.00  0.00    -0.624 OA
BRANCH  71  74
ATOM     74  O5B NON d   1      -7.238  68.452  90.072  0.00  0.00    -0.287 OA
BRANCH  74  75
ATOM     75  C5B NON d   1      -6.220  69.457  90.093  0.00  0.00     0.058 C 
ATOM     76  H   NON d   1      -5.494  69.326  89.290  0.00  0.00     0.079 H 
ATOM     77  H   NON d   1      -5.619  69.417  91.002  0.00  0.00     0.079 H 
BRANCH  75  78
ATOM     78  C4B NON d   1      -6.980  70.748  89.969  0.00  0.00     0.089 C 
ATOM     79  O4B NON d   1      -6.122  71.819  90.275  0.00  0.00    -0.353 OA
ATOM     80  C1B NON d   1      -6.411  72.894  89.390  0.00  0.00     0.139 C 
ATOM     81  C2B NON d   1      -6.674  72.174  88.082  0.00  0.00     0.105 C 
ATOM     82  H   NON d   1      -7.255  73.531  89.656  0.00  0.00     0.122 H 
ATOM     83  C3B NON d   1      -7.492  70.982  88.568  0.00  0.00     0.091 C 
ATOM     84  H   NON d   1      -5.768  71.898  87.542  0.00  0.00     0.093 H 
ATOM     85  H   NON d   1      -7.385  70.153  87.869  0.00  0.00     0.091 H 
ATOM     86  H   NON d   1      -7.826  70.685  90.653  0.00  0.00     0.090 H 
BRANCH  80  87
ATOM     87  N9A NON d   1      -5.233  73.807  89.364  0.00  0.00    -0.294 N 
ATOM     88  C8A NON d   1      -4.006  73.549  88.849  0.00  0.00     0.071 A 
ATOM     89  N7A NON d   1      -3.209  74.628  89.041  0.00  0.00    -0.236 NA
ATOM     90  H   NON d   1      -3.708  72.622  88.359  0.00  0.00     0.144 H 
ATOM     91  C5A NON d   1      -3.945  75.542  89.691  0.00  0.00     0.149 A 
ATOM     92  C6A NON d   1      -3.626  76.798  90.125  0.00  0.00     0.155 A 
ATOM     93  C4A NON d   1      -5.217  75.030  89.903  0.00  0.00     0.167 A 
ATOM     94  N1A NON d   1      -4.532  77.543  90.782  0.00  0.00    -0.222 NA
ATOM     95  C2A NON d   1      -5.907  77.070  91.046  0.00  0.00     0.091 A 
ATOM     96  N3A NON d   1      -6.175  75.735  90.541  0.00  0.00    -0.222 NA
ATOM     97  H   NON d   1      -6.652  77.668  91.571  0.00  0.00     0.146 H 
BRANCH  92  98
ATOM     98  N6A NON d   1      -2.389  77.249  89.877  0.00  0.00    -0.382 N 
ATOM     99  H   NON d   1      -1.722  76.660  89.379  0.00  0.00     0.157 HD
ATOM    100  H   NON d   1      -2.115  78.182  90.186  0.00  0.00     0.157 HD
ENDBRANCH  92  98
ENDBRANCH  80  87
BRANCH  81 101
ATOM    101  O2B NON d   1      -7.334  72.971  87.095  0.00  0.00    -0.388 OA
ATOM    102  H   NON d   1      -8.151  73.318  87.460  0.00  0.00     0.210 HD
ENDBRANCH  81 101
BRANCH  83 103
ATOM    103  O3B NON d   1      -8.902  71.246  88.674  0.00  0.00    -0.390 OA
ATOM    104  H   NON d   1      -9.041  72.023  89.221  0.00  0.00     0.210 HD
ENDBRANCH  83 103
ENDBRANCH  75  78
ENDBRANCH  74  75
ENDBRANCH  71  74
ENDBRANCH  70  71
ENDBRANCH  67  70
ENDBRANCH  66  67
ENDBRANCH  63  66
ENDBRANCH  59  63
ENDBRANCH  55  59
ENDBRANCH   1  55
TORSDOF 26
