REMARK  27 active torsions:
REMARK  status: ('A' for Active; 'I' for Inactive)
REMARK    1  A    between atoms: PA_1  and  O5B_4 
REMARK    2  A    between atoms: O3P_53  and  PA_1 
REMARK    3  A    between atoms: O5B_4  and  C5B_5 
REMARK    4  A    between atoms: C5B_5  and  C4B_6 
REMARK    5  A    between atoms: C3B_8  and  O3B_9 
REMARK    6  A    between atoms: C2B_10  and  O2B_11 
REMARK    7  A    between atoms: C1B_12  and  N9A_13 
REMARK    8  A    between atoms: C6A_17  and  N6A_18 
REMARK    9  A    between atoms: C2_24  and  O2_25 
REMARK   10  A    between atoms: C4_27  and  O4_28 
REMARK   11  A    between atoms: CB_57  and  N5_30 
REMARK   12  A    between atoms: C7_33  and  C7M_34 
REMARK   13  A    between atoms: C8_35  and  C8M_36 
REMARK   14  A    between atoms: N10_39  and  C1'_41 
REMARK   15  A    between atoms: C1'_41  and  C2'_42 
REMARK   16  A    between atoms: C2'_42  and  O2'_43 
REMARK   17  A    between atoms: C2'_42  and  C3'_44 
REMARK   18  A    between atoms: C3'_44  and  O3'_45 
REMARK   19  A    between atoms: C3'_44  and  C4'_46 
REMARK   20  A    between atoms: C4'_46  and  O4'_47 
REMARK   21  A    between atoms: C4'_46  and  C5'_48 
REMARK   22  A    between atoms: C5'_48  and  O5'_49 
REMARK   23  A    between atoms: O5'_49  and  P_50 
REMARK   24  A    between atoms: P_50  and  O3P_53 
REMARK   25  A    between atoms: CA_56  and  C_54 
REMARK   26  A    between atoms: CA_56  and  CB_57 
REMARK   27  A    between atoms: CB_57  and  CG_58 
ROOT
ATOM      1  C2' NON d   1      -7.400  62.012  85.956  0.00  0.00     0.078 C 
ATOM      2  H   NON d   1      -8.028  61.365  86.586  0.00  0.00     0.089 H 
ENDROOT
BRANCH   1   3
ATOM      3  C1' NON d   1      -6.418  61.155  85.165  0.00  0.00     0.028 C 
ATOM      4  H   NON d   1      -5.704  61.848  84.695  0.00  0.00     0.069 H 
ATOM      5  H   NON d   1      -5.891  60.525  85.897  0.00  0.00     0.069 H 
BRANCH   3   6
ATOM      6  N10 NON d   1      -6.902  60.240  84.082  0.00  0.00    -0.326 N 
ATOM      7  C9A NON d   1      -6.945  60.842  82.771  0.00  0.00     0.058 A 
ATOM      8  C5X NON d   1      -7.570  60.190  81.699  0.00  0.00     0.043 A 
ATOM      9  C9  NON d   1      -6.290  62.050  82.498  0.00  0.00    -0.049 A 
ATOM     10  N5  NON d   1      -8.256  58.978  81.868  0.00  0.00    -0.232 NA
ATOM     11  C6  NON d   1      -7.578  60.731  80.418  0.00  0.00    -0.053 A 
ATOM     12  C4X NON d   1      -8.711  58.775  83.182  0.00  0.00     0.116 A 
ATOM     13  C4  NON d   1      -9.757  57.905  83.421  0.00  0.00     0.192 A 
ATOM     14  C10 NON d   1      -7.994  59.363  84.343  0.00  0.00     0.161 A 
ATOM     15  N3  NON d   1     -10.105  57.610  84.686  0.00  0.00    -0.181 NA
ATOM     16  C2  NON d   1      -9.463  58.146  85.747  0.00  0.00     0.270 A 
ATOM     17  N1  NON d   1      -8.411  59.003  85.587  0.00  0.00    -0.187 NA
ATOM     18  C7  NON d   1      -6.943  61.937  80.173  0.00  0.00    -0.054 A 
ATOM     19  H   NON d   1      -8.081  60.209  79.612  0.00  0.00     0.087 H 
ATOM     20  C8  NON d   1      -6.298  62.602  81.213  0.00  0.00    -0.054 A 
ATOM     21  H   NON d   1      -5.768  62.566  83.296  0.00  0.00     0.087 H 
BRANCH  10  22
ATOM     22  CB  NON d   1      -7.364  57.758  81.869  0.00  0.00     0.035 C 
ATOM     23  H   NON d   1      -7.374  57.486  82.935  0.00  0.00     0.073 H 
BRANCH  22  24
ATOM     24  CA  NON d   1      -5.876  57.806  81.546  0.00  0.00     0.003 C 
ATOM     25  H   NON d   1      -5.688  57.484  80.511  0.00  0.00     0.046 H 
ATOM     26  H   NON d   1      -5.474  58.819  81.694  0.00  0.00     0.046 H 
BRANCH  24  27
ATOM     27  C   NON d   1      -5.259  56.821  82.547  0.00  0.00     0.090 C 
ATOM     28  O   NON d   1      -4.473  55.920  82.228  0.00  0.00    -0.307 OA
ATOM     29  H   NON d   1      -5.528  56.920  83.598  0.00  0.00     0.143 H 
ENDBRANCH  24  27
ENDBRANCH  22  24
BRANCH  22  30
ATOM     30  CG  NON d   1      -7.913  56.571  81.180  0.00  0.00    -0.039 A 
ATOM     31  CD1 NON d   1      -8.356  56.652  79.865  0.00  0.00    -0.075 A 
ATOM     32  CE1 NON d   1      -8.858  55.473  79.293  0.00  0.00    -0.082 A 
ATOM     33  H   NON d   1      -8.316  57.581  79.308  0.00  0.00     0.084 H 
ATOM     34  CZ  NON d   1      -8.930  54.262  80.008  0.00  0.00    -0.083 A 
ATOM     35  H   NON d   1      -9.202  55.495  78.265  0.00  0.00     0.083 H 
ATOM     36  CE2 NON d   1      -8.490  54.185  81.327  0.00  0.00    -0.082 A 
ATOM     37  H   NON d   1      -9.333  53.379  79.526  0.00  0.00     0.083 H 
ATOM     38  CD2 NON d   1      -7.978  55.352  81.904  0.00  0.00    -0.075 A 
ATOM     39  H   NON d   1      -8.542  53.257  81.885  0.00  0.00     0.083 H 
ATOM     40  H   NON d   1      -7.623  55.325  82.928  0.00  0.00     0.084 H 
ENDBRANCH  22  30
ENDBRANCH  10  22
BRANCH  13  41
ATOM     41  O4  NON d   1     -10.397  57.397  82.479  0.00  0.00    -0.343 OA
ATOM     42  H   NON d   1     -10.332  56.450  82.528  0.00  0.00     0.219 HD
ENDBRANCH  13  41
BRANCH  16  43
ATOM     43  O2  NON d   1      -9.883  57.827  86.874  0.00  0.00    -0.329 OA
ATOM     44  H   NON d   1     -10.614  57.227  86.780  0.00  0.00     0.221 HD
ENDBRANCH  16  43
BRANCH  18  45
ATOM     45  C7M NON d   1      -6.958  62.513  78.782  0.00  0.00    -0.051 C 
ATOM     46  H   NON d   1      -7.515  61.840  78.113  0.00  0.00     0.033 H 
ATOM     47  H   NON d   1      -5.925  62.620  78.418  0.00  0.00     0.033 H 
ATOM     48  H   NON d   1      -7.445  63.499  78.799  0.00  0.00     0.033 H 
ENDBRANCH  18  45
BRANCH  20  49
ATOM     49  C8M NON d   1      -5.611  63.926  80.959  0.00  0.00    -0.051 C 
ATOM     50  H   NON d   1      -5.163  64.292  81.894  0.00  0.00     0.033 H 
ATOM     51  H   NON d   1      -6.348  64.657  80.595  0.00  0.00     0.033 H 
ATOM     52  H   NON d   1      -4.823  63.791  80.203  0.00  0.00     0.033 H 
ENDBRANCH  20  49
ENDBRANCH   3   6
ENDBRANCH   1   3
BRANCH   1  53
ATOM     53  O2' NON d   1      -8.223  62.768  85.069  0.00  0.00    -0.391 OA
ATOM     54  H   NON d   1      -8.829  63.297  85.575  0.00  0.00     0.210 HD
ENDBRANCH   1  53
BRANCH   1  55
ATOM     55  C3' NON d   1      -6.620  62.989  86.827  0.00  0.00     0.088 C 
ATOM     56  H   NON d   1      -6.079  63.670  86.154  0.00  0.00     0.091 H 
BRANCH  55  57
ATOM     57  O3' NON d   1      -5.666  62.287  87.631  0.00  0.00    -0.390 OA
ATOM     58  H   NON d   1      -6.120  61.667  88.190  0.00  0.00     0.210 HD
ENDBRANCH  55  57
BRANCH  55  59
ATOM     59  C4' NON d   1      -7.494  63.843  87.759  0.00  0.00     0.084 C 
ATOM     60  H   NON d   1      -7.850  63.179  88.561  0.00  0.00     0.090 H 
BRANCH  59  61
ATOM     61  O4' NON d   1      -8.706  64.383  87.133  0.00  0.00    -0.391 OA
ATOM     62  H   NON d   1      -9.248  63.666  86.825  0.00  0.00     0.210 HD
ENDBRANCH  59  61
BRANCH  59  63
ATOM     63  C5' NON d   1      -6.568  64.900  88.428  0.00  0.00     0.058 C 
ATOM     64  H   NON d   1      -6.091  65.497  87.637  0.00  0.00     0.079 H 
ATOM     65  H   NON d   1      -5.795  64.372  89.005  0.00  0.00     0.079 H 
BRANCH  63  66
ATOM     66  O5' NON d   1      -7.270  65.793  89.314  0.00  0.00    -0.287 OA
BRANCH  66  67
ATOM     67  P   NON d   1      -6.444  66.814  90.227  0.00  0.00     0.417 P 
ATOM     68  O1P NON d   1      -7.601  67.481  90.965  0.00  0.00    -0.624 OA
ATOM     69  O2P NON d   1      -5.347  66.115  91.037  0.00  0.00    -0.624 OA
BRANCH  67  70
ATOM     70  O3P NON d   1      -5.736  67.894  89.277  0.00  0.00    -0.180 OA
BRANCH  70  71
ATOM     71  PA  NON d   1      -6.574  68.758  88.211  0.00  0.00     0.417 P 
ATOM     72  O1A NON d   1      -5.548  69.152  87.125  0.00  0.00    -0.624 OA
ATOM     73  O2A NON d   1      -7.936  68.111  87.936  0.00  0.00    -0.624 OA
BRANCH  71  74
ATOM     74  O5B NON d   1      -7.007  70.150  88.957  0.00  0.00    -0.287 OA
BRANCH  74  75
ATOM     75  C5B NON d   1      -6.099  71.208  89.316  0.00  0.00     0.058 C 
ATOM     76  H   NON d   1      -5.195  71.142  88.693  0.00  0.00     0.079 H 
ATOM     77  H   NON d   1      -5.822  71.109  90.376  0.00  0.00     0.079 H 
BRANCH  75  78
ATOM     78  C4B NON d   1      -6.771  72.553  89.091  0.00  0.00     0.089 C 
ATOM     79  O4B NON d   1      -5.842  73.595  89.373  0.00  0.00    -0.353 OA
ATOM     80  C1B NON d   1      -6.005  74.633  88.416  0.00  0.00     0.139 C 
ATOM     81  C2B NON d   1      -6.294  73.872  87.142  0.00  0.00     0.105 C 
ATOM     82  H   NON d   1      -6.853  75.282  88.681  0.00  0.00     0.122 H 
ATOM     83  C3B NON d   1      -7.184  72.760  87.655  0.00  0.00     0.091 C 
ATOM     84  H   NON d   1      -5.367  73.461  86.715  0.00  0.00     0.093 H 
ATOM     85  H   NON d   1      -7.070  71.846  87.054  0.00  0.00     0.091 H 
ATOM     86  H   NON d   1      -7.650  72.631  89.748  0.00  0.00     0.090 H 
BRANCH  80  87
ATOM     87  N9A NON d   1      -4.787  75.452  88.312  0.00  0.00    -0.294 N 
ATOM     88  C8A NON d   1      -3.652  75.109  87.681  0.00  0.00     0.071 A 
ATOM     89  N7A NON d   1      -2.765  76.129  87.806  0.00  0.00    -0.236 NA
ATOM     90  H   NON d   1      -3.474  74.171  87.157  0.00  0.00     0.144 H 
ATOM     91  C5A NON d   1      -3.372  77.100  88.540  0.00  0.00     0.149 A 
ATOM     92  C6A NON d   1      -2.947  78.358  88.982  0.00  0.00     0.155 A 
ATOM     93  C4A NON d   1      -4.662  76.665  88.859  0.00  0.00     0.167 A 
ATOM     94  N1A NON d   1      -3.830  79.106  89.713  0.00  0.00    -0.222 NA
ATOM     95  C2A NON d   1      -5.082  78.654  90.007  0.00  0.00     0.091 A 
ATOM     96  N3A NON d   1      -5.503  77.452  89.595  0.00  0.00    -0.222 NA
ATOM     97  H   NON d   1      -5.750  79.281  90.586  0.00  0.00     0.146 H 
BRANCH  92  98
ATOM     98  N6A NON d   1      -1.690  78.795  88.654  0.00  0.00    -0.382 N 
ATOM     99  H   NON d   1      -1.366  79.719  88.974  0.00  0.00     0.157 HD
ATOM    100  H   NON d   1      -1.069  78.199  88.088  0.00  0.00     0.157 HD
ENDBRANCH  92  98
ENDBRANCH  80  87
BRANCH  81 101
ATOM    101  O2B NON d   1      -6.927  74.678  86.153  0.00  0.00    -0.388 OA
ATOM    102  H   NON d   1      -7.706  75.077  86.522  0.00  0.00     0.210 HD
ENDBRANCH  81 101
BRANCH  83 103
ATOM    103  O3B NON d   1      -8.537  73.186  87.688  0.00  0.00    -0.390 OA
ATOM    104  H   NON d   1      -8.601  73.995  88.182  0.00  0.00     0.210 HD
ENDBRANCH  83 103
ENDBRANCH  75  78
ENDBRANCH  74  75
ENDBRANCH  71  74
ENDBRANCH  70  71
ENDBRANCH  67  70
ENDBRANCH  66  67
ENDBRANCH  63  66
ENDBRANCH  59  63
ENDBRANCH  55  59
ENDBRANCH   1  55
TORSDOF 27
