REMARK  24 active torsions:
REMARK  status: ('A' for Active; 'I' for Inactive)
REMARK    1  A    between atoms: PA_1  and  O5B_4 
REMARK    2  A    between atoms: O3P_53  and  PA_1 
REMARK    3  A    between atoms: O5B_4  and  C5B_5 
REMARK    4  A    between atoms: C5B_5  and  C4B_6 
REMARK    5  A    between atoms: C3B_8  and  O3B_9 
REMARK    6  A    between atoms: C2B_10  and  O2B_11 
REMARK    7  A    between atoms: C1B_12  and  N9A_13 
REMARK    8  A    between atoms: C6A_17  and  N6A_18 
REMARK       I    between atoms: N5_30  and  C1_54 
REMARK    9  A    between atoms: C7_33  and  C7M_34 
REMARK   10  A    between atoms: C8_35  and  C8M_36 
REMARK   11  A    between atoms: C1'_41  and  N10_39 
REMARK   12  A    between atoms: C2'_42  and  C1'_41 
REMARK   13  A    between atoms: C2'_42  and  O2'_43 
REMARK   14  A    between atoms: C3'_44  and  C2'_42 
REMARK   15  A    between atoms: C3'_44  and  O3'_45 
REMARK   16  A    between atoms: C4'_46  and  C3'_44 
REMARK   17  A    between atoms: C4'_46  and  O4'_47 
REMARK   18  A    between atoms: C5'_48  and  C4'_46 
REMARK   19  A    between atoms: O5'_49  and  C5'_48 
REMARK   20  A    between atoms: P_50  and  O5'_49 
REMARK   21  A    between atoms: P_50  and  O3P_53 
REMARK   22  A    between atoms: C1_54  and  C2_56 
REMARK   23  A    between atoms: C2_56  and  C3_57 
REMARK   24  A    between atoms: C3_57  and  C31_58 
ROOT
ATOM      1  C2' NON d   1      -7.088  61.302  86.336  0.00  0.00     0.078 C 
ATOM      2  H25 NON d   1      -7.787  60.672  86.906  0.00  0.00     0.089 H 
ENDROOT
BRANCH   1   3
ATOM      3  C1' NON d   1      -6.119  60.425  85.546  0.00  0.00     0.028 C 
ATOM      4  H23 NON d   1      -5.311  61.079  85.185  0.00  0.00     0.069 H 
ATOM      5  H24 NON d   1      -5.706  59.685  86.248  0.00  0.00     0.069 H 
BRANCH   3   6
ATOM      6  N10 NON d   1      -6.637  59.665  84.357  0.00  0.00    -0.327 N 
ATOM      7  C9A NON d   1      -6.722  60.390  83.108  0.00  0.00     0.059 A 
ATOM      8  C5X NON d   1      -7.443  59.886  82.011  0.00  0.00     0.050 A 
ATOM      9  C9  NON d   1      -6.002  61.585  82.908  0.00  0.00    -0.049 A 
ATOM     10  N5  NON d   1      -8.234  58.715  82.066  0.00  0.00    -0.175 NA
ATOM     11  C6  NON d   1      -7.485  60.585  80.806  0.00  0.00    -0.053 A 
ATOM     12  C4X NON d   1      -8.291  58.106  83.391  0.00  0.00     0.121 C 
ATOM     13  C1  NON d   1      -7.927  57.626  81.086  0.00  0.00     0.209 C 
ATOM     14  C4  NON d   1      -9.449  57.248  83.612  0.00  0.00     0.208 C 
ATOM     15  C10 NON d   1      -7.720  58.759  84.577  0.00  0.00     0.138 C 
ATOM     16  N3  NON d   1      -9.761  56.904  84.871  0.00  0.00    -0.297 N 
ATOM     17  O4  NON d   1     -10.076  56.701  82.533  0.00  0.00    -0.170 OA
ATOM     18  C2  NON d   1      -9.136  57.425  85.937  0.00  0.00     0.259 C 
ATOM     19  H14 NON d   1     -10.488  56.233  85.020  0.00  0.00     0.171 HD
ATOM     20  N1  NON d   1      -8.121  58.315  85.798  0.00  0.00    -0.304 N 
ATOM     21  O2  NON d   1      -9.573  57.024  87.154  0.00  0.00    -0.151 OA
ATOM     22  H13 NON d   1      -7.655  58.653  86.616  0.00  0.00     0.171 HD
ATOM     23  O   NON d   1      -8.605  57.533  80.036  0.00  0.00    -0.279 OA
ATOM     24  C7  NON d   1      -6.786  61.776  80.642  0.00  0.00    -0.054 A 
ATOM     25  H15 NON d   1      -8.072  60.194  79.983  0.00  0.00     0.087 H 
ATOM     26  C8  NON d   1      -6.037  62.276  81.686  0.00  0.00    -0.054 A 
ATOM     27  H22 NON d   1      -5.404  61.982  83.721  0.00  0.00     0.087 H 
BRANCH  13  28
ATOM     28  C2  NON d   1      -6.879  56.538  81.296  0.00  0.00     0.009 C 
ATOM     29  H33 NON d   1      -6.284  56.461  80.374  0.00  0.00     0.046 H 
ATOM     30  H34 NON d   1      -7.408  55.590  81.472  0.00  0.00     0.046 H 
BRANCH  28  31
ATOM     31  C3  NON d   1      -5.922  56.757  82.450  0.00  0.00    -0.034 C 
ATOM     32  H35 NON d   1      -6.172  57.700  82.958  0.00  0.00     0.040 H 
ATOM     33  H36 NON d   1      -4.893  56.809  82.066  0.00  0.00     0.040 H 
BRANCH  31  34
ATOM     34  C31 NON d   1      -6.035  55.610  83.435  0.00  0.00    -0.058 A 
ATOM     35  C32 NON d   1      -4.891  55.209  84.154  0.00  0.00    -0.077 A 
ATOM     36  C33 NON d   1      -4.957  54.161  85.081  0.00  0.00    -0.082 A 
ATOM     37  H37 NON d   1      -3.949  55.718  83.987  0.00  0.00     0.084 H 
ATOM     38  C34 NON d   1      -6.191  53.517  85.271  0.00  0.00    -0.083 A 
ATOM     39  H38 NON d   1      -4.079  53.855  85.637  0.00  0.00     0.083 H 
ATOM     40  C35 NON d   1      -7.341  53.904  84.562  0.00  0.00    -0.082 A 
ATOM     41  H39 NON d   1      -6.258  52.702  85.982  0.00  0.00     0.083 H 
ATOM     42  C36 NON d   1      -7.260  54.951  83.641  0.00  0.00    -0.077 A 
ATOM     43  H40 NON d   1      -8.283  53.394  84.728  0.00  0.00     0.083 H 
ATOM     44  H41 NON d   1      -8.140  55.255  83.086  0.00  0.00     0.084 H 
ENDBRANCH  31  34
ENDBRANCH  28  31
ENDBRANCH  13  28
BRANCH  24  45
ATOM     45  C7M NON d   1      -6.822  62.526  79.330  0.00  0.00    -0.051 C 
ATOM     46  H16 NON d   1      -7.463  61.987  78.617  0.00  0.00     0.033 H 
ATOM     47  H17 NON d   1      -5.803  62.601  78.922  0.00  0.00     0.033 H 
ATOM     48  H18 NON d   1      -7.226  63.536  79.496  0.00  0.00     0.033 H 
ENDBRANCH  24  45
BRANCH  26  49
ATOM     49  C8M NON d   1      -5.287  63.560  81.451  0.00  0.00    -0.051 C 
ATOM     50  H19 NON d   1      -4.738  63.836  82.363  0.00  0.00     0.033 H 
ATOM     51  H20 NON d   1      -5.999  64.359  81.195  0.00  0.00     0.033 H 
ATOM     52  H21 NON d   1      -4.576  63.423  80.623  0.00  0.00     0.033 H 
ENDBRANCH  26  49
ENDBRANCH   3   6
ENDBRANCH   1   3
BRANCH   1  53
ATOM     53  O2' NON d   1      -7.776  62.073  85.374  0.00  0.00    -0.391 OA
ATOM     54  H26 NON d   1      -8.398  62.642  85.812  0.00  0.00     0.210 HD
ENDBRANCH   1  53
BRANCH   1  55
ATOM     55  C3' NON d   1      -6.372  62.255  87.287  0.00  0.00     0.088 C 
ATOM     56  H27 NON d   1      -5.723  62.924  86.703  0.00  0.00     0.091 H 
BRANCH  55  57
ATOM     57  O3' NON d   1      -5.615  61.453  88.165  0.00  0.00    -0.390 OA
ATOM     58  H28 NON d   1      -6.196  60.871  88.641  0.00  0.00     0.210 HD
ENDBRANCH  55  57
BRANCH  55  59
ATOM     59  C4' NON d   1      -7.277  63.092  88.186  0.00  0.00     0.084 C 
ATOM     60  H29 NON d   1      -7.660  62.443  88.987  0.00  0.00     0.090 H 
BRANCH  59  61
ATOM     61  O4' NON d   1      -8.394  63.599  87.445  0.00  0.00    -0.391 OA
ATOM     62  H30 NON d   1      -8.895  62.873  87.093  0.00  0.00     0.210 HD
ENDBRANCH  59  61
BRANCH  59  63
ATOM     63  C5' NON d   1      -6.493  64.252  88.837  0.00  0.00     0.058 C 
ATOM     64  H31 NON d   1      -6.173  64.936  88.038  0.00  0.00     0.079 H 
ATOM     65  H32 NON d   1      -5.607  63.828  89.333  0.00  0.00     0.079 H 
BRANCH  63  66
ATOM     66  O5' NON d   1      -7.231  65.026  89.822  0.00  0.00    -0.287 OA
BRANCH  66  67
ATOM     67  P   NON d   1      -6.410  65.988  90.831  0.00  0.00     0.417 P 
ATOM     68  O1P NON d   1      -5.218  65.317  91.477  0.00  0.00    -0.624 OA
ATOM     69  O2P NON d   1      -7.495  66.510  91.735  0.00  0.00    -0.624 OA
BRANCH  67  70
ATOM     70  O3P NON d   1      -5.756  67.132  89.885  0.00  0.00    -0.180 OA
BRANCH  70  71
ATOM     71  PA  NON d   1      -6.583  67.960  88.769  0.00  0.00     0.417 P 
ATOM     72  O1A NON d   1      -5.642  68.461  87.691  0.00  0.00    -0.624 OA
ATOM     73  O2A NON d   1      -7.888  67.233  88.441  0.00  0.00    -0.624 OA
BRANCH  71  74
ATOM     74  O5B NON d   1      -7.032  69.262  89.611  0.00  0.00    -0.287 OA
BRANCH  74  75
ATOM     75  C5B NON d   1      -6.132  70.360  89.777  0.00  0.00     0.058 C 
ATOM     76  H1  NON d   1      -5.357  70.310  88.998  0.00  0.00     0.079 H 
ATOM     77  H2  NON d   1      -5.660  70.291  90.768  0.00  0.00     0.079 H 
BRANCH  75  78
ATOM     78  C4B NON d   1      -6.862  71.691  89.666  0.00  0.00     0.089 C 
ATOM     79  O4B NON d   1      -5.920  72.719  89.940  0.00  0.00    -0.353 OA
ATOM     80  C1B NON d   1      -6.119  73.764  89.003  0.00  0.00     0.139 C 
ATOM     81  C2B NON d   1      -6.464  73.036  87.736  0.00  0.00     0.105 C 
ATOM     82  H8  NON d   1      -6.958  74.406  89.311  0.00  0.00     0.122 H 
ATOM     83  C3B NON d   1      -7.375  71.939  88.262  0.00  0.00     0.091 C 
ATOM     84  H6  NON d   1      -5.568  72.598  87.272  0.00  0.00     0.093 H 
ATOM     85  H4  NON d   1      -7.286  71.036  87.640  0.00  0.00     0.091 H 
ATOM     86  H3  NON d   1      -7.696  71.721  90.383  0.00  0.00     0.090 H 
BRANCH  80  87
ATOM     87  N9A NON d   1      -4.906  74.598  88.879  0.00  0.00    -0.294 N 
ATOM     88  C8A NON d   1      -3.740  74.311  88.266  0.00  0.00     0.071 A 
ATOM     89  N7A NON d   1      -2.900  75.367  88.425  0.00  0.00    -0.236 NA
ATOM     90  H9  NON d   1      -3.510  73.389  87.734  0.00  0.00     0.144 H 
ATOM     91  C5A NON d   1      -3.558  76.305  89.146  0.00  0.00     0.149 A 
ATOM     92  C6A NON d   1      -3.191  77.566  89.593  0.00  0.00     0.155 A 
ATOM     93  C4A NON d   1      -4.828  75.808  89.434  0.00  0.00     0.167 A 
ATOM     94  N1A NON d   1      -4.060  78.313  90.314  0.00  0.00    -0.222 NA
ATOM     95  C2A NON d   1      -5.423  77.844  90.659  0.00  0.00     0.091 A 
ATOM     96  N3A NON d   1      -5.743  76.515  90.146  0.00  0.00    -0.222 NA
ATOM     97  H12 NON d   1      -6.121  78.435  91.241  0.00  0.00     0.146 H 
BRANCH  92  98
ATOM     98  N6A NON d   1      -1.962  78.038  89.296  0.00  0.00    -0.382 N 
ATOM     99  H10 NON d   1      -1.677  78.973  89.622  0.00  0.00     0.157 HD
ATOM    100  H11 NON d   1      -1.309  77.464  88.744  0.00  0.00     0.157 HD
ENDBRANCH  92  98
ENDBRANCH  80  87
BRANCH  81 101
ATOM    101  O2B NON d   1      -7.069  73.919  86.803  0.00  0.00    -0.388 OA
ATOM    102  H7  NON d   1      -7.810  74.351  87.212  0.00  0.00     0.210 HD
ENDBRANCH  81 101
BRANCH  83 103
ATOM    103  O3B NON d   1      -8.757  72.335  88.332  0.00  0.00    -0.390 OA
ATOM    104  H5  NON d   1      -8.832  73.130  88.846  0.00  0.00     0.210 HD
ENDBRANCH  83 103
ENDBRANCH  75  78
ENDBRANCH  74  75
ENDBRANCH  71  74
ENDBRANCH  70  71
ENDBRANCH  67  70
ENDBRANCH  66  67
ENDBRANCH  63  66
ENDBRANCH  59  63
ENDBRANCH  55  59
ENDBRANCH   1  55
TORSDOF 24
