REMARK  26 active torsions:
REMARK  status: ('A' for Active; 'I' for Inactive)
REMARK    1  A    between atoms: PA_1  and  O5B_4 
REMARK    2  A    between atoms: O3P_53  and  PA_1 
REMARK    3  A    between atoms: O5B_4  and  C5B_5 
REMARK    4  A    between atoms: C5B_5  and  C4B_6 
REMARK    5  A    between atoms: C3B_8  and  O3B_9 
REMARK    6  A    between atoms: C2B_10  and  O2B_11 
REMARK    7  A    between atoms: C1B_12  and  N9A_13 
REMARK    8  A    between atoms: C6A_17  and  N6A_18 
REMARK       I    between atoms: C1B_71  and  N5_30 
REMARK    9  A    between atoms: C7_33  and  C7M_34 
REMARK   10  A    between atoms: C8_35  and  C8M_36 
REMARK   11  A    between atoms: N10_39  and  C1'_41 
REMARK   12  A    between atoms: C1'_41  and  C2'_42 
REMARK   13  A    between atoms: C2'_42  and  O2'_43 
REMARK   14  A    between atoms: C2'_42  and  C3'_44 
REMARK   15  A    between atoms: C3'_44  and  O3'_45 
REMARK   16  A    between atoms: C3'_44  and  C4'_46 
REMARK   17  A    between atoms: C4'_46  and  O4'_47 
REMARK   18  A    between atoms: C4'_46  and  C5'_48 
REMARK   19  A    between atoms: C5'_48  and  O5'_49 
REMARK   20  A    between atoms: O5'_49  and  P_50 
REMARK   21  A    between atoms: P_50  and  O3P_53 
REMARK   22  A    between atoms: C4B_55  and  CW2_56 
REMARK       I    between atoms: NB4_62  and  C4B_55 
REMARK   23  A    between atoms: CB4_63  and  NB4_62 
REMARK   24  A    between atoms: C3B_69  and  CB1_68 
REMARK   25  A    between atoms: C2B_70  and  C3B_69 
REMARK   26  A    between atoms: C2B_70  and  C1B_71 
ROOT
ATOM      1  N1  NON d   1      -8.194  58.473  86.212  0.00  0.00    -0.292 N 
ATOM      2  C2  NON d   1      -9.041  57.431  86.435  0.00  0.00     0.328 C 
ATOM      3  O2  NON d   1      -9.434  57.127  87.577  0.00  0.00    -0.247 OA
ATOM      4  N3  NON d   1      -9.509  56.674  85.440  0.00  0.00    -0.285 N 
ATOM      5  C4  NON d   1      -9.203  56.942  84.170  0.00  0.00     0.214 C 
ATOM      6  O4  NON d   1      -9.678  56.146  83.189  0.00  0.00    -0.169 OA
ATOM      7  C4X NON d   1      -8.166  57.933  83.870  0.00  0.00     0.141 C 
ATOM      8  N5  NON d   1      -7.898  58.297  82.466  0.00  0.00    -0.273 N 
ATOM      9  C5X NON d   1      -7.268  59.538  82.276  0.00  0.00     0.070 A 
ATOM     10  C6  NON d   1      -7.214  60.048  80.985  0.00  0.00    -0.048 A 
ATOM     11  C7  NON d   1      -6.655  61.319  80.747  0.00  0.00    -0.054 A 
ATOM     12  C8  NON d   1      -6.182  62.068  81.798  0.00  0.00    -0.054 A 
ATOM     13  C9  NON d   1      -6.265  61.567  83.094  0.00  0.00    -0.049 A 
ATOM     14  C9A NON d   1      -6.846  60.321  83.367  0.00  0.00     0.064 A 
ATOM     15  N10 NON d   1      -6.871  59.781  84.700  0.00  0.00    -0.327 N 
ATOM     16  C10 NON d   1      -7.822  58.821  84.974  0.00  0.00     0.144 C 
ATOM     17  C1B NON d   1      -7.537  57.162  81.710  0.00  0.00     0.229 C 
ATOM     18  O1B NON d   1      -8.194  57.015  80.695  0.00  0.00    -0.273 OA
ATOM     19  H16 NON d   1      -7.841  58.991  86.991  0.00  0.00     0.172 HD
ATOM     20  H17 NON d   1     -10.098  55.894  85.650  0.00  0.00     0.172 HD
ATOM     21  H18 NON d   1      -7.603  59.466  80.158  0.00  0.00     0.087 H 
ATOM     22  H25 NON d   1      -5.870  62.156  83.914  0.00  0.00     0.087 H 
ENDROOT
BRANCH  15  23
ATOM     23  C1' NON d   1      -6.355  60.479  85.876  0.00  0.00     0.028 C 
ATOM     24  H26 NON d   1      -5.442  61.011  85.571  0.00  0.00     0.069 H 
ATOM     25  H27 NON d   1      -6.102  59.718  86.629  0.00  0.00     0.069 H 
BRANCH  23  26
ATOM     26  C2' NON d   1      -7.264  61.479  86.532  0.00  0.00     0.078 C 
ATOM     27  H28 NON d   1      -8.159  60.992  86.946  0.00  0.00     0.089 H 
BRANCH  26  28
ATOM     28  O2' NON d   1      -7.619  62.456  85.551  0.00  0.00    -0.391 OA
ATOM     29  H29 NON d   1      -8.195  63.102  85.943  0.00  0.00     0.210 HD
ENDBRANCH  26  28
BRANCH  26  30
ATOM     30  C3' NON d   1      -6.458  62.171  87.626  0.00  0.00     0.088 C 
ATOM     31  H30 NON d   1      -5.673  62.772  87.144  0.00  0.00     0.091 H 
BRANCH  30  32
ATOM     32  O3' NON d   1      -5.832  61.153  88.410  0.00  0.00    -0.390 OA
ATOM     33  H31 NON d   1      -6.499  60.594  88.792  0.00  0.00     0.210 HD
ENDBRANCH  30  32
BRANCH  30  34
ATOM     34  C4' NON d   1      -7.288  63.116  88.489  0.00  0.00     0.084 C 
ATOM     35  H32 NON d   1      -7.788  62.542  89.283  0.00  0.00     0.090 H 
BRANCH  34  36
ATOM     36  O4' NON d   1      -8.242  63.843  87.711  0.00  0.00    -0.391 OA
ATOM     37  H33 NON d   1      -8.831  63.233  87.283  0.00  0.00     0.210 HD
ENDBRANCH  34  36
BRANCH  34  38
ATOM     38  C5' NON d   1      -6.411  64.202  89.074  0.00  0.00     0.058 C 
ATOM     39  H34 NON d   1      -5.907  64.738  88.257  0.00  0.00     0.079 H 
ATOM     40  H35 NON d   1      -5.658  63.743  89.731  0.00  0.00     0.079 H 
BRANCH  38  41
ATOM     41  O5' NON d   1      -7.193  65.130  89.832  0.00  0.00    -0.287 OA
BRANCH  41  42
ATOM     42  P   NON d   1      -6.396  66.000  90.925  0.00  0.00     0.417 P 
ATOM     43  O1P NON d   1      -5.200  65.207  91.514  0.00  0.00    -0.624 OA
ATOM     44  O2P NON d   1      -7.429  66.776  91.739  0.00  0.00    -0.624 OA
BRANCH  42  45
ATOM     45  O3P NON d   1      -5.759  67.273  90.219  0.00  0.00    -0.180 OA
BRANCH  45  46
ATOM     46  PA  NON d   1      -6.612  67.926  89.066  0.00  0.00     0.417 P 
ATOM     47  O1A NON d   1      -5.521  68.247  88.083  0.00  0.00    -0.624 OA
ATOM     48  O2A NON d   1      -7.747  66.947  88.769  0.00  0.00    -0.624 OA
BRANCH  46  49
ATOM     49  O5B NON d   1      -7.094  69.400  89.426  0.00  0.00    -0.287 OA
BRANCH  49  50
ATOM     50  C5B NON d   1      -5.994  70.259  89.511  0.00  0.00     0.058 C 
ATOM     51  H1  NON d   1      -5.405  70.240  88.582  0.00  0.00     0.079 H 
ATOM     52  H2  NON d   1      -5.348  69.992  90.360  0.00  0.00     0.079 H 
BRANCH  50  53
ATOM     53  C4B NON d   1      -6.624  71.590  89.717  0.00  0.00     0.089 C 
ATOM     54  O4B NON d   1      -5.691  72.638  90.042  0.00  0.00    -0.353 OA
ATOM     55  C1B NON d   1      -6.131  73.816  89.365  0.00  0.00     0.139 C 
ATOM     56  C2B NON d   1      -6.456  73.169  88.027  0.00  0.00     0.105 C 
ATOM     57  H8  NON d   1      -7.000  74.298  89.836  0.00  0.00     0.122 H 
ATOM     58  C3B NON d   1      -7.328  72.017  88.459  0.00  0.00     0.091 C 
ATOM     59  H6  NON d   1      -5.538  72.811  87.537  0.00  0.00     0.093 H 
ATOM     60  H4  NON d   1      -7.419  71.226  87.700  0.00  0.00     0.091 H 
ATOM     61  H3  NON d   1      -7.353  71.500  90.536  0.00  0.00     0.090 H 
BRANCH  55  62
ATOM     62  N9A NON d   1      -5.013  74.752  89.252  0.00  0.00    -0.295 N 
ATOM     63  C8A NON d   1      -3.865  74.404  88.637  0.00  0.00     0.070 A 
ATOM     64  N7A NON d   1      -3.030  75.474  88.693  0.00  0.00    -0.240 NA
ATOM     65  H9  NON d   1      -3.647  73.441  88.179  0.00  0.00     0.144 H 
ATOM     66  C5A NON d   1      -3.645  76.459  89.367  0.00  0.00     0.131 A 
ATOM     67  C6A NON d   1      -3.175  77.729  89.690  0.00  0.00     0.230 A 
ATOM     68  C4A NON d   1      -4.902  75.999  89.709  0.00  0.00     0.140 A 
ATOM     69  N1A NON d   1      -3.971  78.636  90.374  0.00  0.00    -0.245 NA
ATOM     70  H10 NON d   1      -2.772  77.365  90.647  0.00  0.00     0.131 H 
ATOM     71  C2A NON d   1      -5.332  78.192  90.771  0.00  0.00     0.062 A 
ATOM     72  N3A NON d   1      -5.699  76.798  90.391  0.00  0.00    -0.335 N 
ATOM     73  H14 NON d   1      -6.019  78.845  91.307  0.00  0.00     0.143 H 
ATOM     74  H15 NON d   1      -6.622  76.441  90.676  0.00  0.00     0.168 HD
BRANCH  67  75
ATOM     75  N6A NON d   1      -1.912  78.027  89.244  0.00  0.00    -0.051 N 
ATOM     76  H11 NON d   1      -1.667  78.963  89.528  0.00  0.00     0.277 HD
ATOM     77  H12 NON d   1      -1.887  77.964  88.238  0.00  0.00     0.277 HD
ATOM     78  H13 NON d   1      -1.254  77.373  89.638  0.00  0.00     0.277 HD
ENDBRANCH  67  75
ENDBRANCH  55  62
BRANCH  56  79
ATOM     79  O2B NON d   1      -7.141  74.018  87.137  0.00  0.00    -0.388 OA
ATOM     80  H7  NON d   1      -7.915  74.366  87.565  0.00  0.00     0.210 HD
ENDBRANCH  56  79
BRANCH  58  81
ATOM     81  O3B NON d   1      -8.613  72.528  88.885  0.00  0.00    -0.390 OA
ATOM     82  H5  NON d   1      -9.106  72.815  88.125  0.00  0.00     0.210 HD
ENDBRANCH  58  81
ENDBRANCH  50  53
ENDBRANCH  49  50
ENDBRANCH  46  49
ENDBRANCH  45  46
ENDBRANCH  42  45
ENDBRANCH  41  42
ENDBRANCH  38  41
ENDBRANCH  34  38
ENDBRANCH  30  34
ENDBRANCH  26  30
ENDBRANCH  23  26
ENDBRANCH  15  23
BRANCH  12  83
ATOM     83  C8M NON d   1      -5.586  63.418  81.513  0.00  0.00    -0.051 C 
ATOM     84  H22 NON d   1      -5.259  63.881  82.456  0.00  0.00     0.033 H 
ATOM     85  H23 NON d   1      -6.341  64.058  81.033  0.00  0.00     0.033 H 
ATOM     86  H24 NON d   1      -4.722  63.303  80.842  0.00  0.00     0.033 H 
ENDBRANCH  12  83
BRANCH  17  87
ATOM     87  C2B NON d   1      -6.520  56.115  82.121  0.00  0.00     0.014 C 
ATOM     88  H48 NON d   1      -7.025  55.142  82.209  0.00  0.00     0.047 H 
ATOM     89  H49 NON d   1      -5.739  56.054  81.349  0.00  0.00     0.047 H 
BRANCH  87  90
ATOM     90  C3B NON d   1      -5.877  56.455  83.444  0.00  0.00    -0.033 C 
ATOM     91  H46 NON d   1      -4.946  57.007  83.246  0.00  0.00     0.040 H 
ATOM     92  H47 NON d   1      -6.569  57.095  84.012  0.00  0.00     0.040 H 
BRANCH  90  93
ATOM     93  CB1 NON d   1      -5.544  55.244  84.289  0.00  0.00    -0.058 A 
ATOM     94  CB2 NON d   1      -4.659  55.464  85.345  0.00  0.00    -0.075 A 
ATOM     95  CB3 NON d   1      -4.255  54.453  86.205  0.00  0.00    -0.057 A 
ATOM     96  H43 NON d   1      -4.272  56.465  85.500  0.00  0.00     0.084 H 
ATOM     97  CB4 NON d   1      -4.752  53.174  86.033  0.00  0.00     0.035 A 
ATOM     98  H42 NON d   1      -3.555  54.664  87.005  0.00  0.00     0.086 H 
ATOM     99  CB5 NON d   1      -5.643  52.924  84.970  0.00  0.00    -0.057 A 
ATOM    100  CB6 NON d   1      -6.048  53.954  84.098  0.00  0.00    -0.075 A 
ATOM    101  H44 NON d   1      -6.024  51.920  84.820  0.00  0.00     0.086 H 
ATOM    102  H45 NON d   1      -6.741  53.749  83.290  0.00  0.00     0.084 H 
BRANCH  97 103
ATOM    103  NB4 NON d   1      -4.282  52.209  86.945  0.00  0.00    -0.323 N 
ATOM    104  C4B NON d   1      -4.951  51.146  87.397  0.00  0.00     0.256 C 
ATOM    105  O4B NON d   1      -6.173  51.154  87.493  0.00  0.00    -0.267 OA
ATOM    106  H41 NON d   1      -3.351  52.333  87.289  0.00  0.00     0.169 HD
BRANCH 104 107
ATOM    107  CW2 NON d   1      -4.161  49.922  87.813  0.00  0.00     0.032 A 
ATOM    108  CW3 NON d   1      -4.808  48.777  88.298  0.00  0.00    -0.068 A 
ATOM    109  CW4 NON d   1      -4.070  47.650  88.679  0.00  0.00    -0.082 A 
ATOM    110  H36 NON d   1      -5.889  48.764  88.379  0.00  0.00     0.085 H 
ATOM    111  CW5 NON d   1      -2.677  47.644  88.586  0.00  0.00    -0.083 A 
ATOM    112  H37 NON d   1      -4.586  46.772  89.050  0.00  0.00     0.083 H 
ATOM    113  CW6 NON d   1      -2.016  48.786  88.103  0.00  0.00    -0.082 A 
ATOM    114  H38 NON d   1      -2.112  46.768  88.883  0.00  0.00     0.083 H 
ATOM    115  CW7 NON d   1      -2.761  49.915  87.721  0.00  0.00    -0.068 A 
ATOM    116  H39 NON d   1      -0.935  48.796  88.025  0.00  0.00     0.083 H 
ATOM    117  H40 NON d   1      -2.246  50.794  87.350  0.00  0.00     0.085 H 
ENDBRANCH 104 107
ENDBRANCH  97 103
ENDBRANCH  90  93
ENDBRANCH  87  90
ENDBRANCH  17  87
BRANCH  11 118
ATOM    118  C7M NON d   1      -6.530  61.918  79.354  0.00  0.00    -0.051 C 
ATOM    119  H19 NON d   1      -6.945  61.217  78.615  0.00  0.00     0.033 H 
ATOM    120  H20 NON d   1      -5.470  62.103  79.128  0.00  0.00     0.033 H 
ATOM    121  H21 NON d   1      -7.085  62.867  79.312  0.00  0.00     0.033 H 
ENDBRANCH  11 118
TORSDOF 26
