REMARK WARNING: 32 MAX_TORS EXCEEDED!!!
REMARK  34 active torsions:
REMARK  status: ('A' for Active; 'I' for Inactive)
REMARK    1  A    between atoms: PA_1  and  O5B_4 
REMARK    2  A    between atoms: O3P_53  and  PA_1 
REMARK    3  A    between atoms: O5B_4  and  C5B_5 
REMARK    4  A    between atoms: C5B_5  and  C4B_6 
REMARK    5  A    between atoms: C3B_8  and  O3B_9 
REMARK    6  A    between atoms: C2B_10  and  O2B_11 
REMARK    7  A    between atoms: C1B_12  and  N9A_13 
REMARK    8  A    between atoms: C6A_17  and  N6A_18 
REMARK    9  A    between atoms: C2_24  and  O2_25 
REMARK   10  A    between atoms: C4_27  and  O4_28 
REMARK       I    between atoms: N5_30  and  C1B_54 
REMARK   11  A    between atoms: C7_33  and  C7M_34 
REMARK   12  A    between atoms: C8_35  and  C8M_36 
REMARK   13  A    between atoms: C1'_41  and  N10_39 
REMARK   14  A    between atoms: C2'_42  and  C1'_41 
REMARK   15  A    between atoms: C2'_42  and  O2'_43 
REMARK   16  A    between atoms: C3'_44  and  C2'_42 
REMARK   17  A    between atoms: C3'_44  and  O3'_45 
REMARK   18  A    between atoms: C4'_46  and  C3'_44 
REMARK   19  A    between atoms: C4'_46  and  O4'_47 
REMARK   20  A    between atoms: C5'_48  and  C4'_46 
REMARK   21  A    between atoms: O5'_49  and  C5'_48 
REMARK   22  A    between atoms: P_50  and  O5'_49 
REMARK   23  A    between atoms: P_50  and  O3P_53 
REMARK   24  A    between atoms: C1B_54  and  C2B_56 
REMARK   25  A    between atoms: C2B_56  and  C3B_57 
REMARK   26  A    between atoms: C3B_57  and  CB1_58 
REMARK   27  A    between atoms: CB4_63  and  NB4_64 
REMARK       I    between atoms: NB4_64  and  C4B_65 
REMARK   28  A    between atoms: C4B_65  and  CW_67 
REMARK   29  A    between atoms: CW_67  and  CW1_68 
REMARK   30  A    between atoms: CW_67  and  NW_75 
REMARK   31  A    between atoms: CW1_68  and  CW2_69 
REMARK       I    between atoms: NW_75  and  CY_76 
REMARK   32  A    between atoms: CY_76  and  OY2_78 
REMARK   33  A    between atoms: OY2_78  and  CZ_79 
REMARK   34  A    between atoms: CZ_79  and  CZ1_80 
ROOT
ATOM      1  N1  NON d   1      -8.150  58.131  85.847  0.00  0.00    -0.186 NA
ATOM      2  C2  NON d   1      -9.136  57.197  85.999  0.00  0.00     0.270 A 
ATOM      3  N3  NON d   1      -9.792  56.674  84.939  0.00  0.00    -0.180 NA
ATOM      4  C4  NON d   1      -9.503  57.061  83.684  0.00  0.00     0.198 A 
ATOM      5  C4X NON d   1      -8.518  57.993  83.472  0.00  0.00     0.142 A 
ATOM      6  N5  NON d   1      -8.257  58.396  82.158  0.00  0.00    -0.273 N 
ATOM      7  C5X NON d   1      -7.552  59.611  82.020  0.00  0.00     0.070 A 
ATOM      8  C6  NON d   1      -7.626  60.227  80.776  0.00  0.00    -0.048 A 
ATOM      9  C7  NON d   1      -7.011  61.441  80.540  0.00  0.00    -0.054 A 
ATOM     10  C8  NON d   1      -6.318  62.066  81.566  0.00  0.00    -0.054 A 
ATOM     11  C9  NON d   1      -6.258  61.448  82.831  0.00  0.00    -0.049 A 
ATOM     12  C9A NON d   1      -6.902  60.227  83.087  0.00  0.00     0.064 A 
ATOM     13  N10 NON d   1      -6.805  59.562  84.356  0.00  0.00    -0.325 N 
ATOM     14  C10 NON d   1      -7.823  58.601  84.619  0.00  0.00     0.167 A 
ATOM     15  C1B NON d   1      -7.888  57.290  81.276  0.00  0.00     0.229 C 
ATOM     16  O1B NON d   1      -8.465  57.255  80.184  0.00  0.00    -0.273 OA
ATOM     17  H   NON d   1      -8.180  59.743  79.972  0.00  0.00     0.087 H 
ATOM     18  H   NON d   1      -5.697  61.930  83.632  0.00  0.00     0.087 H 
ENDROOT
BRANCH  15  19
ATOM     19  C2B NON d   1      -6.923  56.204  81.700  0.00  0.00     0.014 C 
ATOM     20  H   NON d   1      -6.278  55.971  80.853  0.00  0.00     0.047 H 
ATOM     21  H   NON d   1      -7.503  55.339  82.021  0.00  0.00     0.047 H 
BRANCH  19  22
ATOM     22  C3B NON d   1      -6.048  56.643  82.856  0.00  0.00    -0.033 C 
ATOM     23  H   NON d   1      -6.425  57.568  83.293  0.00  0.00     0.040 H 
ATOM     24  H   NON d   1      -5.031  56.839  82.515  0.00  0.00     0.040 H 
BRANCH  22  25
ATOM     25  CB1 NON d   1      -6.062  55.531  83.873  0.00  0.00    -0.058 A 
ATOM     26  CB6 NON d   1      -7.266  54.923  84.214  0.00  0.00    -0.075 A 
ATOM     27  CB5 NON d   1      -7.289  53.888  85.145  0.00  0.00    -0.057 A 
ATOM     28  H   NON d   1      -8.194  55.258  83.751  0.00  0.00     0.084 H 
ATOM     29  CB4 NON d   1      -6.109  53.449  85.753  0.00  0.00     0.034 A 
ATOM     30  H   NON d   1      -8.237  53.415  85.403  0.00  0.00     0.086 H 
ATOM     31  CB3 NON d   1      -4.889  54.058  85.385  0.00  0.00    -0.057 A 
ATOM     32  CB2 NON d   1      -4.867  55.095  84.456  0.00  0.00    -0.075 A 
ATOM     33  H   NON d   1      -3.957  53.713  85.832  0.00  0.00     0.086 H 
ATOM     34  H   NON d   1      -3.922  55.566  84.184  0.00  0.00     0.084 H 
BRANCH  29  35
ATOM     35  NB4 NON d   1      -6.173  52.365  86.681  0.00  0.00    -0.325 N 
ATOM     36  C4B NON d   1      -5.073  51.864  87.278  0.00  0.00     0.245 C 
ATOM     37  O4B NON d   1      -3.941  52.334  87.087  0.00  0.00    -0.271 OA
ATOM     38  H   NON d   1      -7.082  51.956  86.899  0.00  0.00     0.169 HD
BRANCH  36  39
ATOM     39  CW  NON d   1      -5.222  50.676  88.205  0.00  0.00     0.095 C 
ATOM     40  H   NON d   1      -5.666  51.004  89.145  0.00  0.00     0.088 H 
BRANCH  39  41
ATOM     41  CW1 NON d   1      -3.802  50.087  88.322  0.00  0.00    -0.014 C 
ATOM     42  H   NON d   1      -3.312  50.701  89.078  0.00  0.00     0.043 H 
ATOM     43  H   NON d   1      -3.422  50.081  87.300  0.00  0.00     0.043 H 
BRANCH  41  44
ATOM     44  CW2 NON d   1      -3.615  48.662  88.807  0.00  0.00    -0.056 A 
ATOM     45  CW3 NON d   1      -3.162  47.686  87.913  0.00  0.00    -0.077 A 
ATOM     46  CW4 NON d   1      -2.964  46.374  88.349  0.00  0.00    -0.082 A 
ATOM     47  H   NON d   1      -2.963  47.950  86.874  0.00  0.00     0.084 H 
ATOM     48  CW5 NON d   1      -3.195  46.052  89.685  0.00  0.00    -0.083 A 
ATOM     49  H   NON d   1      -2.631  45.607  87.649  0.00  0.00     0.083 H 
ATOM     50  CW6 NON d   1      -3.627  47.028  90.578  0.00  0.00    -0.082 A 
ATOM     51  H   NON d   1      -3.037  45.031  90.032  0.00  0.00     0.083 H 
ATOM     52  CW7 NON d   1      -3.837  48.333  90.144  0.00  0.00    -0.077 A 
ATOM     53  H   NON d   1      -3.802  46.769  91.622  0.00  0.00     0.083 H 
ATOM     54  H   NON d   1      -4.174  49.096  90.846  0.00  0.00     0.084 H 
ENDBRANCH  41  44
ENDBRANCH  39  41
BRANCH  39  55
ATOM     55  NW  NON d   1      -6.090  49.626  87.671  0.00  0.00    -0.323 N 
ATOM     56  CY  NON d   1      -5.908  48.931  86.515  0.00  0.00     0.361 C 
ATOM     57  OY1 NON d   1      -6.738  48.067  86.213  0.00  0.00    -0.238 OA
ATOM     58  H   NON d   1      -6.916  49.391  88.221  0.00  0.00     0.165 HD
BRANCH  56  59
ATOM     59  OY2 NON d   1      -4.737  49.159  85.610  0.00  0.00    -0.299 OA
BRANCH  59  60
ATOM     60  CZ  NON d   1      -4.688  48.870  84.190  0.00  0.00     0.054 C 
ATOM     61  H   NON d   1      -5.255  47.951  84.040  0.00  0.00     0.082 H 
ATOM     62  H   NON d   1      -3.633  48.819  83.919  0.00  0.00     0.082 H 
BRANCH  60  63
ATOM     63  CZ1 NON d   1      -5.323  49.930  83.280  0.00  0.00    -0.034 A 
ATOM     64  CZ2 NON d   1      -6.660  49.794  82.854  0.00  0.00    -0.075 A 
ATOM     65  CZ3 NON d   1      -7.262  50.745  82.019  0.00  0.00    -0.082 A 
ATOM     66  H   NON d   1      -7.238  48.930  83.181  0.00  0.00     0.084 H 
ATOM     67  CZ4 NON d   1      -6.509  51.848  81.607  0.00  0.00    -0.083 A 
ATOM     68  H   NON d   1      -8.297  50.627  81.697  0.00  0.00     0.083 H 
ATOM     69  CZ5 NON d   1      -5.174  51.994  82.016  0.00  0.00    -0.082 A 
ATOM     70  H   NON d   1      -6.962  52.601  80.963  0.00  0.00     0.083 H 
ATOM     71  CZ6 NON d   1      -4.579  51.041  82.848  0.00  0.00    -0.075 A 
ATOM     72  H   NON d   1      -4.597  52.857  81.683  0.00  0.00     0.083 H 
ATOM     73  H   NON d   1      -3.542  51.159  83.160  0.00  0.00     0.084 H 
ENDBRANCH  60  63
ENDBRANCH  59  60
ENDBRANCH  56  59
ENDBRANCH  39  55
ENDBRANCH  36  39
ENDBRANCH  29  35
ENDBRANCH  22  25
ENDBRANCH  19  22
ENDBRANCH  15  19
BRANCH   4  74
ATOM     74  O4  NON d   1     -10.160  56.542  82.610  0.00  0.00    -0.343 OA
ATOM     75  H   NON d   1      -9.818  56.938  81.805  0.00  0.00     0.219 HD
ENDBRANCH   4  74
BRANCH  13  76
ATOM     76  C1' NON d   1      -6.287  60.342  85.508  0.00  0.00     0.028 C 
ATOM     77  H   NON d   1      -5.593  61.069  85.085  0.00  0.00     0.069 H 
ATOM     78  H   NON d   1      -5.878  59.608  86.202  0.00  0.00     0.069 H 
BRANCH  76  79
ATOM     79  C2' NON d   1      -7.292  61.148  86.306  0.00  0.00     0.078 C 
ATOM     80  H   NON d   1      -7.947  60.476  86.861  0.00  0.00     0.089 H 
BRANCH  79  81
ATOM     81  O2' NON d   1      -8.038  61.956  85.406  0.00  0.00    -0.391 OA
ATOM     82  H   NON d   1      -8.680  62.473  85.898  0.00  0.00     0.210 HD
ENDBRANCH  79  81
BRANCH  79  83
ATOM     83  C3' NON d   1      -6.552  62.066  87.262  0.00  0.00     0.088 C 
ATOM     84  H   NON d   1      -6.014  62.805  86.668  0.00  0.00     0.091 H 
BRANCH  83  85
ATOM     85  O3' NON d   1      -5.676  61.270  88.048  0.00  0.00    -0.390 OA
ATOM     86  H   NON d   1      -6.188  60.623  88.539  0.00  0.00     0.210 HD
ENDBRANCH  83  85
BRANCH  83  87
ATOM     87  C4' NON d   1      -7.485  62.825  88.193  0.00  0.00     0.084 C 
ATOM     88  H   NON d   1      -7.878  62.192  88.989  0.00  0.00     0.090 H 
BRANCH  87  89
ATOM     89  O4' NON d   1      -8.631  63.280  87.445  0.00  0.00    -0.391 OA
ATOM     90  H   NON d   1      -9.090  62.523  87.073  0.00  0.00     0.210 HD
ENDBRANCH  87  89
BRANCH  87  91
ATOM     91  C5' NON d   1      -6.682  63.952  88.880  0.00  0.00     0.058 C 
ATOM     92  H   NON d   1      -6.391  64.654  88.099  0.00  0.00     0.079 H 
ATOM     93  H   NON d   1      -5.851  63.476  89.401  0.00  0.00     0.079 H 
BRANCH  91  94
ATOM     94  O5' NON d   1      -7.420  64.709  89.871  0.00  0.00    -0.287 OA
BRANCH  94  95
ATOM     95  P   NON d   1      -6.601  65.713  90.837  0.00  0.00     0.417 P 
ATOM     96  O1P NON d   1      -5.480  65.017  91.580  0.00  0.00    -0.624 OA
ATOM     97  O2P NON d   1      -7.675  66.365  91.688  0.00  0.00    -0.624 OA
BRANCH  95  98
ATOM     98  O3P NON d   1      -5.901  66.801  89.839  0.00  0.00    -0.180 OA
BRANCH  98  99
ATOM     99  PA  NON d   1      -6.720  67.745  88.791  0.00  0.00     0.417 P 
ATOM    100  O1A NON d   1      -5.787  68.258  87.699  0.00  0.00    -0.624 OA
ATOM    101  O2A NON d   1      -8.098  67.157  88.475  0.00  0.00    -0.624 OA
BRANCH  99 102
ATOM    102  O5B NON d   1      -7.094  69.046  89.683  0.00  0.00    -0.287 OA
BRANCH 102 103
ATOM    103  C5B NON d   1      -6.221  70.186  89.727  0.00  0.00     0.058 C 
ATOM    104  H   NON d   1      -5.534  70.124  88.883  0.00  0.00     0.079 H 
ATOM    105  H   NON d   1      -5.693  70.176  90.680  0.00  0.00     0.079 H 
BRANCH 103 106
ATOM    106  C4B NON d   1      -6.991  71.491  89.621  0.00  0.00     0.089 C 
ATOM    107  O4B NON d   1      -6.059  72.539  89.805  0.00  0.00    -0.353 OA
ATOM    108  C1B NON d   1      -6.316  73.548  88.836  0.00  0.00     0.139 C 
ATOM    109  C2B NON d   1      -6.671  72.770  87.611  0.00  0.00     0.105 C 
ATOM    110  H   NON d   1      -7.127  74.244  89.050  0.00  0.00     0.122 H 
ATOM    111  C3B NON d   1      -7.561  71.699  88.230  0.00  0.00     0.091 C 
ATOM    112  H   NON d   1      -5.835  72.370  87.037  0.00  0.00     0.093 H 
ATOM    113  H   NON d   1      -7.566  70.802  87.610  0.00  0.00     0.091 H 
ATOM    114  H   NON d   1      -7.798  71.472  90.353  0.00  0.00     0.090 H 
BRANCH 108 115
ATOM    115  N9A NON d   1      -5.125  74.405  88.747  0.00  0.00    -0.294 N 
ATOM    116  C8A NON d   1      -3.936  74.169  88.170  0.00  0.00     0.071 A 
ATOM    117  N7A NON d   1      -3.104  75.232  88.396  0.00  0.00    -0.236 NA
ATOM    118  H   NON d   1      -3.674  73.272  87.609  0.00  0.00     0.144 H 
ATOM    119  C5A NON d   1      -3.801  76.133  89.138  0.00  0.00     0.149 A 
ATOM    120  C6A NON d   1      -3.481  77.388  89.656  0.00  0.00     0.155 A 
ATOM    121  C4A NON d   1      -5.079  75.596  89.355  0.00  0.00     0.167 A 
ATOM    122  N1A NON d   1      -4.385  78.078  90.375  0.00  0.00    -0.222 NA
ATOM    123  C2A NON d   1      -5.752  77.576  90.648  0.00  0.00     0.091 A 
ATOM    124  N3A NON d   1      -6.028  76.266  90.067  0.00  0.00    -0.222 NA
ATOM    125  H   NON d   1      -6.485  78.135  91.230  0.00  0.00     0.146 H 
BRANCH 120 126
ATOM    126  N6A NON d   1      -2.278  77.931  89.429  0.00  0.00    -0.382 N 
ATOM    127  H   NON d   1      -1.587  77.426  88.874  0.00  0.00     0.157 HD
ATOM    128  H   NON d   1      -2.053  78.849  89.812  0.00  0.00     0.157 HD
ENDBRANCH 120 126
ENDBRANCH 108 115
BRANCH 109 129
ATOM    129  O2B NON d   1      -7.359  73.592  86.683  0.00  0.00    -0.388 OA
ATOM    130  H   NON d   1      -8.085  74.036  87.127  0.00  0.00     0.210 HD
ENDBRANCH 109 129
BRANCH 111 131
ATOM    131  O3B NON d   1      -8.938  72.110  88.342  0.00  0.00    -0.390 OA
ATOM    132  H   NON d   1      -8.986  72.931  88.838  0.00  0.00     0.210 HD
ENDBRANCH 111 131
ENDBRANCH 103 106
ENDBRANCH 102 103
ENDBRANCH  99 102
ENDBRANCH  98  99
ENDBRANCH  95  98
ENDBRANCH  94  95
ENDBRANCH  91  94
ENDBRANCH  87  91
ENDBRANCH  83  87
ENDBRANCH  79  83
ENDBRANCH  76  79
ENDBRANCH  13  76
BRANCH   9 133
ATOM    133  C7M NON d   1      -7.090  62.058  79.168  0.00  0.00    -0.051 C 
ATOM    134  H   NON d   1      -6.640  61.382  78.441  0.00  0.00     0.033 H 
ATOM    135  H   NON d   1      -8.134  62.230  78.908  0.00  0.00     0.033 H 
ATOM    136  H   NON d   1      -6.553  63.006  79.166  0.00  0.00     0.033 H 
ENDBRANCH   9 133
BRANCH   2 137
ATOM    137  O2  NON d   1      -9.490  56.759  87.238  0.00  0.00    -0.329 OA
ATOM    138  H   NON d   1     -10.193  56.110  87.158  0.00  0.00     0.221 HD
ENDBRANCH   2 137
BRANCH  10 139
ATOM    139  C8M NON d   1      -5.642  63.391  81.294  0.00  0.00    -0.051 C 
ATOM    140  H   NON d   1      -6.053  64.150  81.959  0.00  0.00     0.033 H 
ATOM    141  H   NON d   1      -4.571  63.294  81.470  0.00  0.00     0.033 H 
ATOM    142  H   NON d   1      -5.816  63.681  80.258  0.00  0.00     0.033 H 
ENDBRANCH  10 139
TORSDOF 34
