REMARK  8 active torsions:
REMARK  status: ('A' for Active; 'I' for Inactive)
REMARK    1  A    between atoms: CAA_1  and  OAN_2 
REMARK    2  A    between atoms: OAN_2  and  CAR_3 
REMARK    3  A    between atoms: CAQ_8  and  CAL_9 
REMARK    4  A    between atoms: CAL_9  and  CAU_10 
REMARK    5  A    between atoms: CAT_13  and  OAF_14 
REMARK    6  A    between atoms: CAS_15  and  OAE_16 
REMARK    7  A    between atoms: CAV_18  and  CAO_19 
REMARK    8  A    between atoms: CAV_18  and  OAG_22 
ROOT
ATOM      1  CAU XNW d   1     -24.148  48.780  13.210  0.00  0.00     0.050 C 
ATOM      2  CAP XNW d   1     -22.940  48.057  13.694  0.00  0.00     0.165 C 
ATOM      3  OAC XNW d   1     -23.062  47.133  14.507  0.00  0.00    -0.294 OA
ATOM      4  CAT XNW d   1     -21.605  48.416  12.986  0.00  0.00     0.118 C 
ATOM      5  CAS XNW d   1     -21.816  48.105  11.478  0.00  0.00     0.070 C 
ATOM      6  CAM XNW d   1     -23.035  48.863  10.914  0.00  0.00     0.001 C 
ATOM      7  CAV XNW d   1     -24.300  48.462  11.677  0.00  0.00     0.158 C 
ATOM      8  H   XNW d   1     -24.113  49.867  13.289  0.00  0.00     0.058 H 
ATOM      9  H   XNW d   1     -21.351  49.469  13.109  0.00  0.00     0.099 H 
ATOM     10  H   XNW d   1     -22.010  47.037  11.375  0.00  0.00     0.087 H 
ATOM     11  H   XNW d   1     -23.157  48.612   9.860  0.00  0.00     0.042 H 
ATOM     12  H   XNW d   1     -22.874  49.935  11.026  0.00  0.00     0.042 H 
ENDROOT
BRANCH   1  13
ATOM     13  CAL XNW d   1     -25.271  48.281  14.075  0.00  0.00    -0.028 C 
ATOM     14  H   XNW d   1     -26.173  48.735  13.665  0.00  0.00     0.041 H 
ATOM     15  H   XNW d   1     -25.186  47.194  14.057  0.00  0.00     0.041 H 
BRANCH  13  16
ATOM     16  CAQ XNW d   1     -25.267  48.672  15.599  0.00  0.00    -0.057 A 
ATOM     17  CAI XNW d   1     -24.536  47.963  16.556  0.00  0.00    -0.074 A 
ATOM     18  CAK XNW d   1     -24.550  48.312  17.912  0.00  0.00    -0.050 A 
ATOM     19  H   XNW d   1     -23.936  47.111  16.237  0.00  0.00     0.084 H 
ATOM     20  CAR XNW d   1     -25.332  49.355  18.384  0.00  0.00     0.068 A 
ATOM     21  H   XNW d   1     -23.932  47.751  18.613  0.00  0.00     0.087 H 
ATOM     22  CAJ XNW d   1     -26.087  50.056  17.445  0.00  0.00    -0.050 A 
ATOM     23  CAH XNW d   1     -26.061  49.722  16.079  0.00  0.00    -0.074 A 
ATOM     24  H   XNW d   1     -26.713  50.884  17.778  0.00  0.00     0.087 H 
ATOM     25  H   XNW d   1     -26.672  50.292  15.379  0.00  0.00     0.084 H 
BRANCH  20  26
ATOM     26  OAN XNW d   1     -25.344  49.659  19.732  0.00  0.00    -0.356 OA
BRANCH  26  27
ATOM     27  CAA XNW d   1     -25.784  50.972  20.091  0.00  0.00     0.010 C 
ATOM     28  H   XNW d   1     -25.133  51.712  19.626  0.00  0.00     0.066 H 
ATOM     29  H   XNW d   1     -26.807  51.118  19.745  0.00  0.00     0.066 H 
ATOM     30  H   XNW d   1     -25.746  51.083  21.175  0.00  0.00     0.066 H 
ENDBRANCH  26  27
ENDBRANCH  20  26
ENDBRANCH  13  16
ENDBRANCH   1  13
BRANCH   7  31
ATOM     31  CAO XNW d   1     -25.473  49.255  11.138  0.00  0.00     0.210 C 
ATOM     32  OAD XNW d   1     -25.333  50.493  10.993  0.00  0.00    -0.646 OA
ATOM     33  OAB XNW d   1     -26.509  48.605  10.941  0.00  0.00    -0.646 OA
ENDBRANCH   7  31
BRANCH   7  34
ATOM     34  OAG XNW d   1     -24.554  47.066  11.366  0.00  0.00    -0.378 OA
ATOM     35  H   XNW d   1     -25.344  46.775  11.828  0.00  0.00     0.211 HD
ENDBRANCH   7  34
BRANCH   4  36
ATOM     36  OAF XNW d   1     -20.479  47.714  13.578  0.00  0.00    -0.385 OA
ATOM     37  H   XNW d   1     -20.405  47.954  14.505  0.00  0.00     0.210 HD
ENDBRANCH   4  36
BRANCH   5  38
ATOM     38  OAE XNW d   1     -20.656  48.441  10.752  0.00  0.00    -0.392 OA
ATOM     39  H   XNW d   1     -19.914  47.928  11.081  0.00  0.00     0.210 HD
ENDBRANCH   5  38
TORSDOF 8
