REMARK  7 active torsions:
REMARK  status: ('A' for Active; 'I' for Inactive)
REMARK       I    between atoms: C25_25  and  N1_1 
REMARK    1  A    between atoms: C3_3  and  N5_5 
REMARK       I    between atoms: N5_5  and  C6_6 
REMARK    2  A    between atoms: C6_6  and  C7_7 
REMARK    3  A    between atoms: C24_24  and  N17_17 
REMARK    4  A    between atoms: N20_20  and  C23_23 
REMARK    5  A    between atoms: C20_32  and  C25_25 
REMARK    6  A    between atoms: C27_27  and  C20_32 
REMARK    7  A    between atoms: C20_32  and  O34_34 
ROOT
ATOM      1  N5  571 d   1       2.272  17.935   8.638  0.00  0.00    -0.305 N 
ATOM      2  C6  571 d   1       2.891  18.599   7.635  0.00  0.00     0.257 C 
ATOM      3  O8  571 d   1       3.840  18.092   7.036  0.00  0.00    -0.267 OA
ATOM      4  H   571 d   1       1.469  18.409   9.052  0.00  0.00     0.170 HD
ENDROOT
BRANCH   1   5
ATOM      5  C3  571 d   1       2.599  16.635   9.205  0.00  0.00     0.160 A 
ATOM      6  N4  571 d   1       1.779  15.959   9.925  0.00  0.00    -0.156 NA
ATOM      7  N2  571 d   1       2.381  14.756  10.333  0.00  0.00    -0.278 N 
ATOM      8  C13 571 d   1       3.560  14.740   9.843  0.00  0.00     0.057 A 
ATOM      9  H   571 d   1       1.956  14.032  10.912  0.00  0.00     0.189 HD
ATOM     10  C14 571 d   1       3.793  15.822   9.147  0.00  0.00     0.033 A 
ATOM     11  C16 571 d   1       4.682  13.780   9.898  0.00  0.00     0.038 A 
ATOM     12  C15 571 d   1       5.128  15.884   8.555  0.00  0.00     0.027 A 
ATOM     13  N1  571 d   1       5.643  14.589   9.059  0.00  0.00    -0.340 N 
ATOM     14  H   571 d   1       5.154  16.008   7.472  0.00  0.00     0.072 H 
ATOM     15  H   571 d   1       5.719  16.759   8.825  0.00  0.00     0.072 H 
ATOM     16  C25 571 d   1       6.954  14.157   8.807  0.00  0.00     0.253 C 
ATOM     17  O26 571 d   1       7.313  13.045   9.203  0.00  0.00    -0.270 OA
ATOM     18  H   571 d   1       5.028  13.499  10.893  0.00  0.00     0.074 H 
ATOM     19  H   571 d   1       4.470  12.769   9.549  0.00  0.00     0.074 H 
BRANCH  16  20
ATOM     20  C20 571 d   1       7.979  15.064   8.100  0.00  0.00     0.137 C 
ATOM     21  H   571 d   1       7.502  15.491   7.218  0.00  0.00     0.105 H 
BRANCH  20  22
ATOM     22  C27 571 d   1       8.428  16.192   9.041  0.00  0.00    -0.021 A 
ATOM     23  C29 571 d   1       8.486  17.518   8.545  0.00  0.00    -0.074 A 
ATOM     24  C33 571 d   1       8.876  18.579   9.409  0.00  0.00    -0.082 A 
ATOM     25  H   571 d   1       8.233  17.724   7.505  0.00  0.00     0.084 H 
ATOM     26  C35 571 d   1       9.202  18.315  10.771  0.00  0.00    -0.083 A 
ATOM     27  H   571 d   1       8.926  19.599   9.027  0.00  0.00     0.083 H 
ATOM     28  C31 571 d   1       9.144  16.988  11.266  0.00  0.00    -0.082 A 
ATOM     29  H   571 d   1       9.495  19.132  11.431  0.00  0.00     0.083 H 
ATOM     30  C28 571 d   1       8.761  15.935  10.410  0.00  0.00    -0.074 A 
ATOM     31  H   571 d   1       9.395  16.782  12.306  0.00  0.00     0.083 H 
ATOM     32  H   571 d   1       8.718  14.916  10.794  0.00  0.00     0.084 H 
ENDBRANCH  20  22
BRANCH  20  33
ATOM     33  O34 571 d   1       9.101  14.323   7.708  0.00  0.00    -0.381 OA
ATOM     34  H   571 d   1       9.523  13.948   8.485  0.00  0.00     0.211 HD
ENDBRANCH  20  33
ENDBRANCH  16  20
ENDBRANCH   1   5
BRANCH   2  35
ATOM     35  C7  571 d   1       2.438  19.913   7.241  0.00  0.00     0.032 A 
ATOM     36  C9  571 d   1       3.292  20.751   6.461  0.00  0.00    -0.066 A 
ATOM     37  C10 571 d   1       2.858  22.044   6.074  0.00  0.00    -0.056 A 
ATOM     38  H   571 d   1       4.279  20.396   6.163  0.00  0.00     0.085 H 
ATOM     39  C24 571 d   1       1.565  22.501   6.465  0.00  0.00     0.030 A 
ATOM     40  H   571 d   1       3.509  22.686   5.481  0.00  0.00     0.086 H 
ATOM     41  C11 571 d   1       0.712  21.642   7.250  0.00  0.00    -0.056 A 
ATOM     42  C12 571 d   1       1.151  20.361   7.632  0.00  0.00    -0.066 A 
ATOM     43  H   571 d   1      -0.278  21.987   7.549  0.00  0.00     0.086 H 
ATOM     44  H   571 d   1       0.504  19.716   8.226  0.00  0.00     0.085 H 
BRANCH  39  45
ATOM     45  N17 571 d   1       1.120  23.783   6.091  0.00  0.00    -0.378 N 
ATOM     46  C18 571 d   1       1.600  24.418   4.852  0.00  0.00     0.010 C 
ATOM     47  C19 571 d   1       1.854  25.952   4.995  0.00  0.00     0.005 C 
ATOM     48  H   571 d   1       0.828  24.283   4.095  0.00  0.00     0.066 H 
ATOM     49  H   571 d   1       2.550  23.952   4.592  0.00  0.00     0.066 H 
ATOM     50  N20 571 d   1       0.943  26.605   5.927  0.00  0.00    -0.414 N 
ATOM     51  H   571 d   1       1.700  26.403   4.015  0.00  0.00     0.066 H 
ATOM     52  H   571 d   1       2.866  26.083   5.378  0.00  0.00     0.066 H 
ATOM     53  C21 571 d   1       0.544  25.970   7.158  0.00  0.00     0.005 C 
ATOM     54  C22 571 d   1       0.162  24.493   6.942  0.00  0.00     0.010 C 
ATOM     55  H   571 d   1      -0.327  26.496   7.548  0.00  0.00     0.066 H 
ATOM     56  H   571 d   1       1.384  26.009   7.852  0.00  0.00     0.066 H 
ATOM     57  H   571 d   1       0.151  24.003   7.916  0.00  0.00     0.066 H 
ATOM     58  H   571 d   1      -0.810  24.466   6.449  0.00  0.00     0.066 H 
BRANCH  50  59
ATOM     59  C23 571 d   1       0.442  27.915   5.621  0.00  0.00    -0.023 C 
ATOM     60  H   571 d   1       1.277  28.609   5.528  0.00  0.00     0.055 H 
ATOM     61  H   571 d   1      -0.110  27.881   4.682  0.00  0.00     0.055 H 
ATOM     62  H   571 d   1      -0.220  28.246   6.422  0.00  0.00     0.055 H 
ENDBRANCH  50  59
ENDBRANCH  39  45
ENDBRANCH   2  35
TORSDOF 7
