REMARK  12 active torsions:
REMARK  status: ('A' for Active; 'I' for Inactive)
REMARK    1  A    between atoms: C02_2  and  O31_31 
REMARK    2  A    between atoms: C03_3  and  O29_29 
REMARK    3  A    between atoms: C07_7  and  C21_21 
REMARK    4  A    between atoms: C09_9  and  N11_11 
REMARK    5  A    between atoms: N11_11  and  C12_12 
REMARK    6  A    between atoms: C13_13  and  C17_17 
REMARK    7  A    between atoms: C17_17  and  C18_18 
REMARK    8  A    between atoms: C17_17  and  C19_19 
REMARK    9  A    between atoms: C17_17  and  O20_20 
REMARK   10  A    between atoms: C22_22  and  O28_28 
REMARK   11  A    between atoms: O29_29  and  C30_30 
REMARK   12  A    between atoms: O31_31  and  C32_32 
ROOT
ATOM      1  C01 XBJ d   1      -5.657  49.197   8.303  0.00  0.00    -0.009 A 
ATOM      2  C02 XBJ d   1      -5.093  49.704   9.649  0.00  0.00     0.067 A 
ATOM      3  C03 XBJ d   1      -6.039  50.164  10.739  0.00  0.00     0.068 A 
ATOM      4  C04 XBJ d   1      -7.538  50.122  10.520  0.00  0.00     0.002 A 
ATOM      5  C05 XBJ d   1      -8.092  49.618   9.176  0.00  0.00     0.049 A 
ATOM      6  N06 XBJ d   1      -9.514  49.597   9.027  0.00  0.00    -0.232 NA
ATOM      7  C07 XBJ d   1     -10.078  49.171   7.767  0.00  0.00     0.165 A 
ATOM      8  N08 XBJ d   1      -9.218  48.666   6.703  0.00  0.00    -0.210 NA
ATOM      9  C09 XBJ d   1      -7.838  48.695   6.844  0.00  0.00     0.134 A 
ATOM     10  C10 XBJ d   1      -7.202  49.165   8.099  0.00  0.00     0.015 A 
ATOM     11  H   XBJ d   1      -5.343  48.155   8.240  0.00  0.00     0.044 H 
ATOM     12  H   XBJ d   1      -5.289  49.904   7.559  0.00  0.00     0.044 H 
ATOM     13  H   XBJ d   1      -5.066  49.428  10.703  0.00  0.00     0.087 H 
ATOM     14  H   XBJ d   1      -5.049  50.076  10.292  0.00  0.00     0.087 H 
ATOM     15  H   XBJ d   1      -7.856  51.163  10.578  0.00  0.00     0.046 H 
ATOM     16  H   XBJ d   1      -7.906  49.408  11.257  0.00  0.00     0.046 H 
ENDROOT
BRANCH   9  17
ATOM     17  N11 XBJ d   1      -7.225  48.139   5.658  0.00  0.00    -0.367 N 
ATOM     18  H   XBJ d   1      -6.238  48.397   5.671  0.00  0.00     0.161 HD
BRANCH  17  19
ATOM     19  C12 XBJ d   1      -7.461  47.348   4.439  0.00  0.00     0.042 C 
ATOM     20  C13 XBJ d   1      -6.383  47.024   3.474  0.00  0.00     0.019 C 
ATOM     21  C14 XBJ d   1      -6.707  45.641   2.986  0.00  0.00     0.089 C 
ATOM     22  H   XBJ d   1      -5.382  46.998   3.904  0.00  0.00     0.050 H 
ATOM     23  N15 XBJ d   1      -8.103  45.346   3.424  0.00  0.00    -0.073 N 
ATOM     24  H   XBJ d   1      -6.009  44.911   3.397  0.00  0.00     0.076 H 
ATOM     25  H   XBJ d   1      -6.620  45.582   1.901  0.00  0.00     0.076 H 
ATOM     26  C16 XBJ d   1      -8.253  46.111   4.694  0.00  0.00     0.101 C 
ATOM     27  H   XBJ d   1      -8.264  44.347   3.554  0.00  0.00     0.277 HD
ATOM     28  H   XBJ d   1      -8.793  45.620   2.725  0.00  0.00     0.277 HD
ATOM     29  H   XBJ d   1      -9.294  46.320   4.939  0.00  0.00     0.078 H 
ATOM     30  H   XBJ d   1      -7.901  45.557   5.564  0.00  0.00     0.078 H 
ATOM     31  H   XBJ d   1      -8.005  48.129   3.907  0.00  0.00     0.075 H 
BRANCH  20  32
ATOM     32  C17 XBJ d   1      -6.200  48.117   2.449  0.00  0.00     0.058 C 
BRANCH  32  33
ATOM     33  C18 XBJ d   1      -5.138  47.737   1.437  0.00  0.00    -0.048 C 
ATOM     34  H   XBJ d   1      -4.190  47.575   1.950  0.00  0.00     0.031 H 
ATOM     35  H   XBJ d   1      -5.436  46.822   0.925  0.00  0.00     0.031 H 
ATOM     36  H   XBJ d   1      -5.026  48.542   0.710  0.00  0.00     0.031 H 
ENDBRANCH  32  33
BRANCH  32  37
ATOM     37  C19 XBJ d   1      -7.530  48.310   1.766  0.00  0.00    -0.048 C 
ATOM     38  H   XBJ d   1      -7.829  47.378   1.286  0.00  0.00     0.031 H 
ATOM     39  H   XBJ d   1      -8.278  48.596   2.505  0.00  0.00     0.031 H 
ATOM     40  H   XBJ d   1      -7.441  49.095   1.015  0.00  0.00     0.031 H 
ENDBRANCH  32  37
BRANCH  32  41
ATOM     41  O20 XBJ d   1      -5.859  49.289   3.084  0.00  0.00    -0.390 OA
ATOM     42  H   XBJ d   1      -6.540  49.516   3.721  0.00  0.00     0.210 HD
ENDBRANCH  32  41
ENDBRANCH  20  32
ENDBRANCH  17  19
ENDBRANCH   9  17
BRANCH   7  43
ATOM     43  C21 XBJ d   1     -11.537  49.053   7.540  0.00  0.00     0.048 A 
ATOM     44  C22 XBJ d   1     -12.427  49.283   8.609  0.00  0.00     0.080 A 
ATOM     45  C23 XBJ d   1     -13.876  49.061   8.403  0.00  0.00    -0.047 A 
ATOM     46  C24 XBJ d   1     -14.341  48.608   7.116  0.00  0.00    -0.043 A 
ATOM     47  H   XBJ d   1     -14.582  49.238   9.214  0.00  0.00     0.087 H 
ATOM     48  C25 XBJ d   1     -13.357  48.348   5.983  0.00  0.00     0.117 A 
ATOM     49  H   XBJ d   1     -15.407  48.450   6.952  0.00  0.00     0.088 H 
ATOM     50  C26 XBJ d   1     -12.010  48.552   6.174  0.00  0.00    -0.029 A 
ATOM     51  F27 XBJ d   1     -13.777  47.933   4.802  0.00  0.00    -0.206 F 
ATOM     52  H   XBJ d   1     -11.297  48.361   5.372  0.00  0.00     0.089 H 
BRANCH  44  53
ATOM     53  O28 XBJ d   1     -11.909  49.720   9.814  0.00  0.00    -0.360 OA
ATOM     54  H   XBJ d   1     -10.955  49.800   9.741  0.00  0.00     0.217 HD
ENDBRANCH  44  53
ENDBRANCH   7  43
BRANCH   2  55
ATOM     55  O31 XBJ d   1      -3.724  49.741   9.847  0.00  0.00    -0.388 OA
BRANCH  55  56
ATOM     56  C32 XBJ d   1      -2.889  49.322   8.811  0.00  0.00     0.005 C 
ATOM     57  H   XBJ d   1      -3.107  48.282   8.568  0.00  0.00     0.066 H 
ATOM     58  H   XBJ d   1      -3.060  49.945   7.933  0.00  0.00     0.066 H 
ATOM     59  H   XBJ d   1      -1.849  49.413   9.125  0.00  0.00     0.066 H 
ENDBRANCH  55  56
ENDBRANCH   2  55
BRANCH   3  60
ATOM     60  O29 XBJ d   1      -5.613  50.633  11.980  0.00  0.00    -0.388 OA
BRANCH  60  61
ATOM     61  C30 XBJ d   1      -6.560  50.636  13.011  0.00  0.00     0.005 C 
ATOM     62  H   XBJ d   1      -7.401  51.269  12.728  0.00  0.00     0.066 H 
ATOM     63  H   XBJ d   1      -6.911  49.618  13.183  0.00  0.00     0.066 H 
ATOM     64  H   XBJ d   1      -6.103  51.023  13.921  0.00  0.00     0.066 H 
ENDBRANCH  60  61
ENDBRANCH   3  60
TORSDOF 12
