REMARK  1 active torsions:
REMARK  status: ('A' for Active; 'I' for Inactive)
REMARK    1  A    between atoms: CAL_9  and  CAK_10 
ROOT
ATOM      1  CAE XCG d   1      50.156 161.208  32.437  0.00  0.00    -0.034 A 
ATOM      2  CAM XCG d   1      49.050 160.843  31.756  0.00  0.00     0.001 A 
ATOM      3  CAC XCG d   1      47.728 160.586  32.150  0.00  0.00    -0.070 A 
ATOM      4  CAA XCG d   1      46.766 160.234  31.196  0.00  0.00    -0.082 A 
ATOM      5  CAB XCG d   1      47.105 160.155  29.838  0.00  0.00    -0.080 A 
ATOM      6  CAD XCG d   1      48.431 160.410  29.444  0.00  0.00    -0.049 A 
ATOM      7  CAN XCG d   1      49.384 160.755  30.408  0.00  0.00     0.086 A 
ATOM      8  OAJ XCG d   1      50.716 161.067  30.311  0.00  0.00    -0.306 OA
ATOM      9  CAL XCG d   1      51.188 161.330  31.568  0.00  0.00     0.122 A 
ATOM     10  H   XCG d   1      50.210 161.377  33.512  0.00  0.00     0.089 H 
ATOM     11  H   XCG d   1      47.450 160.661  33.201  0.00  0.00     0.084 H 
ATOM     12  H   XCG d   1      45.745 160.020  31.512  0.00  0.00     0.083 H 
ATOM     13  H   XCG d   1      46.349 159.899  29.096  0.00  0.00     0.083 H 
ATOM     14  H   XCG d   1      48.714 160.339  28.394  0.00  0.00     0.087 H 
ENDROOT
BRANCH   9  15
ATOM     15  CAK XCG d   1      52.551 161.668  31.717  0.00  0.00     0.153 A 
ATOM     16  NAH XCG d   1      53.229 161.930  32.850  0.00  0.00    -0.371 N 
ATOM     17  CAF XCG d   1      54.649 162.257  32.583  0.00  0.00     0.011 A 
ATOM     18  H   XCG d   1      52.814 161.906  33.782  0.00  0.00     0.161 HD
ATOM     19  CAG XCG d   1      54.776 162.076  31.053  0.00  0.00     0.032 A 
ATOM     20  H   XCG d   1      55.337 161.620  33.139  0.00  0.00     0.066 H 
ATOM     21  H   XCG d   1      54.916 163.262  32.910  0.00  0.00     0.066 H 
ATOM     22  NAI XCG d   1      53.362 161.763  30.667  0.00  0.00    -0.269 NA
ATOM     23  H   XCG d   1      55.487 161.302  30.764  0.00  0.00     0.069 H 
ATOM     24  H   XCG d   1      55.183 162.950  30.544  0.00  0.00     0.069 H 
ENDBRANCH   9  15
TORSDOF 1
