REMARK  5 active torsions:
REMARK  status: ('A' for Active; 'I' for Inactive)
REMARK       I    between atoms: C8_2  and  N24_3 
REMARK    1  A    between atoms: C8_2  and  C5_4 
REMARK    2  A    between atoms: N7_8  and  C17_9 
REMARK    3  A    between atoms: C17_9  and  C25_10 
REMARK    4  A    between atoms: C12_19  and  N15_24 
REMARK    5  A    between atoms: N15_24  and  C16_25 
ROOT
ATOM      1  C5  CKG d   1     -43.088  17.700  11.945  0.00  0.00     0.157 A 
ATOM      2  C4  CKG d   1     -42.493  16.449  11.798  0.00  0.00     0.031 A 
ATOM      3  C2  CKG d   1     -42.963  15.210  11.059  0.00  0.00    -0.067 C 
ATOM      4  N6  CKG d   1     -42.297  18.473  12.702  0.00  0.00    -0.166 NA
ATOM      5  N7  CKG d   1     -41.177  17.701  13.031  0.00  0.00    -0.266 N 
ATOM      6  C3  CKG d   1     -41.298  16.462  12.514  0.00  0.00     0.096 A 
ATOM      7  C11 CKG d   1     -40.422  15.386  12.538  0.00  0.00     0.117 A 
ATOM      8  N18 CKG d   1     -39.125  15.527  12.881  0.00  0.00    -0.060 NA
ATOM      9  C12 CKG d   1     -38.264  14.467  12.825  0.00  0.00     0.727 A 
ATOM     10  N13 CKG d   1     -38.717  13.255  12.426  0.00  0.00    -0.074 NA
ATOM     11  C14 CKG d   1     -39.998  13.093  12.061  0.00  0.00     0.033 A 
ATOM     12  C10 CKG d   1     -40.883  14.152  12.107  0.00  0.00     0.014 A 
ATOM     13  C1  CKG d   1     -42.338  13.962  11.707  0.00  0.00    -0.068 C 
ATOM     14  H3  CKG d   1     -43.634  15.205  10.208  0.00  0.00     0.085 H 
ATOM     15  H17 CKG d   1     -40.342  12.121  11.727  0.00  0.00     0.117 H 
ATOM     16  H18 CKG d   1     -42.882  13.037  11.863  0.00  0.00     0.085 H 
ENDROOT
BRANCH   5  17
ATOM     17  C17 CKG d   1     -40.190  18.353  13.898  0.00  0.00     0.021 C 
ATOM     18  H4  CKG d   1     -39.555  17.573  14.344  0.00  0.00     0.068 H 
ATOM     19  H5  CKG d   1     -40.730  18.886  14.694  0.00  0.00     0.068 H 
BRANCH  17  20
ATOM     20  C25 CKG d   1     -39.285  19.354  13.181  0.00  0.00    -0.034 C 
ATOM     21  C30 CKG d   1     -38.971  18.884  11.764  0.00  0.00    -0.038 C 
ATOM     22  C29 CKG d   1     -38.129  19.924  11.047  0.00  0.00     0.082 C 
ATOM     23  H7  CKG d   1     -39.911  18.734  11.213  0.00  0.00     0.036 H 
ATOM     24  H8  CKG d   1     -38.417  17.935  11.809  0.00  0.00     0.036 H 
ATOM     25  N28 CKG d   1     -38.679  21.269  11.159  0.00  0.00    -0.075 N 
ATOM     26  H9  CKG d   1     -38.070  19.656   9.982  0.00  0.00     0.075 H 
ATOM     27  H10 CKG d   1     -37.119  19.920  11.482  0.00  0.00     0.075 H 
ATOM     28  C27 CKG d   1     -39.091  21.752  12.472  0.00  0.00     0.082 C 
ATOM     29  H11 CKG d   1     -39.489  21.308  10.561  0.00  0.00     0.277 HD
ATOM     30  H12 CKG d   1     -37.977  21.906  10.816  0.00  0.00     0.277 HD
ATOM     31  C26 CKG d   1     -39.984  20.727  13.148  0.00  0.00    -0.038 C 
ATOM     32  H13 CKG d   1     -39.644  22.696  12.355  0.00  0.00     0.075 H 
ATOM     33  H14 CKG d   1     -38.199  21.924  13.093  0.00  0.00     0.075 H 
ATOM     34  H15 CKG d   1     -40.196  21.052  14.177  0.00  0.00     0.036 H 
ATOM     35  H16 CKG d   1     -40.927  20.642  12.589  0.00  0.00     0.036 H 
ATOM     36  H6  CKG d   1     -38.341  19.445  13.739  0.00  0.00     0.042 H 
ENDBRANCH  17  20
ENDBRANCH   5  17
BRANCH   1  37
ATOM     37  C8  CKG d   1     -44.392  18.155  11.386  0.00  0.00     0.270 C 
ATOM     38  O9  CKG d   1     -45.162  17.395  10.832  0.00  0.00    -0.266 OA
ATOM     39  N24 CKG d   1     -44.670  19.462  11.533  0.00  0.00    -0.365 N 
ATOM     40  H1  CKG d   1     -44.017  20.063  11.993  0.00  0.00     0.159 HD
ATOM     41  H2  CKG d   1     -45.530  19.833  11.182  0.00  0.00     0.159 HD
ENDBRANCH   1  37
BRANCH   9  42
ATOM     42  N15 CKG d   1     -36.965  14.523  13.186  0.00  0.00    -0.188 N 
ATOM     43  H19 CKG d   1     -36.442  13.651  13.024  0.00  0.00     0.184 HD
BRANCH  42  44
ATOM     44  C16 CKG d   1     -36.223  15.531  13.728  0.00  0.00     0.049 A 
ATOM     45  C23 CKG d   1     -36.703  16.821  13.944  0.00  0.00    -0.057 A 
ATOM     46  C22 CKG d   1     -35.842  17.799  14.493  0.00  0.00    -0.081 A 
ATOM     47  H20 CKG d   1     -37.727  17.073  13.693  0.00  0.00     0.086 H 
ATOM     48  C21 CKG d   1     -34.507  17.499  14.811  0.00  0.00    -0.083 A 
ATOM     49  H21 CKG d   1     -36.219  18.799  14.672  0.00  0.00     0.083 H 
ATOM     50  C20 CKG d   1     -34.029  16.207  14.586  0.00  0.00    -0.081 A 
ATOM     51  H22 CKG d   1     -33.857  18.261  15.226  0.00  0.00     0.083 H 
ATOM     52  C19 CKG d   1     -34.897  15.238  14.054  0.00  0.00    -0.057 A 
ATOM     53  H23 CKG d   1     -33.001  15.954  14.819  0.00  0.00     0.083 H 
ATOM     54  H24 CKG d   1     -34.526  14.232  13.892  0.00  0.00     0.086 H 
ENDBRANCH  42  44
ENDBRANCH   9  42
TORSDOF 5
