REMARK  9 active torsions:
REMARK  status: ('A' for Active; 'I' for Inactive)
REMARK       I    between atoms: C21_2  and  N22_3 
REMARK    1  A    between atoms: C21_2  and  C20_12 
REMARK    2  A    between atoms: N22_3  and  C32_4 
REMARK    3  A    between atoms: C32_4  and  C33_5 
REMARK    4  A    between atoms: C35_9  and  C39_10 
REMARK    5  A    between atoms: N18_16  and  C24_17 
REMARK    6  A    between atoms: C14_21  and  N1_26 
REMARK    7  A    between atoms: N1_26  and  C2_27 
REMARK    8  A    between atoms: C5_30  and  N25_33 
REMARK    9  A    between atoms: N28_36  and  C31_37 
ROOT
ATOM      1  C20 MH4 d   1     -37.087 -28.580  27.695  0.00  0.00     0.157 A 
ATOM      2  C16 MH4 d   1     -35.720 -28.787  27.574  0.00  0.00     0.031 A 
ATOM      3  C8  MH4 d   1     -34.894 -29.882  26.897  0.00  0.00    -0.067 C 
ATOM      4  N19 MH4 d   1     -37.271 -27.441  28.380  0.00  0.00    -0.166 NA
ATOM      5  N18 MH4 d   1     -36.034 -26.922  28.708  0.00  0.00    -0.270 N 
ATOM      6  C17 MH4 d   1     -35.087 -27.743  28.254  0.00  0.00     0.095 A 
ATOM      7  C10 MH4 d   1     -33.694 -27.629  28.271  0.00  0.00     0.117 A 
ATOM      8  N15 MH4 d   1     -33.107 -26.445  28.509  0.00  0.00    -0.060 NA
ATOM      9  C14 MH4 d   1     -31.778 -26.299  28.461  0.00  0.00     0.727 A 
ATOM     10  N13 MH4 d   1     -31.032 -27.370  28.134  0.00  0.00    -0.074 NA
ATOM     11  C12 MH4 d   1     -31.557 -28.573  27.872  0.00  0.00     0.033 A 
ATOM     12  C11 MH4 d   1     -32.924 -28.735  27.914  0.00  0.00     0.014 A 
ATOM     13  C9  MH4 d   1     -33.561 -30.063  27.635  0.00  0.00    -0.068 C 
ATOM     14  H   MH4 d   1     -35.206 -30.450  26.020  0.00  0.00     0.085 H 
ATOM     15  H   MH4 d   1     -30.910 -29.415  27.628  0.00  0.00     0.117 H 
ATOM     16  H   MH4 d   1     -33.135 -31.026  27.918  0.00  0.00     0.085 H 
ENDROOT
BRANCH   9  17
ATOM     17  N1  MH4 d   1     -31.170 -25.098  28.688  0.00  0.00    -0.188 N 
ATOM     18  H   MH4 d   1     -30.173 -25.050  28.478  0.00  0.00     0.184 HD
BRANCH  17  19
ATOM     19  C2  MH4 d   1     -31.737 -23.963  29.160  0.00  0.00     0.049 A 
ATOM     20  C7  MH4 d   1     -30.982 -23.108  29.977  0.00  0.00    -0.054 A 
ATOM     21  C6  MH4 d   1     -31.563 -21.935  30.497  0.00  0.00    -0.055 A 
ATOM     22  H   MH4 d   1     -29.945 -23.352  30.209  0.00  0.00     0.087 H 
ATOM     23  C5  MH4 d   1     -32.900 -21.624  30.176  0.00  0.00     0.030 A 
ATOM     24  H   MH4 d   1     -30.984 -21.274  31.142  0.00  0.00     0.087 H 
ATOM     25  C4  MH4 d   1     -33.622 -22.481  29.330  0.00  0.00    -0.055 A 
ATOM     26  C3  MH4 d   1     -33.044 -23.639  28.834  0.00  0.00    -0.054 A 
ATOM     27  H   MH4 d   1     -34.648 -22.233  29.060  0.00  0.00     0.087 H 
ATOM     28  H   MH4 d   1     -33.620 -24.298  28.184  0.00  0.00     0.087 H 
BRANCH  23  29
ATOM     29  N25 MH4 d   1     -33.528 -20.420  30.637  0.00  0.00    -0.378 N 
ATOM     30  C30 MH4 d   1     -32.812 -19.542  31.575  0.00  0.00     0.020 C 
ATOM     31  C29 MH4 d   1     -33.814 -19.275  32.688  0.00  0.00     0.127 C 
ATOM     32  H   MH4 d   1     -32.477 -18.621  31.098  0.00  0.00     0.066 H 
ATOM     33  H   MH4 d   1     -31.898 -20.003  31.950  0.00  0.00     0.066 H 
ATOM     34  N28 MH4 d   1     -34.809 -18.443  31.978  0.00  0.00     0.087 N 
ATOM     35  H   MH4 d   1     -33.381 -18.793  33.565  0.00  0.00     0.082 H 
ATOM     36  H   MH4 d   1     -34.231 -20.179  33.132  0.00  0.00     0.082 H 
ATOM     37  C27 MH4 d   1     -35.683 -19.364  31.210  0.00  0.00     0.127 C 
ATOM     38  C26 MH4 d   1     -34.863 -20.073  30.122  0.00  0.00     0.020 C 
ATOM     39  H   MH4 d   1     -36.485 -18.793  30.742  0.00  0.00     0.082 H 
ATOM     40  H   MH4 d   1     -36.105 -20.108  31.886  0.00  0.00     0.082 H 
ATOM     41  H   MH4 d   1     -35.379 -20.986  29.824  0.00  0.00     0.066 H 
ATOM     42  H   MH4 d   1     -34.753 -19.407  29.267  0.00  0.00     0.066 H 
BRANCH  34  43
ATOM     43  C31 MH4 d   1     -35.547 -17.464  32.843  0.00  0.00     0.095 C 
ATOM     44  H   MH4 d   1     -36.087 -18.004  33.621  0.00  0.00     0.071 H 
ATOM     45  H   MH4 d   1     -34.835 -16.778  33.302  0.00  0.00     0.071 H 
ATOM     46  H   MH4 d   1     -36.253 -16.901  32.232  0.00  0.00     0.071 H 
ENDBRANCH  34  43
ENDBRANCH  23  29
ENDBRANCH  17  19
ENDBRANCH   9  17
BRANCH   5  47
ATOM     47  C24 MH4 d   1     -36.076 -25.666  29.505  0.00  0.00     0.003 C 
ATOM     48  H   MH4 d   1     -36.601 -24.896  28.940  0.00  0.00     0.059 H 
ATOM     49  H   MH4 d   1     -36.599 -25.850  30.443  0.00  0.00     0.059 H 
ATOM     50  H   MH4 d   1     -35.059 -25.335  29.714  0.00  0.00     0.059 H 
ENDBRANCH   5  47
BRANCH   1  51
ATOM     51  C21 MH4 d   1     -38.228 -29.405  27.167  0.00  0.00     0.273 C 
ATOM     52  O23 MH4 d   1     -38.129 -30.602  26.908  0.00  0.00    -0.266 OA
ATOM     53  N22 MH4 d   1     -39.370 -28.703  26.969  0.00  0.00    -0.351 N 
ATOM     54  H   MH4 d   1     -39.289 -27.703  27.155  0.00  0.00     0.163 HD
BRANCH  53  55
ATOM     55  C32 MH4 d   1     -40.693 -29.130  26.536  0.00  0.00     0.019 C 
ATOM     56  H   MH4 d   1     -40.649 -29.931  25.798  0.00  0.00     0.071 H 
ATOM     57  H   MH4 d   1     -41.239 -28.336  26.027  0.00  0.00     0.071 H 
BRANCH  55  58
ATOM     58  C33 MH4 d   1     -41.374 -29.566  27.823  0.00  0.00    -0.037 A 
ATOM     59  C38 MH4 d   1     -42.532 -30.337  27.797  0.00  0.00    -0.058 A 
ATOM     60  C37 MH4 d   1     -43.117 -30.715  29.009  0.00  0.00     0.003 A 
ATOM     61  H   MH4 d   1     -42.975 -30.641  26.849  0.00  0.00     0.086 H 
ATOM     62  N36 MH4 d   1     -42.570 -30.325  30.198  0.00  0.00    -0.266 NA
ATOM     63  H   MH4 d   1     -44.019 -31.327  29.005  0.00  0.00     0.114 H 
ATOM     64  C35 MH4 d   1     -41.459 -29.549  30.264  0.00  0.00     0.030 A 
ATOM     65  C34 MH4 d   1     -40.837 -29.169  29.078  0.00  0.00    -0.052 A 
ATOM     66  H   MH4 d   1     -39.932 -28.563  29.112  0.00  0.00     0.087 H 
BRANCH  64  67
ATOM     67  C39 MH4 d   1     -40.888 -29.150  31.601  0.00  0.00    -0.035 C 
ATOM     68  H   MH4 d   1     -39.881 -29.555  31.700  0.00  0.00     0.035 H 
ATOM     69  H   MH4 d   1     -40.852 -28.063  31.669  0.00  0.00     0.035 H 
ATOM     70  H   MH4 d   1     -41.520 -29.544  32.397  0.00  0.00     0.035 H 
ENDBRANCH  64  67
ENDBRANCH  55  58
ENDBRANCH  53  55
ENDBRANCH   1  51
TORSDOF 9
