REMARK  18 active torsions:
REMARK  status: ('A' for Active; 'I' for Inactive)
REMARK    1  A    between atoms: C6_2  and  O2_3 
REMARK       I    between atoms: C6_2  and  N1_9 
REMARK    2  A    between atoms: O2_3  and  C7_4 
REMARK    3  A    between atoms: N1_9  and  C5_10 
REMARK    4  A    between atoms: C5_10  and  C2_11 
REMARK    5  A    between atoms: C5_10  and  C12_15 
REMARK    6  A    between atoms: C2_11  and  C1_12 
REMARK    7  A    between atoms: C2_11  and  C3_13 
REMARK    8  A    between atoms: C2_11  and  C4_14 
REMARK       I    between atoms: C12_15  and  N2_17 
REMARK    9  A    between atoms: C16_18  and  C17_19 
REMARK       I    between atoms: C17_19  and  N3_20 
REMARK   10  A    between atoms: N3_20  and  C18_21 
REMARK   11  A    between atoms: C18_21  and  C19_22 
REMARK   12  A    between atoms: C18_21  and  B_25 
REMARK   13  A    between atoms: C19_22  and  C20_23 
REMARK   14  A    between atoms: C20_23  and  O5_24 
REMARK   15  A    between atoms: B_25  and  O6_26 
REMARK   16  A    between atoms: B_25  and  O8_27 
REMARK   17  A    between atoms: C14_30  and  O7_32 
REMARK   18  A    between atoms: O7_32  and  C21_33 
ROOT
ATOM      1  C12 C8D d   1       8.042  30.214  11.667  0.00  0.00     0.244 C 
ATOM      2  O3  C8D d   1       9.259  30.031  11.723  0.00  0.00    -0.271 OA
ATOM      3  N2  C8D d   1       7.165  29.542  12.467  0.00  0.00    -0.334 N 
ATOM      4  C16 C8D d   1       7.567  28.567  13.501  0.00  0.00     0.094 C 
ATOM      5  C13 C8D d   1       5.722  29.760  12.404  0.00  0.00     0.023 C 
ATOM      6  C14 C8D d   1       5.328  29.451  13.842  0.00  0.00     0.064 C 
ATOM      7  C15 C8D d   1       6.226  28.229  14.155  0.00  0.00    -0.011 C 
ATOM      8  H   C8D d   1       8.349  28.990  14.131  0.00  0.00     0.088 H 
ATOM      9  H   C8D d   1       5.212  29.146  11.662  0.00  0.00     0.068 H 
ATOM     10  H   C8D d   1       5.438  30.758  12.070  0.00  0.00     0.068 H 
ATOM     11  H   C8D d   1       4.282  29.240  14.063  0.00  0.00     0.086 H 
ATOM     12  H   C8D d   1       6.324  28.056  15.227  0.00  0.00     0.040 H 
ATOM     13  H   C8D d   1       5.804  27.301  13.770  0.00  0.00     0.040 H 
ENDROOT
BRANCH   1  14
ATOM     14  C5  C8D d   1       7.373  31.243  10.682  0.00  0.00     0.098 C 
ATOM     15  H   C8D d   1       6.349  31.417  11.014  0.00  0.00     0.088 H 
BRANCH  14  16
ATOM     16  N1  C8D d   1       8.192  32.469  10.753  0.00  0.00    -0.323 N 
ATOM     17  C6  C8D d   1       7.676  33.579  11.344  0.00  0.00     0.361 C 
ATOM     18  O1  C8D d   1       6.581  33.618  11.817  0.00  0.00    -0.238 OA
ATOM     19  H   C8D d   1       9.134  32.483  10.363  0.00  0.00     0.165 HD
BRANCH  17  20
ATOM     20  O2  C8D d   1       8.512  34.626  11.365  0.00  0.00    -0.299 OA
BRANCH  20  21
ATOM     21  C7  C8D d   1       8.211  35.866  12.033  0.00  0.00     0.050 C 
ATOM     22  C8  C8D d   1       9.442  36.759  11.957  0.00  0.00    -0.040 C 
ATOM     23  C9  C8D d   1      10.202  36.564  13.273  0.00  0.00    -0.063 C 
ATOM     24  H   C8D d   1       9.159  37.803  11.820  0.00  0.00     0.036 H 
ATOM     25  H   C8D d   1      10.065  36.493  11.103  0.00  0.00     0.036 H 
ATOM     26  C10 C8D d   1       9.154  36.183  14.319  0.00  0.00    -0.063 C 
ATOM     27  H   C8D d   1      10.731  37.473  13.560  0.00  0.00     0.033 H 
ATOM     28  H   C8D d   1      10.961  35.788  13.177  0.00  0.00     0.033 H 
ATOM     29  C11 C8D d   1       7.926  35.689  13.537  0.00  0.00    -0.040 C 
ATOM     30  H   C8D d   1       8.901  37.035  14.950  0.00  0.00     0.033 H 
ATOM     31  H   C8D d   1       9.530  35.410  14.988  0.00  0.00     0.033 H 
ATOM     32  H   C8D d   1       7.736  34.640  13.762  0.00  0.00     0.036 H 
ATOM     33  H   C8D d   1       7.044  36.263  13.822  0.00  0.00     0.036 H 
ATOM     34  H   C8D d   1       7.329  36.279  11.543  0.00  0.00     0.084 H 
ENDBRANCH  20  21
ENDBRANCH  17  20
ENDBRANCH  14  16
BRANCH  14  35
ATOM     35  C2  C8D d   1       7.080  30.751   9.210  0.00  0.00    -0.022 C 
BRANCH  35  36
ATOM     36  C1  C8D d   1       6.894  29.227   9.000  0.00  0.00    -0.067 C 
ATOM     37  H   C8D d   1       7.800  28.706   9.308  0.00  0.00     0.028 H 
ATOM     38  H   C8D d   1       6.052  28.879   9.598  0.00  0.00     0.028 H 
ATOM     39  H   C8D d   1       6.699  29.028   7.946  0.00  0.00     0.028 H 
ENDBRANCH  35  36
BRANCH  35  40
ATOM     40  C3  C8D d   1       5.803  31.487   8.725  0.00  0.00    -0.067 C 
ATOM     41  H   C8D d   1       4.971  31.241   9.385  0.00  0.00     0.028 H 
ATOM     42  H   C8D d   1       5.976  32.563   8.743  0.00  0.00     0.028 H 
ATOM     43  H   C8D d   1       5.568  31.172   7.708  0.00  0.00     0.028 H 
ENDBRANCH  35  40
BRANCH  35  44
ATOM     44  C4  C8D d   1       8.218  31.143   8.269  0.00  0.00    -0.067 C 
ATOM     45  H   C8D d   1       8.325  32.228   8.262  0.00  0.00     0.028 H 
ATOM     46  H   C8D d   1       9.146  30.687   8.614  0.00  0.00     0.028 H 
ATOM     47  H   C8D d   1       7.992  30.793   7.262  0.00  0.00     0.028 H 
ENDBRANCH  35  44
ENDBRANCH  14  35
ENDBRANCH   1  14
BRANCH   4  48
ATOM     48  C17 C8D d   1       8.140  27.251  12.961  0.00  0.00     0.240 C 
ATOM     49  N3  C8D d   1       8.713  26.418  13.877  0.00  0.00    -0.358 N 
ATOM     50  H   C8D d   1       8.743  26.698  14.857  0.00  0.00     0.162 HD
ATOM     51  O4  C8D d   1       8.059  27.020  11.766  0.00  0.00    -0.271 OA
BRANCH  49  52
ATOM     52  C18 C8D d   1       9.288  25.124  13.479  0.00  0.00     0.048 C 
ATOM     53  H   C8D d   1       8.799  24.888  12.534  0.00  0.00     0.065 H 
BRANCH  52  54
ATOM     54  C19 C8D d   1      10.824  25.166  13.212  0.00  0.00    -0.029 C 
ATOM     55  H   C8D d   1      11.109  24.284  12.639  0.00  0.00     0.038 H 
ATOM     56  H   C8D d   1      11.350  25.185  14.166  0.00  0.00     0.038 H 
BRANCH  54  57
ATOM     57  C20 C8D d   1      11.198  26.437  12.403  0.00  0.00     0.018 C 
ATOM     58  H   C8D d   1      12.263  26.643  12.505  0.00  0.00     0.074 H 
ATOM     59  H   C8D d   1      10.643  27.296  12.781  0.00  0.00     0.074 H 
BRANCH  57  60
ATOM     60  O5  C8D d   1      10.874  26.211  11.035  0.00  0.00    -0.401 OA
ATOM     61  H   C8D d   1       9.934  26.035  10.955  0.00  0.00     0.209 HD
ENDBRANCH  57  60
ENDBRANCH  54  57
ENDBRANCH  52  54
BRANCH  52  62
ATOM     62  B   C8D d   1       8.978  23.986  14.550  0.00  0.00     0.515 B 
BRANCH  62  63
ATOM     63  O6  C8D d   1       7.744  23.499  14.718  0.00  0.00    -0.436 OA
ATOM     64  H   C8D d   1       7.438  23.113  13.894  0.00  0.00     0.184 HD
ENDBRANCH  62  63
BRANCH  62  65
ATOM     65  O8  C8D d   1       9.725  22.713  14.149  0.00  0.00    -0.436 OA
ATOM     66  H   C8D d   1       9.656  22.067  14.856  0.00  0.00     0.184 HD
ENDBRANCH  62  65
ENDBRANCH  52  62
ENDBRANCH  49  52
ENDBRANCH   4  48
BRANCH   6  67
ATOM     67  O7  C8D d   1       5.735  30.599  14.554  0.00  0.00    -0.327 OA
BRANCH  67  68
ATOM     68  C21 C8D d   1       5.132  30.809  15.794  0.00  0.00     0.175 A 
ATOM     69  N4  C8D d   1       4.112  30.010  16.253  0.00  0.00    -0.236 NA
ATOM     70  C22 C8D d   1       3.600  30.190  17.504  0.00  0.00     0.006 A 
ATOM     71  C23 C8D d   1       4.069  31.186  18.378  0.00  0.00    -0.055 A 
ATOM     72  H   C8D d   1       2.795  29.536  17.840  0.00  0.00     0.114 H 
ATOM     73  C24 C8D d   1       5.109  32.031  17.936  0.00  0.00    -0.020 A 
ATOM     74  H   C8D d   1       3.640  31.303  19.373  0.00  0.00     0.087 H 
ATOM     75  C29 C8D d   1       5.649  31.845  16.630  0.00  0.00     0.027 A 
ATOM     76  C25 C8D d   1       5.605  33.037  18.791  0.00  0.00    -0.072 A 
ATOM     77  C28 C8D d   1       6.695  32.686  16.180  0.00  0.00    -0.068 A 
ATOM     78  C27 C8D d   1       7.171  33.688  17.038  0.00  0.00    -0.082 A 
ATOM     79  H   C8D d   1       7.122  32.557  15.186  0.00  0.00     0.085 H 
ATOM     80  C26 C8D d   1       6.640  33.863  18.333  0.00  0.00    -0.082 A 
ATOM     81  H   C8D d   1       7.970  34.347  16.696  0.00  0.00     0.083 H 
ATOM     82  H   C8D d   1       7.037  34.645  18.981  0.00  0.00     0.083 H 
ATOM     83  H   C8D d   1       5.191  33.170  19.790  0.00  0.00     0.084 H 
ENDBRANCH  67  68
ENDBRANCH   6  67
TORSDOF 18
