REMARK  8 active torsions:
REMARK  status: ('A' for Active; 'I' for Inactive)
REMARK    1  A    between atoms: C12_4  and  C13_15 
REMARK    2  A    between atoms: C3_7  and  O2_8 
REMARK    3  A    between atoms: O2_8  and  C1_9 
REMARK    4  A    between atoms: C13_15  and  C14_16 
REMARK    5  A    between atoms: C14_16  and  N15_17 
REMARK    6  A    between atoms: C18_20  and  N21_23 
REMARK    7  A    between atoms: N21_23  and  C22_24 
REMARK    8  A    between atoms: C22_24  and  C23_25 
ROOT
ATOM      1  N11 RXV d   1       5.971  49.051  44.567  0.00  0.00    -0.191 NA
ATOM      2  C10 RXV d   1       6.087  49.564  43.520  0.00  0.00     0.101 C 
ATOM      3  C9  RXV d   1       6.292  50.244  42.451  0.00  0.00     0.069 A 
ATOM      4  C12 RXV d   1       6.433  49.620  41.226  0.00  0.00    -0.022 A 
ATOM      5  C32 RXV d   1       6.650  50.407  40.098  0.00  0.00     0.003 A 
ATOM      6  C33 RXV d   1       6.796  49.823  38.843  0.00  0.00    -0.038 A 
ATOM      7  C3  RXV d   1       7.010  50.626  37.730  0.00  0.00     0.069 A 
ATOM      8  C4  RXV d   1       7.082  52.006  37.866  0.00  0.00    -0.049 A 
ATOM      9  C5  RXV d   1       6.929  52.593  39.114  0.00  0.00    -0.052 A 
ATOM     10  C6  RXV d   1       6.716  51.793  40.231  0.00  0.00     0.067 A 
ATOM     11  N7  RXV d   1       6.570  52.373  41.443  0.00  0.00    -0.259 NA
ATOM     12  C8  RXV d   1       6.363  51.629  42.534  0.00  0.00     0.023 A 
ATOM     13  H   RXV d   1       6.743  48.740  38.734  0.00  0.00     0.089 H 
ATOM     14  H   RXV d   1       7.259  52.630  36.990  0.00  0.00     0.087 H 
ATOM     15  H   RXV d   1       6.976  53.677  39.218  0.00  0.00     0.087 H 
ATOM     16  H   RXV d   1       6.248  52.116  43.502  0.00  0.00     0.117 H 
ENDROOT
BRANCH   4  17
ATOM     17  C13 RXV d   1       6.360  48.111  41.112  0.00  0.00    -0.014 C 
ATOM     18  H   RXV d   1       5.690  47.840  40.296  0.00  0.00     0.042 H 
ATOM     19  H   RXV d   1       5.982  47.693  42.045  0.00  0.00     0.042 H 
BRANCH  17  20
ATOM     20  C14 RXV d   1       7.755  47.555  40.832  0.00  0.00     0.117 C 
ATOM     21  H   RXV d   1       8.445  48.006  41.545  0.00  0.00     0.080 H 
ATOM     22  H   RXV d   1       8.008  47.789  39.798  0.00  0.00     0.080 H 
BRANCH  20  23
ATOM     23  N15 RXV d   1       7.826  46.089  40.996  0.00  0.00     0.088 N 
ATOM     24  C16 RXV d   1       7.051  45.647  42.168  0.00  0.00     0.115 C 
ATOM     25  C17 RXV d   1       7.189  44.134  42.321  0.00  0.00    -0.013 C 
ATOM     26  H   RXV d   1       6.001  45.906  42.031  0.00  0.00     0.080 H 
ATOM     27  H   RXV d   1       7.429  46.141  43.063  0.00  0.00     0.080 H 
ATOM     28  C18 RXV d   1       6.647  43.439  41.078  0.00  0.00     0.105 C 
ATOM     29  H   RXV d   1       6.623  43.806  43.193  0.00  0.00     0.038 H 
ATOM     30  H   RXV d   1       8.241  43.879  42.447  0.00  0.00     0.038 H 
ATOM     31  C19 RXV d   1       7.482  43.918  39.899  0.00  0.00    -0.013 C 
ATOM     32  H   RXV d   1       5.598  43.695  40.926  0.00  0.00     0.084 H 
ATOM     33  C20 RXV d   1       7.328  45.431  39.776  0.00  0.00     0.115 C 
ATOM     34  H   RXV d   1       7.142  43.435  38.983  0.00  0.00     0.038 H 
ATOM     35  H   RXV d   1       8.530  43.663  40.059  0.00  0.00     0.038 H 
ATOM     36  H   RXV d   1       7.903  45.782  38.919  0.00  0.00     0.080 H 
ATOM     37  H   RXV d   1       6.274  45.674  39.642  0.00  0.00     0.080 H 
BRANCH  28  38
ATOM     38  N21 RXV d   1       6.673  41.993  41.212  0.00  0.00    -0.066 N 
ATOM     39  H   RXV d   1       7.414  41.805  41.887  0.00  0.00     0.278 HD
ATOM     40  H   RXV d   1       6.772  41.642  40.259  0.00  0.00     0.278 HD
BRANCH  38  41
ATOM     41  C22 RXV d   1       5.503  41.314  41.741  0.00  0.00     0.121 C 
ATOM     42  H   RXV d   1       4.642  41.563  41.121  0.00  0.00     0.085 H 
ATOM     43  H   RXV d   1       5.345  41.636  42.770  0.00  0.00     0.085 H 
BRANCH  41  44
ATOM     44  C23 RXV d   1       5.699  39.816  41.724  0.00  0.00     0.061 A 
ATOM     45  C24 RXV d   1       4.975  39.034  40.826  0.00  0.00    -0.038 A 
ATOM     46  C25 RXV d   1       5.182  37.661  40.841  0.00  0.00     0.039 A 
ATOM     47  H   RXV d   1       4.267  39.487  40.132  0.00  0.00     0.088 H 
ATOM     48  S26 RXV d   1       4.406  36.530  39.838  0.00  0.00    -0.100 SA
ATOM     49  C29 RXV d   1       6.077  37.123  41.722  0.00  0.00     0.104 A 
ATOM     50  C27 RXV d   1       5.322  35.219  40.611  0.00  0.00     0.071 A 
ATOM     51  O28 RXV d   1       6.179  35.768  41.621  0.00  0.00    -0.338 OA
ATOM     52  H   RXV d   1       5.925  34.705  39.862  0.00  0.00     0.092 H 
ATOM     53  H   RXV d   1       4.630  34.511  41.066  0.00  0.00     0.092 H 
ATOM     54  C30 RXV d   1       6.785  37.924  42.607  0.00  0.00     0.036 A 
ATOM     55  N31 RXV d   1       6.580  39.249  42.588  0.00  0.00    -0.261 NA
ATOM     56  H   RXV d   1       7.496  37.483  43.306  0.00  0.00     0.119 H 
ENDBRANCH  41  44
ENDBRANCH  38  41
ENDBRANCH  28  38
ENDBRANCH  20  23
ENDBRANCH  17  20
ENDBRANCH   4  17
BRANCH   7  57
ATOM     57  O2  RXV d   1       7.160  50.063  36.490  0.00  0.00    -0.356 OA
BRANCH  57  58
ATOM     58  C1  RXV d   1       7.322  48.652  36.360  0.00  0.00     0.010 C 
ATOM     59  H   RXV d   1       8.215  48.339  36.901  0.00  0.00     0.066 H 
ATOM     60  H   RXV d   1       6.449  48.148  36.774  0.00  0.00     0.066 H 
ATOM     61  H   RXV d   1       7.426  48.395  35.306  0.00  0.00     0.066 H 
ENDBRANCH  57  58
ENDBRANCH   7  57
TORSDOF 8
