REMARK  4 active torsions:
REMARK  status: ('A' for Active; 'I' for Inactive)
REMARK    1  A    between atoms: C3_2  and  C2_4 
REMARK    2  A    between atoms: N1_6  and  C11_22 
REMARK    3  A    between atoms: C8_9  and  N2_10 
REMARK    4  A    between atoms: C4_20  and  O3_21 
ROOT
ATOM      1  C2  CPF d   1       2.851  42.569  71.688  0.00  0.00     0.090 A 
ATOM      2  C1  CPF d   1       2.403  43.889  71.572  0.00  0.00    -0.000 A 
ATOM      3  N1  CPF d   1       2.287  44.466  70.363  0.00  0.00    -0.350 N 
ATOM      4  C10 CPF d   1       2.582  43.778  69.248  0.00  0.00     0.050 A 
ATOM      5  C9  CPF d   1       2.437  44.408  68.022  0.00  0.00    -0.028 A 
ATOM      6  C8  CPF d   1       2.736  43.731  66.856  0.00  0.00     0.071 A 
ATOM      7  C7  CPF d   1       3.188  42.424  66.900  0.00  0.00     0.143 A 
ATOM      8  F1  CPF d   1       3.491  41.766  65.764  0.00  0.00    -0.204 F 
ATOM      9  C6  CPF d   1       3.333  41.779  68.122  0.00  0.00    -0.029 A 
ATOM     10  C5  CPF d   1       3.032  42.458  69.301  0.00  0.00     0.028 A 
ATOM     11  C4  CPF d   1       3.165  41.846  70.546  0.00  0.00     0.096 A 
ATOM     12  H   CPF d   1       2.146  44.454  72.468  0.00  0.00     0.113 H 
ATOM     13  H   CPF d   1       2.087  45.439  67.978  0.00  0.00     0.090 H 
ATOM     14  H   CPF d   1       3.681  40.747  68.158  0.00  0.00     0.089 H 
ENDROOT
BRANCH   6  15
ATOM     15  N2  CPF d   1       2.597  44.438  65.661  0.00  0.00    -0.375 N 
ATOM     16  C17 CPF d   1       2.236  45.845  65.766  0.00  0.00     0.018 C 
ATOM     17  C16 CPF d   1       3.302  46.556  64.943  0.00  0.00     0.096 C 
ATOM     18  H   CPF d   1       2.210  46.191  66.799  0.00  0.00     0.066 H 
ATOM     19  H   CPF d   1       1.228  46.043  65.400  0.00  0.00     0.066 H 
ATOM     20  N3  CPF d   1       3.191  46.133  63.568  0.00  0.00    -0.072 N 
ATOM     21  H   CPF d   1       4.291  46.306  65.327  0.00  0.00     0.078 H 
ATOM     22  H   CPF d   1       3.160  47.635  65.009  0.00  0.00     0.078 H 
ATOM     23  C15 CPF d   1       2.500  44.887  63.313  0.00  0.00     0.096 C 
ATOM     24  H   CPF d   1       4.148  45.990  63.244  0.00  0.00     0.277 HD
ATOM     25  H   CPF d   1       2.643  46.855  63.100  0.00  0.00     0.277 HD
ATOM     26  C14 CPF d   1       2.859  43.829  64.355  0.00  0.00     0.018 C 
ATOM     27  H   CPF d   1       2.797  44.521  62.330  0.00  0.00     0.078 H 
ATOM     28  H   CPF d   1       1.427  45.070  63.360  0.00  0.00     0.078 H 
ATOM     29  H   CPF d   1       2.267  42.924  64.217  0.00  0.00     0.066 H 
ATOM     30  H   CPF d   1       3.902  43.526  64.264  0.00  0.00     0.066 H 
ENDBRANCH   6  15
BRANCH   3  31
ATOM     31  C11 CPF d   1       1.809  45.846  70.220  0.00  0.00     0.017 A 
ATOM     32  C12 CPF d   1       1.945  46.589  71.539  0.00  0.00    -0.044 A 
ATOM     33  C13 CPF d   1       2.977  46.788  70.437  0.00  0.00    -0.044 A 
ATOM     34  H   CPF d   1       1.918  46.374  72.607  0.00  0.00     0.036 H 
ATOM     35  H   CPF d   1       1.331  47.195  72.205  0.00  0.00     0.036 H 
ATOM     36  H   CPF d   1       3.471  47.610  69.919  0.00  0.00     0.036 H 
ATOM     37  H   CPF d   1       4.061  46.786  70.322  0.00  0.00     0.036 H 
ATOM     38  H   CPF d   1       1.017  45.733  69.480  0.00  0.00     0.073 H 
ENDBRANCH   3  31
BRANCH  11  39
ATOM     39  O3  CPF d   1       3.603  40.543  70.660  0.00  0.00    -0.359 OA
ATOM     40  H   CPF d   1       3.631  40.296  71.587  0.00  0.00     0.217 HD
ENDBRANCH  11  39
BRANCH   1  41
ATOM     41  C3  CPF d   1       2.997  41.909  73.034  0.00  0.00     0.213 C 
ATOM     42  O2  CPF d   1       3.471  40.535  73.081  0.00  0.00    -0.644 OA
ATOM     43  O1  CPF d   1       2.724  42.492  74.084  0.00  0.00    -0.644 OA
ENDBRANCH   1  41
TORSDOF 4
