REMARK  4 active torsions:
REMARK  status: ('A' for Active; 'I' for Inactive)
REMARK    1  A    between atoms: C3_3  and  O3_20 
REMARK    2  A    between atoms: C5_5  and  O4_21 
REMARK    3  A    between atoms: C14_14  and  C21_24 
REMARK    4  A    between atoms: C21_24  and  O22_25 
ROOT
ATOM      1  C1  XD6 d   1     -18.857   2.309  -5.937  0.00  0.00     0.296 C 
ATOM      2  C2  XD6 d   1     -18.850   3.205  -4.753  0.00  0.00     0.081 A 
ATOM      3  C3  XD6 d   1     -19.836   4.384  -4.718  0.00  0.00     0.085 A 
ATOM      4  C4  XD6 d   1     -19.837   5.330  -3.559  0.00  0.00    -0.016 A 
ATOM      5  C5  XD6 d   1     -18.902   5.116  -2.493  0.00  0.00     0.090 A 
ATOM      6  C6  XD6 d   1     -17.891   3.903  -2.539  0.00  0.00     0.075 A 
ATOM      7  C7  XD6 d   1     -17.890   2.986  -3.645  0.00  0.00    -0.008 A 
ATOM      8  C8  XD6 d   1     -16.900   1.833  -3.694  0.00  0.00     0.017 C 
ATOM      9  C9  XD6 d   1     -15.443   2.198  -3.819  0.00  0.00     0.131 C 
ATOM     10  C10 XD6 d   1     -14.384   1.168  -3.470  0.00  0.00    -0.009 C 
ATOM     11  C11 XD6 d   1     -13.114   1.113  -4.305  0.00  0.00    -0.059 C 
ATOM     12  C12 XD6 d   1     -13.216   0.862  -5.796  0.00  0.00    -0.061 C 
ATOM     13  C13 XD6 d   1     -13.192   2.085  -6.743  0.00  0.00    -0.043 C 
ATOM     14  C14 XD6 d   1     -14.352   2.242  -7.698  0.00  0.00    -0.060 C 
ATOM     15  C15 XD6 d   1     -15.222   1.177  -7.856  0.00  0.00    -0.097 C 
ATOM     16  C16 XD6 d   1     -16.500   1.409  -8.547  0.00  0.00    -0.029 C 
ATOM     17  C17 XD6 d   1     -17.730   1.306  -7.706  0.00  0.00     0.032 C 
ATOM     18  O1  XD6 d   1     -17.739   2.047  -6.511  0.00  0.00    -0.317 OA
ATOM     19  O2  XD6 d   1     -19.931   1.758  -6.283  0.00  0.00    -0.259 OA
ATOM     20 CL1  XD6 d   1     -16.849   3.676  -1.185  0.00  0.00    -0.081 Cl
ATOM     21  O5  XD6 d   1     -15.134   3.310  -4.285  0.00  0.00    -0.298 OA
ATOM     22  H1  XD6 d   1     -20.532   6.162  -3.526  0.00  0.00     0.092 H 
ATOM     23  H2  XD6 d   1     -17.162   1.205  -4.558  0.00  0.00     0.051 H 
ATOM     24  H3  XD6 d   1     -17.020   1.251  -2.768  0.00  0.00     0.051 H 
ATOM     25  H4  XD6 d   1     -14.860   0.179  -3.539  0.00  0.00     0.044 H 
ATOM     26  H5  XD6 d   1     -14.079   1.357  -2.430  0.00  0.00     0.044 H 
ATOM     27  H6  XD6 d   1     -12.490   0.310  -3.887  0.00  0.00     0.033 H 
ATOM     28  H7  XD6 d   1     -12.604   2.079  -4.177  0.00  0.00     0.033 H 
ATOM     29  H8  XD6 d   1     -14.162   0.330  -5.974  0.00  0.00     0.033 H 
ATOM     30  H9  XD6 d   1     -12.372   0.215  -6.077  0.00  0.00     0.033 H 
ATOM     31  H10 XD6 d   1     -12.274   2.019  -7.346  0.00  0.00     0.039 H 
ATOM     32  H11 XD6 d   1     -13.155   2.988  -6.116  0.00  0.00     0.039 H 
ATOM     33  H12 XD6 d   1     -14.966   0.189  -7.477  0.00  0.00     0.077 H 
ATOM     34  H13 XD6 d   1     -16.584   0.669  -9.357  0.00  0.00     0.042 H 
ATOM     35  H14 XD6 d   1     -16.471   2.421  -8.977  0.00  0.00     0.042 H 
ATOM     36  H15 XD6 d   1     -17.867   0.247  -7.443  0.00  0.00     0.075 H 
ATOM     37  H16 XD6 d   1     -18.581   1.645  -8.316  0.00  0.00     0.075 H 
ENDROOT
BRANCH  14  38
ATOM     38  C21 XD6 d   1     -14.705   3.606  -8.405  0.00  0.00     0.037 C 
ATOM     39  H19 XD6 d   1     -15.518   4.062  -7.821  0.00  0.00     0.081 H 
ATOM     40  H20 XD6 d   1     -15.073   3.353  -9.410  0.00  0.00     0.081 H 
BRANCH  38  41
ATOM     41  O22 XD6 d   1     -13.738   4.589  -8.573  0.00  0.00    -0.397 OA
ATOM     42  H21 XD6 d   1     -14.122   5.338  -9.014  0.00  0.00     0.209 HD
ENDBRANCH  38  41
ENDBRANCH  14  38
BRANCH   3  43
ATOM     43  O3  XD6 d   1     -20.732   4.508  -5.772  0.00  0.00    -0.360 OA
ATOM     44  H17 XD6 d   1     -20.573   3.817  -6.404  0.00  0.00     0.217 HD
ENDBRANCH   3  43
BRANCH   5  45
ATOM     45  O4  XD6 d   1     -18.830   5.976  -1.407  0.00  0.00    -0.359 OA
ATOM     46  H18 XD6 d   1     -19.486   6.657  -1.500  0.00  0.00     0.217 HD
ENDBRANCH   5  45
TORSDOF 4
