REMARK  12 active torsions:
REMARK  status: ('A' for Active; 'I' for Inactive)
REMARK       I    between atoms: C1_2  and  N_3 
REMARK    1  A    between atoms: C1_2  and  CA1_9 
REMARK    2  A    between atoms: N_3  and  CA_4 
REMARK    3  A    between atoms: CA_4  and  B_5 
REMARK    4  A    between atoms: CA_4  and  CB_8 
REMARK    5  A    between atoms: B_5  and  OB1_6 
REMARK    6  A    between atoms: B_5  and  OB2_7 
REMARK    7  A    between atoms: CA1_9  and  CB1_10 
REMARK    8  A    between atoms: CB1_10  and  CG1_11 
REMARK    9  A    between atoms: CG1_11  and  CD1_12 
REMARK   10  A    between atoms: CD1_12  and  CE1_13 
REMARK   11  A    between atoms: CE1_13  and  NZ1_14 
REMARK   12  A    between atoms: CE1_13  and  CZ1_15 
ROOT
ATOM      1  CA1 BO8 d   1      64.386  19.454  32.251  0.00  0.00     0.009 C 
ATOM      2  H   BO8 d   1      65.309  19.051  32.668  0.00  0.00     0.047 H 
ATOM      3  H   BO8 d   1      64.686  20.132  31.452  0.00  0.00     0.047 H 
ENDROOT
BRANCH   1   4
ATOM      4  C1  BO8 d   1      63.579  20.177  33.306  0.00  0.00     0.217 C 
ATOM      5  O1  BO8 d   1      63.844  20.037  34.500  0.00  0.00    -0.274 OA
ATOM      6  N   BO8 d   1      62.585  20.942  32.858  0.00  0.00    -0.360 N 
ATOM      7  H   BO8 d   1      62.418  21.030  31.856  0.00  0.00     0.162 HD
BRANCH   6   8
ATOM      8  CA  BO8 d   1      61.808  21.593  33.727  0.00  0.00     0.042 C 
ATOM      9  H   BO8 d   1      62.227  21.513  34.730  0.00  0.00     0.064 H 
BRANCH   8  10
ATOM     10  B   BO8 d   1      61.763  23.056  33.466  0.00  0.00     0.514 B 
BRANCH  10  11
ATOM     11  OB1 BO8 d   1      61.453  23.304  31.990  0.00  0.00    -0.436 OA
ATOM     12  H   BO8 d   1      62.157  22.938  31.450  0.00  0.00     0.184 HD
ENDBRANCH  10  11
BRANCH  10  13
ATOM     13  OB2 BO8 d   1      63.098  23.749  33.782  0.00  0.00    -0.436 OA
ATOM     14  H   BO8 d   1      63.319  23.610  34.706  0.00  0.00     0.184 HD
ENDBRANCH  10  13
ENDBRANCH   8  10
BRANCH   8  15
ATOM     15  CB  BO8 d   1      60.423  20.935  33.704  0.00  0.00    -0.060 C 
ATOM     16  H   BO8 d   1      59.794  21.389  34.470  0.00  0.00     0.029 H 
ATOM     17  H   BO8 d   1      59.968  21.082  32.724  0.00  0.00     0.029 H 
ATOM     18  H   BO8 d   1      60.526  19.868  33.901  0.00  0.00     0.029 H 
ENDBRANCH   8  15
ENDBRANCH   6   8
ENDBRANCH   1   4
BRANCH   1  19
ATOM     19  CB1 BO8 d   1      63.488  18.339  31.721  0.00  0.00    -0.057 C 
ATOM     20  H   BO8 d   1      62.766  18.784  31.036  0.00  0.00     0.033 H 
ATOM     21  H   BO8 d   1      63.009  17.858  32.573  0.00  0.00     0.033 H 
BRANCH  19  22
ATOM     22  CG1 BO8 d   1      64.272  17.276  30.957  0.00  0.00    -0.062 C 
ATOM     23  H   BO8 d   1      65.112  16.934  31.562  0.00  0.00     0.033 H 
ATOM     24  H   BO8 d   1      64.652  17.698  30.027  0.00  0.00     0.033 H 
BRANCH  22  25
ATOM     25  CD1 BO8 d   1      63.348  16.099  30.648  0.00  0.00    -0.029 C 
ATOM     26  H   BO8 d   1      62.370  16.515  30.405  0.00  0.00     0.036 H 
ATOM     27  H   BO8 d   1      63.355  15.448  31.522  0.00  0.00     0.036 H 
BRANCH  25  28
ATOM     28  CE1 BO8 d   1      63.784  15.254  29.457  0.00  0.00     0.182 C 
ATOM     29  H   BO8 d   1      64.788  14.869  29.635  0.00  0.00     0.101 H 
BRANCH  28  30
ATOM     30  NZ1 BO8 d   1      62.783  14.225  29.315  0.00  0.00    -0.065 N 
ATOM     31  H   BO8 d   1      63.024  13.624  28.527  0.00  0.00     0.275 HD
ATOM     32  H   BO8 d   1      62.745  13.669  30.169  0.00  0.00     0.275 HD
ATOM     33  H   BO8 d   1      61.874  14.657  29.149  0.00  0.00     0.275 HD
ENDBRANCH  28  30
BRANCH  28  34
ATOM     34  CZ1 BO8 d   1      63.829  16.042  28.175  0.00  0.00     0.204 C 
ATOM     35  O   BO8 d   1      64.940  16.383  27.722  0.00  0.00    -0.646 OA
ATOM     36  OH1 BO8 d   1      62.761  16.324  27.587  0.00  0.00    -0.646 OA
ENDBRANCH  28  34
ENDBRANCH  25  28
ENDBRANCH  22  25
ENDBRANCH  19  22
ENDBRANCH   1  19
TORSDOF 12
