REMARK  22 active torsions:
REMARK  status: ('A' for Active; 'I' for Inactive)
REMARK    1  A    between atoms: CG_6  and  CB_7 
REMARK    2  A    between atoms: CB_7  and  CA_8 
REMARK    3  A    between atoms: CA_8  and  C_9 
REMARK    4  A    between atoms: CA_8  and  N_12 
REMARK       I    between atoms: N_12  and  C1_13 
REMARK       I    between atoms: C1_13  and  N_15 
REMARK    5  A    between atoms: N_15  and  CA_16 
REMARK    6  A    between atoms: CA_16  and  C_17 
REMARK    7  A    between atoms: CA_16  and  CB_19 
REMARK       I    between atoms: C_17  and  N_26 
REMARK    8  A    between atoms: CB_19  and  CG_20 
REMARK    9  A    between atoms: CG_20  and  CD_21 
REMARK   10  A    between atoms: CD_21  and  NE_22 
REMARK       I    between atoms: NE_22  and  CZ_23 
REMARK       I    between atoms: CZ_23  and  NH1_24 
REMARK       I    between atoms: CZ_23  and  NH2_25 
REMARK   11  A    between atoms: N_26  and  CA_27 
REMARK   12  A    between atoms: CA_27  and  C_28 
REMARK   13  A    between atoms: CA_27  and  CB_30 
REMARK       I    between atoms: C_28  and  N_33 
REMARK   14  A    between atoms: CB_30  and  CG1_31 
REMARK   15  A    between atoms: CB_30  and  CG2_32 
REMARK   16  A    between atoms: N_33  and  CA_34 
REMARK   17  A    between atoms: CA_34  and  C_35 
REMARK   18  A    between atoms: CA_34  and  CB_37 
REMARK   19  A    between atoms: C_35  and  O_36 
REMARK   20  A    between atoms: CB_37  and  CG_38 
REMARK   21  A    between atoms: CG_38  and  CD_39 
REMARK   22  A    between atoms: CD_39  and  NE_40 
REMARK       I    between atoms: NE_40  and  CZ_41 
REMARK       I    between atoms: CZ_41  and  NH1_42 
ROOT
ATOM      1  CA  ARG d   1      -6.475  25.852  72.705  0.00  0.00     0.091 C 
ATOM      2  H   ARG d   1      -6.136  26.738  73.242  0.00  0.00     0.087 H 
ENDROOT
BRANCH   1   3
ATOM      3  N   ARG d   1      -6.224  25.964  71.235  0.00  0.00    -0.330 N 
ATOM      4  C1  FC0 d   1      -5.093  26.485  70.637  0.00  0.00     0.317 C 
ATOM      5  N   FC0 d   1      -5.043  26.566  69.279  0.00  0.00    -0.328 N 
ATOM      6  O1  FC0 d   1      -4.103  26.864  71.301  0.00  0.00    -0.247 OA
ATOM      7  H   FC0 d   1      -5.847  26.265  68.728  0.00  0.00     0.165 HD
ATOM      8  H   ARG d   1      -6.958  25.623  70.615  0.00  0.00     0.165 HD
BRANCH   5   9
ATOM      9  CA  FC0 d   1      -3.827  27.090  68.584  0.00  0.00     0.101 C 
ATOM     10  H   FC0 d   1      -2.943  26.578  68.964  0.00  0.00     0.090 H 
BRANCH   9  11
ATOM     11  CB  FC0 d   1      -3.772  26.779  67.045  0.00  0.00    -0.013 C 
ATOM     12  H   FC0 d   1      -4.579  27.346  66.581  0.00  0.00     0.043 H 
ATOM     13  H   FC0 d   1      -2.769  27.041  66.707  0.00  0.00     0.043 H 
BRANCH  11  14
ATOM     14  CG  FC0 d   1      -3.997  25.284  66.664  0.00  0.00    -0.056 A 
ATOM     15  CD1 FC0 d   1      -3.531  24.254  67.476  0.00  0.00    -0.077 A 
ATOM     16  CE1 FC0 d   1      -3.745  22.906  67.150  0.00  0.00    -0.082 A 
ATOM     17  H   FC0 d   1      -2.986  24.500  68.388  0.00  0.00     0.084 H 
ATOM     18  CZ  FC0 d   1      -4.413  22.574  65.977  0.00  0.00    -0.083 A 
ATOM     19  H   FC0 d   1      -3.388  22.120  67.816  0.00  0.00     0.083 H 
ATOM     20  CE2 FC0 d   1      -4.868  23.596  65.123  0.00  0.00    -0.082 A 
ATOM     21  H   FC0 d   1      -4.583  21.529  65.720  0.00  0.00     0.083 H 
ATOM     22  CD2 FC0 d   1      -4.664  24.947  65.465  0.00  0.00    -0.077 A 
ATOM     23  H   FC0 d   1      -5.380  23.341  64.195  0.00  0.00     0.083 H 
ATOM     24  H   FC0 d   1      -5.022  25.735  64.802  0.00  0.00     0.084 H 
ENDBRANCH  11  14
ENDBRANCH   9  11
BRANCH   9  25
ATOM     25  C   FC0 d   1      -3.776  28.637  68.890  0.00  0.00     0.197 C 
ATOM     26  O   FC0 d   1      -3.564  29.022  70.093  0.00  0.00    -0.646 OA
ATOM     27  OXT FC0 d   1      -4.021  29.391  67.932  0.00  0.00    -0.646 OA
ENDBRANCH   9  25
ENDBRANCH   5   9
ENDBRANCH   1   3
BRANCH   1  28
ATOM     28  C   ARG d   1      -5.752  24.503  73.131  0.00  0.00     0.241 C 
ATOM     29  O   ARG d   1      -6.363  23.478  73.502  0.00  0.00    -0.271 OA
ATOM     30  N   VAL d   1      -4.440  24.479  73.030  0.00  0.00    -0.346 N 
ATOM     31  H   VAL d   1      -3.947  25.337  72.780  0.00  0.00     0.163 HD
BRANCH  30  32
ATOM     32  CA  VAL d   1      -3.667  23.259  73.265  0.00  0.00     0.092 C 
ATOM     33  H   VAL d   1      -4.339  22.413  73.408  0.00  0.00     0.088 H 
BRANCH  32  34
ATOM     34  C   VAL d   1      -2.853  23.404  74.524  0.00  0.00     0.241 C 
ATOM     35  O   VAL d   1      -2.502  24.495  74.943  0.00  0.00    -0.271 OA
ATOM     36  N   RGL d   1      -2.412  22.223  74.977  0.00  0.00    -0.353 N 
ATOM     37  H   RGL d   1      -2.726  21.359  74.535  0.00  0.00     0.163 HD
BRANCH  36  38
ATOM     38  CA  RGL d   1      -1.465  22.168  76.123  0.00  0.00     0.032 C 
ATOM     39  H   RGL d   1      -1.709  22.917  76.876  0.00  0.00     0.075 H 
BRANCH  38  40
ATOM     40  C   RGL d   1      -0.080  22.351  75.432  0.00  0.00     0.035 C 
ATOM     41  H   RGL d   1       0.674  22.364  76.219  0.00  0.00     0.077 H 
ATOM     42  H   RGL d   1      -0.129  23.270  74.849  0.00  0.00     0.077 H 
BRANCH  40  43
ATOM     43  O   RGL d   1       0.271  21.279  74.517  0.00  0.00    -0.399 OA
ATOM     44  H   RGL d   1       1.131  21.458  74.131  0.00  0.00     0.209 HD
ENDBRANCH  40  43
ENDBRANCH  38  40
BRANCH  38  45
ATOM     45  CB  RGL d   1      -1.495  20.825  76.890  0.00  0.00    -0.043 C 
ATOM     46  H   RGL d   1      -0.724  20.764  77.658  0.00  0.00     0.036 H 
ATOM     47  H   RGL d   1      -1.279  19.971  76.248  0.00  0.00     0.036 H 
BRANCH  45  48
ATOM     48  CG  RGL d   1      -2.984  20.778  77.502  0.00  0.00    -0.048 C 
ATOM     49  H   RGL d   1      -3.735  20.795  76.712  0.00  0.00     0.035 H 
ATOM     50  H   RGL d   1      -3.181  21.650  78.126  0.00  0.00     0.035 H 
BRANCH  48  51
ATOM     51  CD  RGL d   1      -3.069  19.463  78.331  0.00  0.00     0.009 C 
ATOM     52  H   RGL d   1      -2.595  19.625  79.299  0.00  0.00     0.064 H 
ATOM     53  H   RGL d   1      -2.563  18.667  77.784  0.00  0.00     0.064 H 
BRANCH  51  54
ATOM     54  NE  RGL d   1      -4.450  19.082  78.543  0.00  0.00    -0.227 N 
ATOM     55  CZ  RGL d   1      -5.200  19.286  79.693  0.00  0.00     0.665 C 
ATOM     56  NH1 RGL d   1      -4.765  20.119  80.680  0.00  0.00    -0.235 N 
ATOM     57  NH2 RGL d   1      -6.357  18.576  79.678  0.00  0.00    -0.235 N 
ATOM     58  H   RGL d   1      -3.874  20.605  80.581  0.00  0.00     0.174 HD
ATOM     59  H   RGL d   1      -5.330  20.256  81.518  0.00  0.00     0.174 HD
ATOM     60  H   RGL d   1      -6.581  17.983  78.879  0.00  0.00     0.174 HD
ATOM     61  H   RGL d   1      -7.002  18.636  80.466  0.00  0.00     0.174 HD
ATOM     62  H   RGL d   1      -4.920  18.616  77.767  0.00  0.00     0.177 HD
ENDBRANCH  51  54
ENDBRANCH  48  51
ENDBRANCH  45  48
ENDBRANCH  38  45
ENDBRANCH  36  38
ENDBRANCH  32  34
BRANCH  32  63
ATOM     63  CB  VAL d   1      -2.760  22.939  71.989  0.00  0.00    -0.033 C 
ATOM     64  H   VAL d   1      -2.094  22.093  72.157  0.00  0.00     0.042 H 
BRANCH  63  65
ATOM     65  CG1 VAL d   1      -3.773  22.552  70.783  0.00  0.00    -0.071 C 
ATOM     66  H   VAL d   1      -4.361  21.680  71.070  0.00  0.00     0.028 H 
ATOM     67  H   VAL d   1      -4.439  23.392  70.586  0.00  0.00     0.028 H 
ATOM     68  H   VAL d   1      -3.197  22.324  69.886  0.00  0.00     0.028 H 
ENDBRANCH  63  65
BRANCH  63  69
ATOM     69  CG2 VAL d   1      -1.770  24.113  71.682  0.00  0.00    -0.071 C 
ATOM     70  H   VAL d   1      -2.337  25.023  71.484  0.00  0.00     0.028 H 
ATOM     71  H   VAL d   1      -1.117  24.270  72.540  0.00  0.00     0.028 H 
ATOM     72  H   VAL d   1      -1.169  23.861  70.808  0.00  0.00     0.028 H 
ENDBRANCH  63  69
ENDBRANCH  32  63
ENDBRANCH  30  32
ENDBRANCH   1  28
BRANCH   1  73
ATOM     73  CB  ARG d   1      -7.967  25.624  72.941  0.00  0.00    -0.036 C 
ATOM     74  H   ARG d   1      -8.101  25.296  73.972  0.00  0.00     0.036 H 
ATOM     75  H   ARG d   1      -8.314  24.880  72.224  0.00  0.00     0.036 H 
BRANCH  73  76
ATOM     76  CG  ARG d   1      -8.780  26.891  72.738  0.00  0.00    -0.048 C 
ATOM     77  H   ARG d   1      -8.588  27.287  71.741  0.00  0.00     0.035 H 
ATOM     78  H   ARG d   1      -8.493  27.628  73.488  0.00  0.00     0.035 H 
BRANCH  76  79
ATOM     79  CD  ARG d   1     -10.334  26.564  72.886  0.00  0.00     0.009 C 
ATOM     80  H   ARG d   1     -10.540  25.812  72.124  0.00  0.00     0.064 H 
ATOM     81  H   ARG d   1     -10.836  27.529  72.815  0.00  0.00     0.064 H 
BRANCH  79  82
ATOM     82  NE  ARG d   1     -10.852  25.925  74.253  0.00  0.00    -0.227 N 
ATOM     83  CZ  ARG d   1     -11.195  24.779  75.058  0.00  0.00     0.665 C 
ATOM     84  NH1 ARG d   1     -11.620  23.351  74.790  0.00  0.00    -0.235 N 
ATOM     85  NH2 ARG d   1     -11.346  25.320  76.339  0.00  0.00    -0.235 N 
ATOM     86  H   ARG d   1     -11.717  23.019  73.830  0.00  0.00     0.174 HD
ATOM     87  H   ARG d   1     -11.809  22.721  75.569  0.00  0.00     0.174 HD
ATOM     88  H   ARG d   1     -11.208  26.319  76.490  0.00  0.00     0.174 HD
ATOM     89  H   ARG d   1     -11.595  24.715  77.122  0.00  0.00     0.174 HD
ATOM     90  H   ARG d   1     -11.028  26.726  74.859  0.00  0.00     0.177 HD
ENDBRANCH  79  82
ENDBRANCH  76  79
ENDBRANCH  73  76
ENDBRANCH   1  73
TORSDOF 22
