REMARK  2 active torsions:
REMARK  status: ('A' for Active; 'I' for Inactive)
REMARK    1  A    between atoms: C7_7  and  C4_8 
REMARK    2  A    between atoms: C3_12  and  O12_17 
ROOT
ATOM      1  C4  IA2 d   1      25.388  47.741  26.522  0.00  0.00     0.029 A 
ATOM      2  C5  IA2 d   1      25.858  47.499  25.143  0.00  0.00    -0.047 A 
ATOM      3  C6  IA2 d   1      24.964  47.592  24.009  0.00  0.00     0.036 A 
ATOM      4 CL13 IA2 d   1      25.539  47.305  22.402  0.00  0.00    -0.084 Cl
ATOM      5  C3  IA2 d   1      23.949  48.093  26.721  0.00  0.00     0.100 A 
ATOM      6  C2  IA2 d   1      23.083  48.172  25.541  0.00  0.00     0.069 A 
ATOM      7 CL14 IA2 d   1      21.412  48.564  25.694  0.00  0.00    -0.081 Cl
ATOM      8  C1  IA2 d   1      23.581  47.927  24.213  0.00  0.00    -0.038 A 
ATOM      9  H1  IA2 d   1      26.899  47.245  24.976  0.00  0.00     0.087 H 
ATOM     10  H3  IA2 d   1      22.911  47.995  23.364  0.00  0.00     0.088 H 
ENDROOT
BRANCH   1  11
ATOM     11  C7  IA2 d   1      26.468  47.592  27.613  0.00  0.00     0.070 A 
ATOM     12  C8  IA2 d   1      26.517  47.628  29.061  0.00  0.00     0.086 A 
ATOM     13  C9  IA2 d   1      27.874  47.403  29.465  0.00  0.00     0.096 A 
ATOM     14 CL16 IA2 d   1      25.225  47.886  30.207  0.00  0.00    -0.080 Cl
ATOM     15  C10 IA2 d   1      28.646  47.233  28.297  0.00  0.00     0.127 A 
ATOM     16 CL17 IA2 d   1      28.454  47.350  31.111  0.00  0.00    -0.079 Cl
ATOM     17 CL18 IA2 d   1      30.345  46.930  28.136  0.00  0.00    -0.063 Cl
ATOM     18  N1  IA2 d   1      27.792  47.351  27.245  0.00  0.00    -0.343 N 
ATOM     19  H2  IA2 d   1      28.096  47.270  26.264  0.00  0.00     0.167 HD
ENDBRANCH   1  11
BRANCH   5  20
ATOM     20  O12 IA2 d   1      23.419  48.335  27.950  0.00  0.00    -0.358 OA
ATOM     21  H4  IA2 d   1      24.097  48.247  28.609  0.00  0.00     0.217 HD
ENDBRANCH   5  20
TORSDOF 2
