REMARK  2 active torsions:
REMARK  status: ('A' for Active; 'I' for Inactive)
REMARK    1  A    between atoms: CAR_9  and  CAS_10 
REMARK    2  A    between atoms: CAQ_18  and  CAP_19 
ROOT
ATOM      1  CAS YVQ d   1       2.956  -4.049  18.948  0.00  0.00     0.070 A 
ATOM      2  CAD YVQ d   1       2.893  -2.974  19.716  0.00  0.00     0.032 A 
ATOM      3  NAM YVQ d   1       4.107  -2.443  19.827  0.00  0.00    -0.239 NA
ATOM      4  CAT YVQ d   1       4.968  -3.156  19.113  0.00  0.00     0.151 A 
ATOM      5  CAG YVQ d   1       6.328  -3.030  18.890  0.00  0.00     0.048 A 
ATOM      6  NAL YVQ d   1       6.963  -3.890  18.120  0.00  0.00    -0.255 NA
ATOM      7  NAW YVQ d   1       4.271  -4.186  18.516  0.00  0.00    -0.301 N 
ATOM      8  CAJ YVQ d   1       4.963  -5.093  17.714  0.00  0.00     0.016 A 
ATOM      9  CAQ YVQ d   1       6.332  -4.916  17.536  0.00  0.00     0.085 A 
ATOM     10  H   YVQ d   1       1.989  -2.585  20.184  0.00  0.00     0.118 H 
ATOM     11  H   YVQ d   1       6.878  -2.212  19.355  0.00  0.00     0.120 H 
ATOM     12  H   YVQ d   1       4.443  -5.923  17.236  0.00  0.00     0.116 H 
ENDROOT
BRANCH   1  13
ATOM     13  CAR YVQ d   1       1.903  -4.864  18.558  0.00  0.00     0.020 A 
ATOM     14  CAV YVQ d   1       0.638  -4.730  19.087  0.00  0.00     0.004 A 
ATOM     15  CAF YVQ d   1       0.106  -3.928  20.081  0.00  0.00    -0.070 A 
ATOM     16  CAU YVQ d   1      -0.143  -5.674  18.450  0.00  0.00     0.043 A 
ATOM     17  CAB YVQ d   1      -1.229  -4.062  20.421  0.00  0.00    -0.082 A 
ATOM     18  H   YVQ d   1       0.733  -3.197  20.592  0.00  0.00     0.084 H 
ATOM     19  CAA YVQ d   1      -2.020  -5.000  19.778  0.00  0.00    -0.081 A 
ATOM     20  H   YVQ d   1      -1.659  -3.428  21.197  0.00  0.00     0.083 H 
ATOM     21  CAE YVQ d   1      -1.479  -5.809  18.791  0.00  0.00    -0.056 A 
ATOM     22  H   YVQ d   1      -3.071  -5.102  20.049  0.00  0.00     0.083 H 
ATOM     23  H   YVQ d   1      -2.101  -6.548  18.286  0.00  0.00     0.086 H 
ATOM     24  NAO YVQ d   1       0.623  -6.297  17.561  0.00  0.00    -0.364 N 
ATOM     25  CAI YVQ d   1       1.858  -5.799  17.619  0.00  0.00    -0.009 A 
ATOM     26  H   YVQ d   1       0.315  -7.039  16.933  0.00  0.00     0.165 HD
ATOM     27  H   YVQ d   1       2.696  -6.110  16.995  0.00  0.00     0.112 H 
ENDBRANCH   1  13
BRANCH   9  28
ATOM     28  CAP YVQ d   1       7.066  -5.777  16.729  0.00  0.00     0.030 A 
ATOM     29  CAC YVQ d   1       8.346  -5.660  16.425  0.00  0.00     0.035 A 
ATOM     30  NAK YVQ d   1       8.663  -6.669  15.623  0.00  0.00    -0.187 NA
ATOM     31  H   YVQ d   1       9.020  -4.876  16.770  0.00  0.00     0.118 H 
ATOM     32  NAN YVQ d   1       7.669  -7.366  15.425  0.00  0.00    -0.289 N 
ATOM     33  CAH YVQ d   1       6.637  -6.852  16.087  0.00  0.00     0.009 A 
ATOM     34  H   YVQ d   1       7.641  -8.205  14.845  0.00  0.00     0.188 HD
ATOM     35  H   YVQ d   1       5.620  -7.245  16.099  0.00  0.00     0.115 H 
ENDBRANCH   9  28
TORSDOF 2
