REMARK  2 active torsions:
REMARK  status: ('A' for Active; 'I' for Inactive)
REMARK    1  A    between atoms: CAN_5  and  CAP_6 
REMARK    2  A    between atoms: CAQ_14  and  CAO_15 
ROOT
ATOM      1  CAP XEZ d   1      13.530  -1.628  11.078  0.00  0.00     0.085 A 
ATOM      2  CAG XEZ d   1      14.889  -1.850  10.950  0.00  0.00     0.016 A 
ATOM      3  NAS XEZ d   1      15.629  -0.982  10.173  0.00  0.00    -0.300 N 
ATOM      4  NAI XEZ d   1      12.950  -0.588  10.466  0.00  0.00    -0.255 NA
ATOM      5  CAE XEZ d   1      13.644   0.250   9.717  0.00  0.00     0.048 A 
ATOM      6  CAR XEZ d   1      15.011   0.079   9.548  0.00  0.00     0.151 A 
ATOM      7  NAJ XEZ d   1      15.946   0.746   8.875  0.00  0.00    -0.239 NA
ATOM      8  CAD XEZ d   1      17.127   0.151   9.052  0.00  0.00     0.033 A 
ATOM      9  CAQ XEZ d   1      16.957  -0.904   9.838  0.00  0.00     0.086 A 
ATOM     10  H   XEZ d   1      15.365  -2.692  11.452  0.00  0.00     0.116 H 
ATOM     11  H   XEZ d   1      13.139   1.083   9.228  0.00  0.00     0.120 H 
ATOM     12  H   XEZ d   1      18.074   0.477   8.622  0.00  0.00     0.118 H 
ENDROOT
BRANCH   1  13
ATOM     13  CAN XEZ d   1      12.776  -2.492  11.855  0.00  0.00     0.030 A 
ATOM     14  CAC XEZ d   1      13.221  -3.550  12.507  0.00  0.00     0.035 A 
ATOM     15  NAH XEZ d   1      12.180  -4.097  13.121  0.00  0.00    -0.187 NA
ATOM     16  H   XEZ d   1      14.250  -3.907  12.536  0.00  0.00     0.118 H 
ATOM     17  NAM XEZ d   1      11.167  -3.441  12.879  0.00  0.00    -0.289 N 
ATOM     18  CAF XEZ d   1      11.478  -2.421  12.090  0.00  0.00     0.009 A 
ATOM     19  H   XEZ d   1      10.233  -3.650  13.231  0.00  0.00     0.188 HD
ATOM     20  H   XEZ d   1      10.791  -1.666  11.707  0.00  0.00     0.115 H 
ENDBRANCH   1  13
BRANCH   9  21
ATOM     21  CAO XEZ d   1      17.876  -1.816  10.316  0.00  0.00     0.080 A 
ATOM     22  CAB XEZ d   1      17.607  -2.823  11.124  0.00  0.00    -0.035 A 
ATOM     23  CAA XEZ d   1      18.757  -3.431  11.348  0.00  0.00     0.024 A 
ATOM     24  H   XEZ d   1      16.632  -3.098  11.526  0.00  0.00     0.089 H 
ATOM     25  NAL XEZ d   1      19.689  -2.771  10.676  0.00  0.00    -0.187 NA
ATOM     26  H   XEZ d   1      18.911  -4.312  11.970  0.00  0.00     0.117 H 
ATOM     27  NAK XEZ d   1      19.176  -1.831  10.076  0.00  0.00    -0.276 N 
ATOM     28  H   XEZ d   1      19.674  -1.166   9.485  0.00  0.00     0.189 HD
ENDBRANCH   9  21
TORSDOF 2
