REMARK  2 active torsions:
REMARK  status: ('A' for Active; 'I' for Inactive)
REMARK    1  A    between atoms: C14_11  and  C13_10 
REMARK    2  A    between atoms: C20_16  and  CAO_17 
ROOT
ATOM      1  C14 4UB d   1      10.951  -3.418   8.272  0.00  0.00     0.085 A 
ATOM      2  C15 4UB d   1      12.304  -3.660   8.080  0.00  0.00     0.016 A 
ATOM      3  C17 4UB d   1      12.366  -1.728   6.670  0.00  0.00     0.151 A 
ATOM      4  N18 4UB d   1      13.258  -1.061   5.944  0.00  0.00    -0.239 NA
ATOM      5  C19 4UB d   1      14.447  -1.651   6.044  0.00  0.00     0.032 A 
ATOM      6  C20 4UB d   1      14.331  -2.712   6.832  0.00  0.00     0.068 A 
ATOM      7  NAT 4UB d   1      13.016  -2.793   7.260  0.00  0.00    -0.301 N 
ATOM      8  C22 4UB d   1      11.014  -1.539   6.907  0.00  0.00     0.048 A 
ATOM      9  N23 4UB d   1      10.353  -2.369   7.692  0.00  0.00    -0.255 NA
ATOM     10  H   4UB d   1      12.795  -4.507   8.559  0.00  0.00     0.116 H 
ATOM     11  H   4UB d   1      15.364  -1.318   5.559  0.00  0.00     0.118 H 
ATOM     12  H   4UB d   1      10.494  -0.701   6.443  0.00  0.00     0.120 H 
ENDROOT
BRANCH   6  13
ATOM     13  CAO 4UB d   1      15.317  -3.603   7.223  0.00  0.00    -0.007 A 
ATOM     14  C1  4UB d   1      15.025  -4.619   8.119  0.00  0.00    -0.071 A 
ATOM     15  C2  4UB d   1      16.023  -5.497   8.516  0.00  0.00    -0.082 A 
ATOM     16  H   4UB d   1      14.014  -4.728   8.511  0.00  0.00     0.084 H 
ATOM     17  C3  4UB d   1      17.313  -5.358   8.024  0.00  0.00    -0.083 A 
ATOM     18  H   4UB d   1      15.793  -6.299   9.217  0.00  0.00     0.083 H 
ATOM     19  C4  4UB d   1      17.607  -4.335   7.133  0.00  0.00    -0.082 A 
ATOM     20  H   4UB d   1      18.094  -6.051   8.337  0.00  0.00     0.083 H 
ATOM     21  C5  4UB d   1      16.607  -3.456   6.737  0.00  0.00    -0.071 A 
ATOM     22  H   4UB d   1      18.619  -4.222   6.745  0.00  0.00     0.083 H 
ATOM     23  H   4UB d   1      16.837  -2.648   6.042  0.00  0.00     0.084 H 
ENDBRANCH   6  13
BRANCH   1  24
ATOM     24  C13 4UB d   1      10.198  -4.248   9.088  0.00  0.00     0.030 A 
ATOM     25  C8  4UB d   1      10.613  -5.328   9.728  0.00  0.00     0.035 A 
ATOM     26  N9  4UB d   1       9.571  -5.805  10.401  0.00  0.00    -0.187 NA
ATOM     27  H   4UB d   1      11.619  -5.747   9.707  0.00  0.00     0.118 H 
ATOM     28  N10 4UB d   1       8.589  -5.087  10.210  0.00  0.00    -0.289 N 
ATOM     29  C12 4UB d   1       8.920  -4.092   9.397  0.00  0.00     0.009 A 
ATOM     30  H   4UB d   1       7.664  -5.234  10.614  0.00  0.00     0.188 HD
ATOM     31  H   4UB d   1       8.263  -3.295   9.049  0.00  0.00     0.115 H 
ENDBRANCH   1  24
TORSDOF 2
