REMARK  16 active torsions:
REMARK  status: ('A' for Active; 'I' for Inactive)
REMARK    1  A    between atoms: C1_1  and  C2_2 
REMARK    2  A    between atoms: C2_2  and  N3_3 
REMARK    3  A    between atoms: C2_2  and  C35_35 
REMARK    4  A    between atoms: N3_3  and  C4_4 
REMARK    5  A    between atoms: C4_4  and  C5_5 
REMARK    6  A    between atoms: C5_5  and  O6_6 
REMARK    7  A    between atoms: C5_5  and  C7_7 
REMARK    8  A    between atoms: C7_7  and  C8_8 
REMARK    9  A    between atoms: C7_7  and  N15_15 
REMARK   10  A    between atoms: C8_8  and  C9_9 
REMARK       I    between atoms: N15_15  and  C16_16 
REMARK   11  A    between atoms: C16_16  and  C18_18 
REMARK   12  A    between atoms: C22_22  and  N24_24 
REMARK   13  A    between atoms: N24_24  and  C25_25 
REMARK   14  A    between atoms: N24_24  and  S31_31 
REMARK   15  A    between atoms: S31_31  and  C32_32 
REMARK       I    between atoms: C35_35  and  N37_37 
REMARK   16  A    between atoms: N37_37  and  C38_38 
ROOT
ATOM      1  C7  XFI d   1      29.021   2.367  32.728  0.00  0.00     0.042 C 
ATOM      2  H11 XFI d   1      30.002   2.738  32.397  0.00  0.00     0.077 H 
ENDROOT
BRANCH   1   3
ATOM      3  C5  XFI d   1      28.211   3.567  33.197  0.00  0.00     0.078 C 
ATOM      4  H9  XFI d   1      27.290   3.197  33.671  0.00  0.00     0.088 H 
BRANCH   3   5
ATOM      5  C4  XFI d   1      28.986   4.433  34.191  0.00  0.00     0.108 C 
ATOM      6  H7  XFI d   1      29.236   3.840  35.083  0.00  0.00     0.079 H 
ATOM      7  H8  XFI d   1      29.912   4.797  33.722  0.00  0.00     0.079 H 
BRANCH   5   8
ATOM      8  N3  XFI d   1      28.141   5.579  34.577  0.00  0.00    -0.060 N 
ATOM      9  H5  XFI d   1      27.620   5.880  33.769  0.00  0.00     0.278 HD
ATOM     10  H6  XFI d   1      27.502   5.279  35.296  0.00  0.00     0.278 HD
BRANCH   8  11
ATOM     11  C2  XFI d   1      28.923   6.731  35.091  0.00  0.00     0.174 C 
ATOM     12  H4  XFI d   1      28.230   7.566  35.274  0.00  0.00     0.099 H 
BRANCH  11  13
ATOM     13  C1  XFI d   1      29.607   6.381  36.401  0.00  0.00    -0.041 C 
ATOM     14  H1  XFI d   1      30.178   7.250  36.760  0.00  0.00     0.030 H 
ATOM     15  H2  XFI d   1      30.290   5.533  36.243  0.00  0.00     0.030 H 
ATOM     16  H3  XFI d   1      28.848   6.107  37.149  0.00  0.00     0.030 H 
ENDBRANCH  11  13
BRANCH  11  17
ATOM     17  C35 XFI d   1      29.947   7.173  34.061  0.00  0.00     0.248 C 
ATOM     18  O36 XFI d   1      31.144   6.898  34.121  0.00  0.00    -0.271 OA
ATOM     19  N37 XFI d   1      29.399   7.933  33.052  0.00  0.00    -0.355 N 
ATOM     20  H32 XFI d   1      28.425   8.159  33.064  0.00  0.00     0.162 HD
BRANCH  19  21
ATOM     21  C38 XFI d   1      30.254   8.409  31.961  0.00  0.00     0.012 C 
ATOM     22  C39 XFI d   1      29.513   8.247  30.657  0.00  0.00    -0.046 C 
ATOM     23  C40 XFI d   1      30.316   8.741  29.456  0.00  0.00    -0.063 C 
ATOM     24  H34 XFI d   1      28.575   8.819  30.712  0.00  0.00     0.035 H 
ATOM     25  H35 XFI d   1      29.284   7.181  30.513  0.00  0.00     0.035 H 
ATOM     26  C41 XFI d   1      30.694  10.197  29.649  0.00  0.00    -0.065 C 
ATOM     27  H36 XFI d   1      29.708   8.640  28.545  0.00  0.00     0.033 H 
ATOM     28  H37 XFI d   1      31.230   8.137  29.356  0.00  0.00     0.033 H 
ATOM     29  C42 XFI d   1      31.473  10.329  30.952  0.00  0.00    -0.063 C 
ATOM     30  H38 XFI d   1      29.784  10.813  29.698  0.00  0.00     0.033 H 
ATOM     31  H39 XFI d   1      31.319  10.532  28.808  0.00  0.00     0.033 H 
ATOM     32  C43 XFI d   1      30.613   9.870  32.131  0.00  0.00    -0.046 C 
ATOM     33  H40 XFI d   1      31.759  11.381  31.099  0.00  0.00     0.033 H 
ATOM     34  H41 XFI d   1      32.378   9.707  30.899  0.00  0.00     0.033 H 
ATOM     35  H42 XFI d   1      31.175  10.002  33.067  0.00  0.00     0.035 H 
ATOM     36  H43 XFI d   1      29.692  10.471  32.168  0.00  0.00     0.035 H 
ATOM     37  H33 XFI d   1      31.177   7.811  31.940  0.00  0.00     0.072 H 
ENDBRANCH  19  21
ENDBRANCH  11  17
ENDBRANCH   8  11
ENDBRANCH   5   8
ENDBRANCH   3   5
BRANCH   3  38
ATOM     38  O6  XFI d   1      27.875   4.443  32.115  0.00  0.00    -0.392 OA
ATOM     39  H10 XFI d   1      27.388   3.960  31.458  0.00  0.00     0.210 HD
ENDBRANCH   3  38
ENDBRANCH   1   3
BRANCH   1  40
ATOM     40  C8  XFI d   1      28.378   1.643  31.549  0.00  0.00    -0.020 C 
ATOM     41  H12 XFI d   1      28.465   2.278  30.655  0.00  0.00     0.043 H 
ATOM     42  H13 XFI d   1      27.315   1.472  31.776  0.00  0.00     0.043 H 
BRANCH  40  43
ATOM     43  C9  XFI d   1      29.033   0.313  31.265  0.00  0.00    -0.056 A 
ATOM     44  C10 XFI d   1      30.400   0.203  31.056  0.00  0.00    -0.077 A 
ATOM     45  C11 XFI d   1      30.970  -1.034  30.803  0.00  0.00    -0.082 A 
ATOM     46  H14 XFI d   1      31.024   1.088  31.091  0.00  0.00     0.084 H 
ATOM     47  C12 XFI d   1      30.181  -2.170  30.753  0.00  0.00    -0.083 A 
ATOM     48  H15 XFI d   1      32.039  -1.113  30.643  0.00  0.00     0.083 H 
ATOM     49  C13 XFI d   1      28.822  -2.065  30.957  0.00  0.00    -0.082 A 
ATOM     50  H16 XFI d   1      30.629  -3.137  30.555  0.00  0.00     0.083 H 
ATOM     51  C14 XFI d   1      28.252  -0.830  31.211  0.00  0.00    -0.077 A 
ATOM     52  H17 XFI d   1      28.199  -2.951  30.918  0.00  0.00     0.083 H 
ATOM     53  H18 XFI d   1      27.182  -0.756  31.369  0.00  0.00     0.084 H 
ENDBRANCH  40  43
ENDBRANCH   1  40
BRANCH   1  54
ATOM     54  N15 XFI d   1      29.237   1.427  33.834  0.00  0.00    -0.349 N 
ATOM     55  C16 XFI d   1      30.447   1.353  34.468  0.00  0.00     0.252 C 
ATOM     56  O17 XFI d   1      31.361   2.164  34.317  0.00  0.00    -0.268 OA
ATOM     57  H19 XFI d   1      28.489   0.832  34.128  0.00  0.00     0.163 HD
BRANCH  55  58
ATOM     58  C18 XFI d   1      30.568   0.192  35.370  0.00  0.00     0.034 A 
ATOM     59  C19 XFI d   1      30.022  -1.027  35.012  0.00  0.00    -0.068 A 
ATOM     60  C20 XFI d   1      30.126  -2.113  35.871  0.00  0.00    -0.080 A 
ATOM     61  H20 XFI d   1      29.513  -1.135  34.061  0.00  0.00     0.085 H 
ATOM     62  C21 XFI d   1      30.785  -1.978  37.086  0.00  0.00    -0.056 A 
ATOM     63  H21 XFI d   1      29.692  -3.067  35.593  0.00  0.00     0.083 H 
ATOM     64  C22 XFI d   1      31.330  -0.747  37.424  0.00  0.00     0.051 A 
ATOM     65  H22 XFI d   1      30.872  -2.822  37.761  0.00  0.00     0.087 H 
ATOM     66  C23 XFI d   1      31.222   0.340  36.575  0.00  0.00    -0.041 A 
ATOM     67  H23 XFI d   1      31.647   1.298  36.854  0.00  0.00     0.088 H 
BRANCH  64  68
ATOM     68  N24 XFI d   1      32.028  -0.549  38.663  0.00  0.00    -0.240 N 
BRANCH  68  69
ATOM     69  C25 XFI d   1      33.366  -0.039  38.607  0.00  0.00     0.050 A 
ATOM     70  C26 XFI d   1      34.344  -0.807  38.015  0.00  0.00    -0.056 A 
ATOM     71  C27 XFI d   1      35.628  -0.300  37.958  0.00  0.00    -0.081 A 
ATOM     72  H24 XFI d   1      34.112  -1.783  37.605  0.00  0.00     0.087 H 
ATOM     73  C28 XFI d   1      35.904   0.937  38.493  0.00  0.00    -0.083 A 
ATOM     74  H25 XFI d   1      36.418  -0.877  37.492  0.00  0.00     0.083 H 
ATOM     75  C29 XFI d   1      34.916   1.693  39.081  0.00  0.00    -0.081 A 
ATOM     76  H26 XFI d   1      36.916   1.322  38.451  0.00  0.00     0.083 H 
ATOM     77  C30 XFI d   1      33.629   1.206  39.141  0.00  0.00    -0.056 A 
ATOM     78  H27 XFI d   1      35.150   2.667  39.495  0.00  0.00     0.083 H 
ATOM     79  H28 XFI d   1      32.838   1.789  39.599  0.00  0.00     0.087 H 
ENDBRANCH  68  69
BRANCH  68  80
ATOM     80  S31 XFI d   1      31.515  -1.249  40.112  0.00  0.00     0.233 S 
ATOM     81  O33 XFI d   1      30.133  -1.625  39.961  0.00  0.00    -0.206 OA
ATOM     82  O34 XFI d   1      31.971  -0.425  41.207  0.00  0.00    -0.206 OA
BRANCH  80  83
ATOM     83  C32 XFI d   1      32.464  -2.743  40.198  0.00  0.00     0.033 C 
ATOM     84  H29 XFI d   1      32.206  -3.288  41.118  0.00  0.00     0.051 H 
ATOM     85  H30 XFI d   1      33.536  -2.497  40.206  0.00  0.00     0.051 H 
ATOM     86  H31 XFI d   1      32.239  -3.372  39.324  0.00  0.00     0.051 H 
ENDBRANCH  80  83
ENDBRANCH  68  80
ENDBRANCH  64  68
ENDBRANCH  55  58
ENDBRANCH   1  54
TORSDOF 16
