REMARK  16 active torsions:
REMARK  status: ('A' for Active; 'I' for Inactive)
REMARK    1  A    between atoms: C1_1  and  N77_36 
REMARK    2  A    between atoms: C3_3  and  C7_7 
REMARK    3  A    between atoms: C5_5  and  N1_33 
REMARK       I    between atoms: C7_7  and  N8_8 
REMARK    4  A    between atoms: N8_8  and  C10_10 
REMARK    5  A    between atoms: C10_10  and  C11_11 
REMARK    6  A    between atoms: C10_10  and  C12_12 
REMARK    7  A    between atoms: C11_11  and  C14_14 
REMARK    8  A    between atoms: C12_12  and  O13_13 
REMARK    9  A    between atoms: C12_12  and  C15_15 
REMARK   10  A    between atoms: C15_15  and  N16_16 
REMARK   11  A    between atoms: N16_16  and  C17_17 
REMARK   12  A    between atoms: C17_17  and  C18_18 
REMARK   13  A    between atoms: C17_17  and  C22_22 
REMARK       I    between atoms: C18_18  and  N19_19 
REMARK   14  A    between atoms: N19_19  and  C21_21 
REMARK   15  A    between atoms: N1_33  and  C67_34 
REMARK   16  A    between atoms: C67_34  and  C68_35 
ROOT
ATOM      1  C10 VG5 d   1      28.919   2.376  32.642  0.00  0.00     0.042 C 
ATOM      2  H5  VG5 d   1      29.886   2.741  32.265  0.00  0.00     0.077 H 
ENDROOT
BRANCH   1   3
ATOM      3  N8  VG5 d   1      29.155   1.469  33.762  0.00  0.00    -0.349 N 
ATOM      4  C7  VG5 d   1      30.396   1.319  34.313  0.00  0.00     0.252 C 
ATOM      5  O9  VG5 d   1      31.336   2.103  34.163  0.00  0.00    -0.268 OA
ATOM      6  H4  VG5 d   1      28.389   0.945  34.135  0.00  0.00     0.163 HD
BRANCH   4   7
ATOM      7  C3  VG5 d   1      30.496   0.120  35.178  0.00  0.00     0.036 A 
ATOM      8  C2  VG5 d   1      31.100   0.267  36.417  0.00  0.00    -0.042 A 
ATOM      9  C1  VG5 d   1      31.215  -0.816  37.262  0.00  0.00     0.040 A 
ATOM     10  H1  VG5 d   1      31.482   1.234  36.722  0.00  0.00     0.088 H 
ATOM     11  C6  VG5 d   1      30.711  -2.043  36.897  0.00  0.00    -0.032 A 
ATOM     12  C5  VG5 d   1      30.082  -2.196  35.656  0.00  0.00     0.031 A 
ATOM     13  H3  VG5 d   1      30.801  -2.889  37.569  0.00  0.00     0.090 H 
ATOM     14  C4  VG5 d   1      29.984  -1.110  34.791  0.00  0.00    -0.042 A 
ATOM     15  H2  VG5 d   1      29.511  -1.224  33.822  0.00  0.00     0.088 H 
BRANCH   9  16
ATOM     16  N77 VG5 d   1      31.858  -0.661  38.511  0.00  0.00    -0.318 N 
ATOM     17  C78 VG5 d   1      33.137   0.001  38.571  0.00  0.00     0.003 A 
ATOM     18  C79 VG5 d   1      33.593  -0.208  40.004  0.00  0.00    -0.042 A 
ATOM     19  H41 VG5 d   1      33.033   1.073  38.346  0.00  0.00     0.065 H 
ATOM     20  H42 VG5 d   1      33.846  -0.455  37.865  0.00  0.00     0.065 H 
ATOM     21  C80 VG5 d   1      32.472  -0.906  40.735  0.00  0.00     0.011 A 
ATOM     22  H43 VG5 d   1      33.804   0.762  40.477  0.00  0.00     0.036 H 
ATOM     23  H44 VG5 d   1      34.500  -0.830  40.023  0.00  0.00     0.036 H 
ATOM     24  C81 VG5 d   1      31.402  -1.139  39.703  0.00  0.00     0.224 A 
ATOM     25  H45 VG5 d   1      32.090  -0.272  41.548  0.00  0.00     0.047 H 
ATOM     26  H46 VG5 d   1      32.821  -1.863  41.150  0.00  0.00     0.047 H 
ATOM     27  O88 VG5 d   1      30.318  -1.655  39.925  0.00  0.00    -0.273 OA
ENDBRANCH   9  16
BRANCH  12  28
ATOM     28  N1  VG5 d   1      29.610  -3.489  35.384  0.00  0.00    -0.390 N 
ATOM     29  H35 VG5 d   1      29.633  -4.244  36.084  0.00  0.00     0.159 HD
BRANCH  28  30
ATOM     30  C67 VG5 d   1      29.085  -3.686  34.037  0.00  0.00    -0.011 C 
ATOM     31  H36 VG5 d   1      29.459  -4.637  33.630  0.00  0.00     0.063 H 
ATOM     32  H37 VG5 d   1      29.409  -2.858  33.390  0.00  0.00     0.063 H 
BRANCH  30  33
ATOM     33  C68 VG5 d   1      27.585  -3.720  34.098  0.00  0.00    -0.061 C 
ATOM     34  H38 VG5 d   1      27.180  -3.868  33.086  0.00  0.00     0.029 H 
ATOM     35  H39 VG5 d   1      27.213  -2.769  34.506  0.00  0.00     0.029 H 
ATOM     36  H40 VG5 d   1      27.263  -4.548  34.747  0.00  0.00     0.029 H 
ENDBRANCH  30  33
ENDBRANCH  28  30
ENDBRANCH  12  28
ENDBRANCH   4   7
ENDBRANCH   1   3
BRANCH   1  37
ATOM     37  C11 VG5 d   1      28.215   1.628  31.505  0.00  0.00    -0.020 C 
ATOM     38  H6  VG5 d   1      28.190   2.271  30.613  0.00  0.00     0.043 H 
ATOM     39  H7  VG5 d   1      27.187   1.389  31.814  0.00  0.00     0.043 H 
BRANCH  37  40
ATOM     40  C14 VG5 d   1      28.939   0.347  31.169  0.00  0.00    -0.056 A 
ATOM     41  C56 VG5 d   1      30.311   0.330  30.971  0.00  0.00    -0.077 A 
ATOM     42  C57 VG5 d   1      30.929  -0.878  30.684  0.00  0.00    -0.082 A 
ATOM     43  H30 VG5 d   1      30.890   1.244  31.039  0.00  0.00     0.084 H 
ATOM     44  C58 VG5 d   1      30.195  -2.049  30.582  0.00  0.00    -0.083 A 
ATOM     45  H31 VG5 d   1      32.003  -0.907  30.537  0.00  0.00     0.083 H 
ATOM     46  C59 VG5 d   1      28.829  -2.025  30.774  0.00  0.00    -0.082 A 
ATOM     47  H32 VG5 d   1      30.694  -2.983  30.352  0.00  0.00     0.083 H 
ATOM     48  C60 VG5 d   1      28.211  -0.823  31.074  0.00  0.00    -0.077 A 
ATOM     49  H33 VG5 d   1      28.247  -2.936  30.691  0.00  0.00     0.083 H 
ATOM     50  H34 VG5 d   1      27.140  -0.800  31.237  0.00  0.00     0.084 H 
ENDBRANCH  37  40
ENDBRANCH   1  37
BRANCH   1  51
ATOM     51  C12 VG5 d   1      28.115   3.575  33.158  0.00  0.00     0.078 C 
ATOM     52  H8  VG5 d   1      27.212   3.200  33.662  0.00  0.00     0.088 H 
BRANCH  51  53
ATOM     53  O13 VG5 d   1      27.751   4.447  32.075  0.00  0.00    -0.392 OA
ATOM     54  H9  VG5 d   1      27.221   3.968  31.449  0.00  0.00     0.210 HD
ENDBRANCH  51  53
BRANCH  51  55
ATOM     55  C15 VG5 d   1      28.919   4.462  34.127  0.00  0.00     0.108 C 
ATOM     56  H10 VG5 d   1      29.810   4.855  33.615  0.00  0.00     0.079 H 
ATOM     57  H11 VG5 d   1      29.229   3.869  35.000  0.00  0.00     0.079 H 
BRANCH  55  58
ATOM     58  N16 VG5 d   1      28.069   5.580  34.567  0.00  0.00    -0.060 N 
ATOM     59  H12 VG5 d   1      27.489   5.258  35.326  0.00  0.00     0.278 HD
ATOM     60  H13 VG5 d   1      27.486   5.859  33.794  0.00  0.00     0.278 HD
BRANCH  58  61
ATOM     61  C17 VG5 d   1      28.832   6.769  35.031  0.00  0.00     0.174 C 
ATOM     62  H14 VG5 d   1      28.116   7.593  35.163  0.00  0.00     0.099 H 
BRANCH  61  63
ATOM     63  C18 VG5 d   1      29.870   7.215  34.019  0.00  0.00     0.248 C 
ATOM     64  N19 VG5 d   1      29.328   7.927  32.984  0.00  0.00    -0.355 N 
ATOM     65  H15 VG5 d   1      28.352   8.145  32.988  0.00  0.00     0.162 HD
ATOM     66  O20 VG5 d   1      31.072   6.975  34.113  0.00  0.00    -0.271 OA
BRANCH  64  67
ATOM     67  C21 VG5 d   1      30.169   8.371  31.871  0.00  0.00     0.012 C 
ATOM     68  C23 VG5 d   1      29.372   8.313  30.588  0.00  0.00    -0.046 C 
ATOM     69  C24 VG5 d   1      30.163   8.823  29.393  0.00  0.00    -0.063 C 
ATOM     70  H20 VG5 d   1      28.469   8.931  30.704  0.00  0.00     0.035 H 
ATOM     71  H21 VG5 d   1      29.080   7.269  30.400  0.00  0.00     0.035 H 
ATOM     72  C25 VG5 d   1      30.693  10.230  29.638  0.00  0.00    -0.065 C 
ATOM     73  H22 VG5 d   1      29.508   8.836  28.509  0.00  0.00     0.033 H 
ATOM     74  H23 VG5 d   1      31.012   8.147  29.211  0.00  0.00     0.033 H 
ATOM     75  C26 VG5 d   1      31.484  10.285  30.942  0.00  0.00    -0.063 C 
ATOM     76  H24 VG5 d   1      29.847  10.930  29.698  0.00  0.00     0.033 H 
ATOM     77  H25 VG5 d   1      31.349  10.520  28.804  0.00  0.00     0.033 H 
ATOM     78  C27 VG5 d   1      30.633   9.801  32.112  0.00  0.00    -0.046 C 
ATOM     79  H26 VG5 d   1      31.799  11.322  31.130  0.00  0.00     0.033 H 
ATOM     80  H27 VG5 d   1      32.373   9.643  30.852  0.00  0.00     0.033 H 
ATOM     81  H28 VG5 d   1      31.230   9.838  33.035  0.00  0.00     0.035 H 
ATOM     82  H29 VG5 d   1      29.755  10.455  32.217  0.00  0.00     0.035 H 
ATOM     83  H16 VG5 d   1      31.045   7.711  31.789  0.00  0.00     0.072 H 
ENDBRANCH  64  67
ENDBRANCH  61  63
BRANCH  61  84
ATOM     84  C22 VG5 d   1      29.485   6.502  36.362  0.00  0.00    -0.041 C 
ATOM     85  H17 VG5 d   1      30.042   7.395  36.683  0.00  0.00     0.030 H 
ATOM     86  H18 VG5 d   1      30.177   5.652  36.267  0.00  0.00     0.030 H 
ATOM     87  H19 VG5 d   1      28.713   6.264  37.108  0.00  0.00     0.030 H 
ENDBRANCH  61  84
ENDBRANCH  58  61
ENDBRANCH  55  58
ENDBRANCH  51  55
ENDBRANCH   1  51
TORSDOF 16
