REMARK  19 active torsions:
REMARK  status: ('A' for Active; 'I' for Inactive)
REMARK    1  A    between atoms: C1_1  and  C2_2 
REMARK    2  A    between atoms: C2_2  and  N3_3 
REMARK    3  A    between atoms: N3_3  and  C4_4 
REMARK    4  A    between atoms: C6_6  and  N36_36 
REMARK    5  A    between atoms: C8_8  and  C10_10 
REMARK       I    between atoms: C10_10  and  N12_12 
REMARK    6  A    between atoms: N12_12  and  C13_13 
REMARK    7  A    between atoms: C13_13  and  C14_14 
REMARK    8  A    between atoms: C13_13  and  C21_21 
REMARK    9  A    between atoms: C14_14  and  C15_15 
REMARK   10  A    between atoms: C21_21  and  O22_22 
REMARK   11  A    between atoms: C21_21  and  C23_23 
REMARK   12  A    between atoms: C23_23  and  N24_24 
REMARK   13  A    between atoms: N24_24  and  C25_25 
REMARK   14  A    between atoms: C25_25  and  C26_26 
REMARK   15  A    between atoms: C25_25  and  C27_27 
REMARK       I    between atoms: C27_27  and  N29_29 
REMARK   16  A    between atoms: N29_29  and  C30_30 
REMARK   17  A    between atoms: N36_36  and  C37_37 
REMARK   18  A    between atoms: N36_36  and  S43_43 
REMARK   19  A    between atoms: S43_43  and  C44_44 
ROOT
ATOM      1  C13 AA9 d   1      28.806   2.314  32.678  0.00  0.00     0.042 C 
ATOM      2  H11 AA9 d   1      29.792   2.681  32.358  0.00  0.00     0.077 H 
ENDROOT
BRANCH   1   3
ATOM      3  N12 AA9 d   1      28.987   1.364  33.758  0.00  0.00    -0.349 N 
ATOM      4  C10 AA9 d   1      30.190   1.250  34.400  0.00  0.00     0.252 C 
ATOM      5  O11 AA9 d   1      31.123   2.030  34.256  0.00  0.00    -0.268 OA
ATOM      6  H10 AA9 d   1      28.222   0.784  34.038  0.00  0.00     0.163 HD
BRANCH   4   7
ATOM      7  C8  AA9 d   1      30.332   0.087  35.290  0.00  0.00     0.036 A 
ATOM      8  C7  AA9 d   1      30.937   0.276  36.518  0.00  0.00    -0.041 A 
ATOM      9  C6  AA9 d   1      31.085  -0.814  37.349  0.00  0.00     0.053 A 
ATOM     10  H8  AA9 d   1      31.286   1.257  36.820  0.00  0.00     0.088 H 
ATOM     11  C5  AA9 d   1      30.632  -2.056  36.964  0.00  0.00    -0.031 A 
ATOM     12  C4  AA9 d   1      30.022  -2.252  35.733  0.00  0.00     0.031 A 
ATOM     13  H7  AA9 d   1      30.754  -2.898  37.636  0.00  0.00     0.090 H 
ATOM     14  C9  AA9 d   1      29.886  -1.161  34.885  0.00  0.00    -0.042 A 
ATOM     15  H9  AA9 d   1      29.432  -1.285  33.908  0.00  0.00     0.088 H 
BRANCH   9  16
ATOM     16  N36 AA9 d   1      31.732  -0.613  38.607  0.00  0.00    -0.240 N 
BRANCH  16  17
ATOM     17  C37 AA9 d   1      33.059  -0.068  38.571  0.00  0.00     0.050 A 
ATOM     18  C38 AA9 d   1      33.270   1.207  39.043  0.00  0.00    -0.056 A 
ATOM     19  C39 AA9 d   1      34.543   1.738  39.015  0.00  0.00    -0.081 A 
ATOM     20  H41 AA9 d   1      32.443   1.789  39.434  0.00  0.00     0.087 H 
ATOM     21  C40 AA9 d   1      35.579   0.990  38.504  0.00  0.00    -0.083 A 
ATOM     22  H42 AA9 d   1      34.726   2.737  39.393  0.00  0.00     0.083 H 
ATOM     23  C41 AA9 d   1      35.357  -0.284  38.021  0.00  0.00    -0.081 A 
ATOM     24  H43 AA9 d   1      36.580   1.406  38.480  0.00  0.00     0.083 H 
ATOM     25  C42 AA9 d   1      34.082  -0.829  38.055  0.00  0.00    -0.056 A 
ATOM     26  H44 AA9 d   1      36.181  -0.860  37.614  0.00  0.00     0.083 H 
ATOM     27  H45 AA9 d   1      33.896  -1.830  37.684  0.00  0.00     0.087 H 
ENDBRANCH  16  17
BRANCH  16  28
ATOM     28  S43 AA9 d   1      31.237  -1.321  40.056  0.00  0.00     0.233 S 
ATOM     29  O45 AA9 d   1      29.838  -1.656  39.898  0.00  0.00    -0.206 OA
ATOM     30  O46 AA9 d   1      31.658  -0.450  41.141  0.00  0.00    -0.206 OA
BRANCH  28  31
ATOM     31  C44 AA9 d   1      32.189  -2.812  40.157  0.00  0.00     0.033 C 
ATOM     32  H46 AA9 d   1      31.932  -3.349  41.082  0.00  0.00     0.051 H 
ATOM     33  H47 AA9 d   1      33.261  -2.563  40.164  0.00  0.00     0.051 H 
ATOM     34  H48 AA9 d   1      31.966  -3.449  39.288  0.00  0.00     0.051 H 
ENDBRANCH  28  31
ENDBRANCH  16  28
ENDBRANCH   9  16
BRANCH  12  35
ATOM     35  N3  AA9 d   1      29.614  -3.575  35.428  0.00  0.00    -0.390 N 
ATOM     36  H6  AA9 d   1      29.704  -4.341  36.110  0.00  0.00     0.159 HD
BRANCH  35  37
ATOM     37  C2  AA9 d   1      29.061  -3.792  34.099  0.00  0.00    -0.011 C 
ATOM     38  H4  AA9 d   1      29.509  -3.084  33.387  0.00  0.00     0.063 H 
ATOM     39  H5  AA9 d   1      29.267  -4.822  33.771  0.00  0.00     0.063 H 
BRANCH  37  40
ATOM     40  C1  AA9 d   1      27.563  -3.565  34.179  0.00  0.00    -0.061 C 
ATOM     41  H1  AA9 d   1      27.115  -3.722  33.187  0.00  0.00     0.029 H 
ATOM     42  H2  AA9 d   1      27.365  -2.535  34.512  0.00  0.00     0.029 H 
ATOM     43  H3  AA9 d   1      27.123  -4.273  34.896  0.00  0.00     0.029 H 
ENDBRANCH  37  40
ENDBRANCH  35  37
ENDBRANCH  12  35
ENDBRANCH   4   7
ENDBRANCH   1   3
BRANCH   1  44
ATOM     44  C14 AA9 d   1      28.168   1.597  31.496  0.00  0.00    -0.020 C 
ATOM     45  H12 AA9 d   1      28.232   2.250  30.613  0.00  0.00     0.043 H 
ATOM     46  H13 AA9 d   1      27.111   1.403  31.732  0.00  0.00     0.043 H 
BRANCH  44  47
ATOM     47  C15 AA9 d   1      28.837   0.289  31.176  0.00  0.00    -0.056 A 
ATOM     48  C16 AA9 d   1      30.207   0.235  30.983  0.00  0.00    -0.077 A 
ATOM     49  C17 AA9 d   1      30.795  -0.986  30.699  0.00  0.00    -0.082 A 
ATOM     50  H14 AA9 d   1      30.809   1.134  31.053  0.00  0.00     0.084 H 
ATOM     51  C18 AA9 d   1      30.039  -2.137  30.604  0.00  0.00    -0.083 A 
ATOM     52  H15 AA9 d   1      31.867  -1.039  30.549  0.00  0.00     0.083 H 
ATOM     53  C19 AA9 d   1      28.678  -2.086  30.799  0.00  0.00    -0.082 A 
ATOM     54  H16 AA9 d   1      30.518  -3.082  30.375  0.00  0.00     0.083 H 
ATOM     55  C20 AA9 d   1      28.080  -0.870  31.083  0.00  0.00    -0.077 A 
ATOM     56  H17 AA9 d   1      28.081  -2.988  30.731  0.00  0.00     0.083 H 
ATOM     57  H18 AA9 d   1      27.008  -0.823  31.235  0.00  0.00     0.084 H 
ENDBRANCH  44  47
ENDBRANCH   1  44
BRANCH   1  58
ATOM     58  C21 AA9 d   1      28.003   3.513  33.188  0.00  0.00     0.078 C 
ATOM     59  H19 AA9 d   1      27.085   3.134  33.661  0.00  0.00     0.088 H 
BRANCH  58  60
ATOM     60  O22 AA9 d   1      27.666   4.414  32.131  0.00  0.00    -0.392 OA
ATOM     61  H20 AA9 d   1      27.143   3.958  31.482  0.00  0.00     0.210 HD
ENDBRANCH  58  60
BRANCH  58  62
ATOM     62  C23 AA9 d   1      28.776   4.369  34.186  0.00  0.00     0.108 C 
ATOM     63  H21 AA9 d   1      29.703   4.735  33.722  0.00  0.00     0.079 H 
ATOM     64  H22 AA9 d   1      29.023   3.771  35.076  0.00  0.00     0.079 H 
BRANCH  62  65
ATOM     65  N24 AA9 d   1      27.932   5.506  34.571  0.00  0.00    -0.060 N 
ATOM     66  H23 AA9 d   1      27.304   5.200  35.298  0.00  0.00     0.278 HD
ATOM     67  H24 AA9 d   1      27.399   5.790  33.764  0.00  0.00     0.278 HD
BRANCH  65  68
ATOM     68  C25 AA9 d   1      28.677   6.680  35.068  0.00  0.00     0.174 C 
ATOM     69  H25 AA9 d   1      27.959   7.502  35.202  0.00  0.00     0.099 H 
BRANCH  68  70
ATOM     70  C26 AA9 d   1      29.305   6.393  36.416  0.00  0.00    -0.041 C 
ATOM     71  H26 AA9 d   1      29.852   7.282  36.762  0.00  0.00     0.030 H 
ATOM     72  H27 AA9 d   1      30.001   5.547  36.323  0.00  0.00     0.030 H 
ATOM     73  H28 AA9 d   1      28.517   6.142  37.142  0.00  0.00     0.030 H 
ENDBRANCH  68  70
BRANCH  68  74
ATOM     74  C27 AA9 d   1      29.710   7.132  34.059  0.00  0.00     0.248 C 
ATOM     75  O28 AA9 d   1      30.901   6.836  34.130  0.00  0.00    -0.271 OA
ATOM     76  N29 AA9 d   1      29.184   7.915  33.065  0.00  0.00    -0.355 N 
ATOM     77  H29 AA9 d   1      28.223   8.190  33.087  0.00  0.00     0.162 HD
BRANCH  76  78
ATOM     78  C30 AA9 d   1      30.062   8.343  31.963  0.00  0.00     0.012 C 
ATOM     79  C31 AA9 d   1      29.311   8.187  30.664  0.00  0.00    -0.046 C 
ATOM     80  C32 AA9 d   1      30.114   8.668  29.470  0.00  0.00    -0.063 C 
ATOM     81  H31 AA9 d   1      28.380   8.770  30.722  0.00  0.00     0.035 H 
ATOM     82  H32 AA9 d   1      29.069   7.123  30.521  0.00  0.00     0.035 H 
ATOM     83  C33 AA9 d   1      30.366  10.148  29.663  0.00  0.00    -0.065 C 
ATOM     84  H33 AA9 d   1      29.546   8.501  28.543  0.00  0.00     0.033 H 
ATOM     85  H34 AA9 d   1      31.070   8.127  29.417  0.00  0.00     0.033 H 
ATOM     86  C34 AA9 d   1      31.178  10.372  30.927  0.00  0.00    -0.063 C 
ATOM     87  H35 AA9 d   1      29.404  10.674  29.749  0.00  0.00     0.033 H 
ATOM     88  H36 AA9 d   1      30.922  10.540  28.798  0.00  0.00     0.033 H 
ATOM     89  C35 AA9 d   1      30.475   9.793  32.157  0.00  0.00    -0.046 C 
ATOM     90  H37 AA9 d   1      31.321  11.453  31.073  0.00  0.00     0.033 H 
ATOM     91  H38 AA9 d   1      32.158   9.885  30.813  0.00  0.00     0.033 H 
ATOM     92  H39 AA9 d   1      31.160   9.853  33.016  0.00  0.00     0.035 H 
ATOM     93  H40 AA9 d   1      29.575  10.391  32.363  0.00  0.00     0.035 H 
ATOM     94  H30 AA9 d   1      30.962   7.711  31.945  0.00  0.00     0.072 H 
ENDBRANCH  76  78
ENDBRANCH  68  74
ENDBRANCH  65  68
ENDBRANCH  62  65
ENDBRANCH  58  62
ENDBRANCH   1  58
TORSDOF 19
