REMARK  14 active torsions:
REMARK  status: ('A' for Active; 'I' for Inactive)
REMARK    1  A    between atoms: C07_2  and  C06_4 
REMARK    2  A    between atoms: C3_12  and  N09_3 
REMARK    3  A    between atoms: O4_31  and  C1_10 
REMARK    4  A    between atoms: C2_11  and  O2_16 
REMARK    5  A    between atoms: C4_13  and  O4_17 
REMARK    6  A    between atoms: C5_14  and  C6_15 
REMARK    7  A    between atoms: C6_15  and  O6_19 
REMARK    8  A    between atoms: C1_20  and  O1_29 
REMARK    9  A    between atoms: N2_28  and  C2_21 
REMARK   10  A    between atoms: C3_22  and  O3_30 
REMARK   11  A    between atoms: C4_23  and  O4_31 
REMARK   12  A    between atoms: C5_24  and  C6_25 
REMARK   13  A    between atoms: C6_25  and  O6_33 
REMARK   14  A    between atoms: C7_26  and  C8_27 
REMARK       I    between atoms: C7_26  and  N2_28 
ROOT
ATOM      1  H   UNU d   1     -20.478   8.553  -2.387  0.00  0.00     0.133 H 
ATOM      2  H   UNU d   1     -18.489   9.623  -0.278  0.00  0.00     0.093 H 
ATOM      3  H   UNU d   1     -17.977   7.852  -2.674  0.00  0.00     0.080 H 
ATOM      4  H   UNU d   1     -17.567   6.054  -1.086  0.00  0.00     0.090 H 
ATOM      5  H   UNU d   1     -19.822   6.341  -1.849  0.00  0.00     0.090 H 
ATOM      6  C1  GAL d   1     -20.187   8.845  -1.378  0.00  0.00     0.159 C 
ATOM      7  C2  GAL d   1     -18.715   9.280  -1.288  0.00  0.00     0.105 C 
ATOM      8  C3  GAL d   1     -17.808   8.120  -1.631  0.00  0.00     0.068 C 
ATOM      9  C4  GAL d   1     -18.120   6.931  -0.750  0.00  0.00     0.084 C 
ATOM     10  C5  GAL d   1     -19.600   6.627  -0.821  0.00  0.00     0.088 C 
ATOM     11  O5  GAL d   1     -20.379   7.764  -0.482  0.00  0.00    -0.349 OA
ENDROOT
BRANCH   6  12
ATOM     12  O4  NAG d   1     -20.933   9.957  -0.885  0.00  0.00    -0.348 OA
BRANCH  12  13
ATOM     13  C4  NAG d   1     -22.350   9.878  -1.002  0.00  0.00     0.095 C 
ATOM     14  C3  NAG d   1     -23.024  10.318   0.284  0.00  0.00     0.087 C 
ATOM     15  C2  NAG d   1     -24.547  10.288   0.163  0.00  0.00     0.086 C 
ATOM     16  H   UNU d   1     -22.689  11.338   0.470  0.00  0.00     0.090 H 
ATOM     17  C1  NAG d   1     -25.037  11.039  -1.062  0.00  0.00     0.151 C 
ATOM     18  H   UNU d   1     -24.928   9.268   0.101  0.00  0.00     0.084 H 
ATOM     19  O5  NAG d   1     -24.354  10.518  -2.206  0.00  0.00    -0.349 OA
ATOM     20  H   UNU d   1     -24.840  12.107  -0.965  0.00  0.00     0.132 H 
ATOM     21  C5  NAG d   1     -22.948  10.754  -2.099  0.00  0.00     0.089 C 
ATOM     22  H   UNU d   1     -22.740  11.787  -1.819  0.00  0.00     0.090 H 
ATOM     23  H   UNU d   1     -22.531   8.830  -1.242  0.00  0.00     0.091 H 
BRANCH  14  24
ATOM     24  O3  NAG d   1     -22.667   9.482   1.352  0.00  0.00    -0.391 OA
ATOM     25  H   UNU d   1     -22.936   8.582   1.156  0.00  0.00     0.210 HD
ENDBRANCH  14  24
BRANCH  15  26
ATOM     26  N2  NAG d   1     -24.951  11.074   1.309  0.00  0.00    -0.349 N 
ATOM     27  C7  NAG d   1     -25.971  10.701   2.078  0.00  0.00     0.214 C 
ATOM     28  O7  NAG d   1     -26.521   9.611   1.930  0.00  0.00    -0.274 OA
ATOM     29  H   UNU d   1     -24.444  11.931   1.532  0.00  0.00     0.163 HD
BRANCH  27  30
ATOM     30  C8  NAG d   1     -26.284  11.632   3.224  0.00  0.00    -0.003 C 
ATOM     31  H   UNU d   1     -27.339  11.905   3.191  0.00  0.00     0.040 H 
ATOM     32  H   UNU d   1     -26.067  11.131   4.167  0.00  0.00     0.040 H 
ATOM     33  H   UNU d   1     -25.672  12.530   3.139  0.00  0.00     0.040 H 
ENDBRANCH  27  30
ENDBRANCH  15  26
BRANCH  17  34
ATOM     34  O1  NAG d   1     -26.452  10.833  -1.203  0.00  0.00    -0.369 OA
ATOM     35  H   UNU d   1     -26.631   9.893  -1.279  0.00  0.00     0.212 HD
ENDBRANCH  17  34
BRANCH  21  36
ATOM     36  C6  NAG d   1     -22.334  10.471  -3.457  0.00  0.00     0.043 C 
ATOM     37  H   UNU d   1     -21.267  10.691  -3.430  0.00  0.00     0.078 H 
ATOM     38  H   UNU d   1     -22.808  11.098  -4.212  0.00  0.00     0.078 H 
BRANCH  36  39
ATOM     39  O6  NAG d   1     -22.532   9.098  -3.781  0.00  0.00    -0.398 OA
ATOM     40  H   UNU d   1     -23.473   8.909  -3.805  0.00  0.00     0.209 HD
ENDBRANCH  36  39
ENDBRANCH  21  36
ENDBRANCH  12  13
ENDBRANCH   6  12
BRANCH   7  41
ATOM     41  O2  GAL d   1     -18.512  10.309  -2.249  0.00  0.00    -0.388 OA
ATOM     42  H   UNU d   1     -19.082  11.054  -2.044  0.00  0.00     0.210 HD
ENDBRANCH   7  41
BRANCH   8  43
ATOM     43  N09 UNU d   1     -16.424   8.494  -1.452  0.00  0.00    -0.358 N 
ATOM     44  C07 UNU d   1     -15.483   8.218  -2.329  0.00  0.00     0.185 C 
ATOM     45  O08 UNU d   1     -15.841   7.640  -3.474  0.00  0.00    -0.172 OA
ATOM     46  H   UNU d   1     -16.164   8.997  -0.604  0.00  0.00     0.162 HD
BRANCH  44  47
ATOM     47  C06 UNU d   1     -14.127   8.843  -2.148  0.00  0.00     0.018 A 
ATOM     48  C01 UNU d   1     -14.012  10.060  -1.482  0.00  0.00    -0.069 A 
ATOM     49  C02 UNU d   1     -12.756  10.633  -1.297  0.00  0.00    -0.082 A 
ATOM     50  H   UNU d   1     -14.903  10.563  -1.106  0.00  0.00     0.085 H 
ATOM     51  C03 UNU d   1     -11.607  10.005  -1.783  0.00  0.00    -0.083 A 
ATOM     52  H   UNU d   1     -12.669  11.582  -0.767  0.00  0.00     0.083 H 
ATOM     53  C04 UNU d   1     -11.728   8.788  -2.445  0.00  0.00    -0.082 A 
ATOM     54  H   UNU d   1     -10.628  10.463  -1.645  0.00  0.00     0.083 H 
ATOM     55  C05 UNU d   1     -12.981   8.206  -2.589  0.00  0.00    -0.069 A 
ATOM     56  H   UNU d   1     -10.844   8.293  -2.849  0.00  0.00     0.083 H 
ATOM     57  H   UNU d   1     -13.063   7.226  -3.060  0.00  0.00     0.085 H 
ENDBRANCH  44  47
ENDBRANCH   8  43
BRANCH  10  58
ATOM     58  C6  GAL d   1     -19.962   5.471   0.127  0.00  0.00     0.043 C 
ATOM     59  H   UNU d   1     -19.721   5.702   1.165  0.00  0.00     0.078 H 
ATOM     60  H   UNU d   1     -19.390   4.569  -0.090  0.00  0.00     0.078 H 
BRANCH  58  61
ATOM     61  O6  GAL d   1     -21.379   5.275  -0.071  0.00  0.00    -0.398 OA
ATOM     62  H   UNU d   1     -21.847   6.083   0.152  0.00  0.00     0.209 HD
ENDBRANCH  58  61
ENDBRANCH  10  58
BRANCH   9  63
ATOM     63  O4  GAL d   1     -17.743   7.251   0.598  0.00  0.00    -0.391 OA
ATOM     64  H   UNU d   1     -16.803   7.442   0.629  0.00  0.00     0.210 HD
ENDBRANCH   9  63
TORSDOF 14
