REMARK  5 active torsions:
REMARK  status: ('A' for Active; 'I' for Inactive)
REMARK    1  A    between atoms: C21_2  and  C28_4 
REMARK    2  A    between atoms: C29_5  and  C6_6 
REMARK    3  A    between atoms: C23_17  and  C18_18 
REMARK    4  A    between atoms: C24_21  and  C17_23 
REMARK    5  A    between atoms: C17_23  and  C16_24 
ROOT
ATOM      1  C28 EC2 d   1     -48.773  -7.681  14.037  0.00  0.00     0.120 C 
ATOM      2  C29 EC2 d   1     -48.167  -8.761  13.114  0.00  0.00     0.052 C 
ATOM      3  S30 EC2 d   1     -47.454  -7.902  11.775  0.00  0.00    -0.099 SA
ATOM      4  N27 EC2 d   1     -48.855  -6.413  13.296  0.00  0.00    -0.291 N 
ATOM      5  C26 EC2 d   1     -49.540  -5.262  13.761  0.00  0.00     0.249 A 
ATOM      6  O26 EC2 d   1     -50.105  -5.316  14.879  0.00  0.00    -0.268 OA
ATOM      7  C22 EC2 d   1     -48.195  -6.410  12.072  0.00  0.00     0.083 A 
ATOM      8  C23 EC2 d   1     -48.209  -5.193  11.219  0.00  0.00    -0.013 A 
ATOM      9  C24 EC2 d   1     -48.948  -4.019  11.741  0.00  0.00    -0.039 A 
ATOM     10  C25 EC2 d   1     -49.588  -4.093  12.983  0.00  0.00    -0.010 A 
ATOM     11  H   EC2 d   1     -49.761  -8.005  14.363  0.00  0.00     0.093 H 
ATOM     12  H   EC2 d   1     -47.469  -9.380  13.677  0.00  0.00     0.068 H 
ATOM     13  H   EC2 d   1     -50.135  -3.226  13.354  0.00  0.00     0.092 H 
ENDROOT
BRANCH   9  14
ATOM     14  C17 EC2 d   1     -49.037  -2.781  10.868  0.00  0.00    -0.015 C 
ATOM     15  H   EC2 d   1     -48.068  -2.492  10.461  0.00  0.00     0.047 H 
ATOM     16  H   EC2 d   1     -49.361  -1.903  11.427  0.00  0.00     0.047 H 
BRANCH  14  17
ATOM     17  C16 EC2 d   1     -50.038  -3.173   9.767  0.00  0.00    -0.043 A 
ATOM     18  C7  EC2 d   1     -50.821  -4.328   9.901  0.00  0.00    -0.076 A 
ATOM     19  C8  EC2 d   1     -51.737  -4.709   8.916  0.00  0.00    -0.082 A 
ATOM     20  H   EC2 d   1     -50.713  -4.944  10.794  0.00  0.00     0.084 H 
ATOM     21  C9  EC2 d   1     -51.880  -3.932   7.773  0.00  0.00    -0.072 A 
ATOM     22  H   EC2 d   1     -52.336  -5.611   9.044  0.00  0.00     0.083 H 
ATOM     23  C10 EC2 d   1     -51.120  -2.775   7.635  0.00  0.00    -0.025 A 
ATOM     24  H   EC2 d   1     -52.581  -4.226   6.992  0.00  0.00     0.084 H 
ATOM     25  C15 EC2 d   1     -50.206  -2.403   8.616  0.00  0.00    -0.019 A 
ATOM     26  C11 EC2 d   1     -51.274  -1.993   6.488  0.00  0.00    -0.072 A 
ATOM     27  C14 EC2 d   1     -49.456  -1.236   8.450  0.00  0.00    -0.072 A 
ATOM     28  C13 EC2 d   1     -49.604  -0.460   7.298  0.00  0.00    -0.082 A 
ATOM     29  H   EC2 d   1     -48.752  -0.929   9.223  0.00  0.00     0.084 H 
ATOM     30  C12 EC2 d   1     -50.516  -0.834   6.316  0.00  0.00    -0.082 A 
ATOM     31  H   EC2 d   1     -49.004   0.441   7.168  0.00  0.00     0.083 H 
ATOM     32  H   EC2 d   1     -50.638  -0.226   5.419  0.00  0.00     0.083 H 
ATOM     33  H   EC2 d   1     -51.991  -2.290   5.722  0.00  0.00     0.084 H 
ENDBRANCH  14  17
ENDBRANCH   9  14
BRANCH   8  34
ATOM     34  C18 EC2 d   1     -47.518  -5.135   9.902  0.00  0.00    -0.025 A 
ATOM     35  C20 EC2 d   1     -46.022  -5.035  10.194  0.00  0.00    -0.057 A 
ATOM     36  C19 EC2 d   1     -46.776  -3.817   9.683  0.00  0.00    -0.057 A 
ATOM     37  H   EC2 d   1     -45.108  -5.583   9.967  0.00  0.00     0.034 H 
ATOM     38  H   EC2 d   1     -45.328  -5.288  10.996  0.00  0.00     0.034 H 
ATOM     39  H   EC2 d   1     -46.892  -2.763   9.936  0.00  0.00     0.034 H 
ATOM     40  H   EC2 d   1     -46.671  -3.058   8.908  0.00  0.00     0.034 H 
ATOM     41  H   EC2 d   1     -48.187  -5.729   9.279  0.00  0.00     0.047 H 
ENDBRANCH   8  34
BRANCH   2  42
ATOM     42  C6  EC2 d   1     -49.234  -9.600  12.525  0.00  0.00    -0.041 A 
ATOM     43  C5  EC2 d   1     -49.284 -10.966  12.786  0.00  0.00    -0.076 A 
ATOM     44  C4  EC2 d   1     -50.303 -11.744  12.234  0.00  0.00    -0.082 A 
ATOM     45  H   EC2 d   1     -48.528 -11.428  13.421  0.00  0.00     0.084 H 
ATOM     46  C3  EC2 d   1     -51.259 -11.150  11.417  0.00  0.00    -0.083 A 
ATOM     47  H   EC2 d   1     -50.349 -12.813  12.442  0.00  0.00     0.083 H 
ATOM     48  C2  EC2 d   1     -51.220  -9.775  11.137  0.00  0.00    -0.082 A 
ATOM     49  H   EC2 d   1     -52.052 -11.762  10.987  0.00  0.00     0.083 H 
ATOM     50  C1  EC2 d   1     -50.200  -8.998  11.703  0.00  0.00    -0.076 A 
ATOM     51  H   EC2 d   1     -51.970  -9.319  10.491  0.00  0.00     0.083 H 
ATOM     52  H   EC2 d   1     -50.157  -7.927  11.505  0.00  0.00     0.084 H 
ENDBRANCH   2  42
BRANCH   1  53
ATOM     53  C21 EC2 d   1     -47.898  -7.472  15.220  0.00  0.00     0.198 C 
ATOM     54  O23 EC2 d   1     -48.211  -8.118  16.252  0.00  0.00    -0.646 OA
ATOM     55  O22 EC2 d   1     -46.922  -6.671  15.075  0.00  0.00    -0.646 OA
ENDBRANCH   1  53
TORSDOF 5
