REMARK  0 active torsions:
REMARK  status: ('A' for Active; 'I' for Inactive)
ROOT
ATOM      1  OAB LXN d   1      29.955   6.932   0.872  0.00  0.00    -0.263 OA
ATOM      2  CAH LXN d   1      29.901   7.270   2.058  0.00  0.00     0.305 A 
ATOM      3  CAJ LXN d   1      29.780   6.343   3.103  0.00  0.00     0.306 A 
ATOM      4  OAD LXN d   1      29.721   5.141   2.883  0.00  0.00    -0.276 OA
ATOM      5  CAI LXN d   1      29.730   6.771   4.422  0.00  0.00     0.305 A 
ATOM      6  OAC LXN d   1      29.640   5.957   5.347  0.00  0.00    -0.263 OA
ATOM      7  NAF LXN d   1      29.799   8.145   4.709  0.00  0.00    -0.272 N 
ATOM      8  CAG LXN d   1      29.917   9.071   3.661  0.00  0.00     0.330 A 
ATOM      9  OAA LXN d   1      29.980  10.272   3.895  0.00  0.00    -0.246 OA
ATOM     10  NAE LXN d   1      29.967   8.636   2.348  0.00  0.00    -0.272 N 
ATOM     11  H   LXN d   1      29.763   8.468   5.676  0.00  0.00     0.174 HD
ATOM     12  H   LXN d   1      30.052   9.314   1.590  0.00  0.00     0.174 HD
ENDROOT
TORSDOF 0
