REMARK  16 active torsions:
REMARK  status: ('A' for Active; 'I' for Inactive)
REMARK    1  A    between atoms: C1B_13  and  N1_1 
REMARK    2  A    between atoms: PA_9  and  O3A_23 
REMARK    3  A    between atoms: O5B_33  and  PA_9 
REMARK    4  A    between atoms: O3A_23  and  PB_10 
REMARK    5  A    between atoms: PB_10  and  S1'_39 
REMARK    6  A    between atoms: S1'_39  and  C1'_11 
REMARK    7  A    between atoms: C2'_17  and  N2'_15 
REMARK       I    between atoms: N2'_15  and  C7'_36 
REMARK    8  A    between atoms: C2B_19  and  O2'_16 
REMARK    9  A    between atoms: C3'_21  and  O3'_22 
REMARK   10  A    between atoms: C3B_24  and  O3B_25 
REMARK   11  A    between atoms: C4'_26  and  O4'_27 
REMARK   12  A    between atoms: C5B_32  and  C4B_28 
REMARK   13  A    between atoms: C5'_30  and  C6'_34 
REMARK   14  A    between atoms: C5B_32  and  O5B_33 
REMARK   15  A    between atoms: C6'_34  and  O6'_35 
REMARK   16  A    between atoms: C7'_36  and  C8'_38 
ROOT
ATOM      1  PA  ZKD d   1      27.729   8.182  -4.284  0.00  0.00     0.416 P 
ATOM      2  O1A ZKD d   1      28.055   6.721  -4.291  0.00  0.00    -0.624 OA
ATOM      3  O2A ZKD d   1      28.603   9.172  -4.983  0.00  0.00    -0.624 OA
ENDROOT
BRANCH   1   4
ATOM      4  O3A ZKD d   1      26.205   8.329  -4.810  0.00  0.00    -0.195 OA
BRANCH   4   5
ATOM      5  PB  ZKD d   1      25.108   7.196  -4.469  0.00  0.00     0.328 P 
ATOM      6  O1B ZKD d   1      23.779   7.805  -4.704  0.00  0.00    -0.638 OA
ATOM      7  O2B ZKD d   1      25.529   5.999  -5.255  0.00  0.00    -0.638 OA
BRANCH   5   8
ATOM      8  S1' ZKD d   1      25.553   6.897  -2.301  0.00  0.00    -0.003 SA
BRANCH   8   9
ATOM      9  C1' ZKD d   1      24.174   6.083  -1.428  0.00  0.00     0.135 C 
ATOM     10  C2' ZKD d   1      22.886   6.755  -1.867  0.00  0.00     0.086 C 
ATOM     11  C3' ZKD d   1      22.965   8.269  -1.607  0.00  0.00     0.104 C 
ATOM     12  C4' ZKD d   1      23.011   8.373  -0.076  0.00  0.00     0.092 C 
ATOM     13  H   ZKD d   1      23.830   8.729  -2.084  0.00  0.00     0.096 H 
ATOM     14  C5' ZKD d   1      24.308   7.714   0.462  0.00  0.00     0.088 C 
ATOM     15  H   ZKD d   1      22.150   7.826   0.308  0.00  0.00     0.091 H 
ATOM     16  O5' ZKD d   1      24.475   6.318  -0.015  0.00  0.00    -0.359 OA
ATOM     17  H   ZKD d   1      25.136   8.304   0.069  0.00  0.00     0.090 H 
ATOM     18  H   ZKD d   1      24.059   5.018  -1.628  0.00  0.00     0.111 H 
BRANCH  10  19
ATOM     19  N2' ZKD d   1      21.776   6.113  -2.352  0.00  0.00    -0.217 NA
ATOM     20  C7' ZKD d   1      21.529   4.805  -2.602  0.00  0.00     0.239 C 
ATOM     21  O7' ZKD d   1      20.469   4.413  -3.078  0.00  0.00    -0.272 OA
BRANCH  20  22
ATOM     22  C8' ZKD d   1      22.598   3.754  -2.303  0.00  0.00    -0.001 C 
ATOM     23  H   ZKD d   1      22.207   3.034  -1.584  0.00  0.00     0.040 H 
ATOM     24  H   ZKD d   1      22.868   3.239  -3.225  0.00  0.00     0.040 H 
ATOM     25  H   ZKD d   1      23.479   4.242  -1.887  0.00  0.00     0.040 H 
ENDBRANCH  20  22
ENDBRANCH  10  19
BRANCH  11  26
ATOM     26  O3' ZKD d   1      21.857   8.961  -2.152  0.00  0.00    -0.387 OA
ATOM     27  H   ZKD d   1      21.945   9.899  -1.968  0.00  0.00     0.210 HD
ENDBRANCH  11  26
BRANCH  12  28
ATOM     28  O4' ZKD d   1      22.849   9.702   0.411  0.00  0.00    -0.390 OA
ATOM     29  H   ZKD d   1      22.887   9.697   1.370  0.00  0.00     0.210 HD
ENDBRANCH  12  28
BRANCH  14  30
ATOM     30  C6' ZKD d   1      24.347   7.741   2.016  0.00  0.00     0.043 C 
ATOM     31  H   ZKD d   1      25.203   7.160   2.361  0.00  0.00     0.078 H 
ATOM     32  H   ZKD d   1      23.421   7.316   2.402  0.00  0.00     0.078 H 
BRANCH  30  33
ATOM     33  O6' ZKD d   1      24.478   9.110   2.495  0.00  0.00    -0.398 OA
ATOM     34  H   ZKD d   1      23.729   9.627   2.191  0.00  0.00     0.209 HD
ENDBRANCH  30  33
ENDBRANCH  14  30
ENDBRANCH   8   9
ENDBRANCH   5   8
ENDBRANCH   4   5
ENDBRANCH   1   4
BRANCH   1  35
ATOM     35  O5B ZKD d   1      27.568   8.674  -2.768  0.00  0.00    -0.287 OA
BRANCH  35  36
ATOM     36  C5B ZKD d   1      28.472   8.282  -1.748  0.00  0.00     0.058 C 
ATOM     37  H   ZKD d   1      28.452   7.199  -1.624  0.00  0.00     0.079 H 
ATOM     38  H   ZKD d   1      29.488   8.573  -2.014  0.00  0.00     0.079 H 
BRANCH  36  39
ATOM     39  C4B ZKD d   1      28.052   8.965  -0.458  0.00  0.00     0.089 C 
ATOM     40  C3B ZKD d   1      29.030  10.117  -0.330  0.00  0.00     0.091 C 
ATOM     41  C2B ZKD d   1      30.203   9.448   0.348  0.00  0.00     0.105 C 
ATOM     42  H   ZKD d   1      29.305  10.617  -1.258  0.00  0.00     0.091 H 
ATOM     43  C1B ZKD d   1      29.400   8.749   1.457  0.00  0.00     0.141 C 
ATOM     44  H   ZKD d   1      30.867   8.792  -0.216  0.00  0.00     0.093 H 
ATOM     45  O4B ZKD d   1      28.252   8.195   0.749  0.00  0.00    -0.353 OA
ATOM     46  H   ZKD d   1      29.307   9.539   2.202  0.00  0.00     0.123 H 
ATOM     47  H   ZKD d   1      26.988   9.189  -0.528  0.00  0.00     0.090 H 
BRANCH  40  48
ATOM     48  O3B ZKD d   1      28.427  11.103   0.537  0.00  0.00    -0.390 OA
ATOM     49  H   ZKD d   1      29.078  11.772   0.760  0.00  0.00     0.210 HD
ENDBRANCH  40  48
BRANCH  41  50
ATOM     50  O2' ZKD d   1      30.973  10.503   0.858  0.00  0.00    -0.388 OA
ATOM     51  H   ZKD d   1      30.395  11.150   1.269  0.00  0.00     0.210 HD
ENDBRANCH  41  50
BRANCH  43  52
ATOM     52  N1  ZKD d   1      29.914   7.645   2.330  0.00  0.00    -0.280 N 
ATOM     53  C2  ZKD d   1      30.257   7.933   3.688  0.00  0.00     0.331 A 
ATOM     54  O2  ZKD d   1      30.156   9.087   4.118  0.00  0.00    -0.246 OA
ATOM     55  N3  ZKD d   1      30.737   6.892   4.540  0.00  0.00    -0.275 N 
ATOM     56  C4  ZKD d   1      30.859   5.574   4.046  0.00  0.00     0.250 A 
ATOM     57  H   ZKD d   1      30.992   7.100   5.505  0.00  0.00     0.173 HD
ATOM     58  O4  ZKD d   1      31.247   4.673   4.788  0.00  0.00    -0.268 OA
ATOM     59  C5  ZKD d   1      30.501   5.302   2.719  0.00  0.00    -0.002 A 
ATOM     60  C6  ZKD d   1      30.027   6.314   1.859  0.00  0.00    -0.008 A 
ATOM     61  H   ZKD d   1      30.591   4.283   2.342  0.00  0.00     0.094 H 
ATOM     62  H   ZKD d   1      29.748   6.072   0.833  0.00  0.00     0.112 H 
ENDBRANCH  43  52
ENDBRANCH  36  39
ENDBRANCH  35  36
ENDBRANCH   1  35
TORSDOF 16
