REMARK  8 active torsions:
REMARK  status: ('A' for Active; 'I' for Inactive)
REMARK    1  A    between atoms: N1_1  and  C22_19 
REMARK    2  A    between atoms: C4_4  and  N5_5 
REMARK    3  A    between atoms: C4_4  and  C9_6 
REMARK    4  A    between atoms: C9_6  and  C10_7 
REMARK    5  A    between atoms: C13_10  and  C16_13 
REMARK    6  A    between atoms: C16_13  and  C17_14 
REMARK    7  A    between atoms: C16_13  and  C18_15 
REMARK    8  A    between atoms: C16_13  and  C19_16 
ROOT
ATOM      1  N1  X37 d   1      44.602  33.727 113.939  0.00  0.00    -0.365 N 
ATOM      2  C2  X37 d   1      43.255  33.168 113.892  0.00  0.00    -0.001 C 
ATOM      3  C3  X37 d   1      42.934  32.490 115.199  0.00  0.00    -0.019 C 
ATOM      4  C4  X37 d   1      44.016  31.490 115.639  0.00  0.00     0.130 C 
ATOM      5  C20 X37 d   1      45.468  31.918 115.341  0.00  0.00    -0.019 C 
ATOM      6  C21 X37 d   1      45.618  32.671 114.037  0.00  0.00    -0.001 C 
ATOM      7  H   X37 d   1      43.197  32.438 113.085  0.00  0.00     0.064 H 
ATOM      8  H   X37 d   1      42.539  33.971 113.719  0.00  0.00     0.064 H 
ATOM      9  H   X37 d   1      42.005  31.936 115.066  0.00  0.00     0.039 H 
ATOM     10  H   X37 d   1      42.864  33.262 115.965  0.00  0.00     0.039 H 
ATOM     11  H   X37 d   1      46.069  31.012 115.268  0.00  0.00     0.039 H 
ATOM     12  H   X37 d   1      45.785  32.584 116.143  0.00  0.00     0.039 H 
ATOM     13  H   X37 d   1      46.608  33.125 114.000  0.00  0.00     0.064 H 
ATOM     14  H   X37 d   1      45.490  31.976 113.207  0.00  0.00     0.064 H 
ENDROOT
BRANCH   4  15
ATOM     15  N5  X37 d   1      43.925  31.436 117.144  0.00  0.00    -0.070 N 
ATOM     16  H   X37 d   1      42.983  31.157 117.417  0.00  0.00     0.275 HD
ATOM     17  H   X37 d   1      44.598  30.758 117.500  0.00  0.00     0.275 HD
ATOM     18  H   X37 d   1      44.133  32.357 117.529  0.00  0.00     0.275 HD
ENDBRANCH   4  15
BRANCH   4  19
ATOM     19  C9  X37 d   1      43.736  30.026 115.258  0.00  0.00    -0.010 C 
ATOM     20  H   X37 d   1      42.895  29.737 115.888  0.00  0.00     0.043 H 
ATOM     21  H   X37 d   1      44.699  29.527 115.370  0.00  0.00     0.043 H 
BRANCH  19  22
ATOM     22  C10 X37 d   1      43.293  29.680 113.856  0.00  0.00    -0.056 A 
ATOM     23  C11 X37 d   1      41.942  29.647 113.534  0.00  0.00    -0.076 A 
ATOM     24  C12 X37 d   1      41.527  29.311 112.262  0.00  0.00    -0.076 A 
ATOM     25  H   X37 d   1      41.201  29.890 114.296  0.00  0.00     0.084 H 
ATOM     26  C13 X37 d   1      42.454  28.982 111.272  0.00  0.00    -0.051 A 
ATOM     27  H   X37 d   1      40.463  29.302 112.027  0.00  0.00     0.084 H 
ATOM     28  C14 X37 d   1      43.814  29.003 111.603  0.00  0.00    -0.076 A 
ATOM     29  C15 X37 d   1      44.225  29.342 112.876  0.00  0.00    -0.076 A 
ATOM     30  H   X37 d   1      44.557  28.749 110.847  0.00  0.00     0.084 H 
ATOM     31  H   X37 d   1      45.288  29.346 113.117  0.00  0.00     0.084 H 
BRANCH  26  32
ATOM     32  C16 X37 d   1      41.985  28.595 109.846  0.00  0.00    -0.024 C 
BRANCH  32  33
ATOM     33  C17 X37 d   1      40.698  27.784 109.902  0.00  0.00    -0.066 C 
ATOM     34  H   X37 d   1      40.869  26.873 110.476  0.00  0.00     0.028 H 
ATOM     35  H   X37 d   1      39.918  28.376 110.381  0.00  0.00     0.028 H 
ATOM     36  H   X37 d   1      40.389  27.524 108.889  0.00  0.00     0.028 H 
ENDBRANCH  32  33
BRANCH  32  37
ATOM     37  C18 X37 d   1      41.719  29.838 108.993  0.00  0.00    -0.066 C 
ATOM     38  H   X37 d   1      40.942  30.440 109.463  0.00  0.00     0.028 H 
ATOM     39  H   X37 d   1      42.635  30.424 108.911  0.00  0.00     0.028 H 
ATOM     40  H   X37 d   1      41.392  29.532 107.999  0.00  0.00     0.028 H 
ENDBRANCH  32  37
BRANCH  32  41
ATOM     41  C19 X37 d   1      43.044  27.733 109.146  0.00  0.00    -0.066 C 
ATOM     42  H   X37 d   1      43.976  28.293 109.073  0.00  0.00     0.028 H 
ATOM     43  H   X37 d   1      43.210  26.823 109.723  0.00  0.00     0.028 H 
ATOM     44  H   X37 d   1      42.696  27.472 108.147  0.00  0.00     0.028 H 
ENDBRANCH  32  41
ENDBRANCH  26  32
ENDBRANCH  19  22
ENDBRANCH   4  19
BRANCH   1  45
ATOM     45  C22 X37 d   1      44.868  35.033 114.392  0.00  0.00     0.141 A 
ATOM     46  N23 X37 d   1      46.155  35.300 114.673  0.00  0.00    -0.224 NA
ATOM     47  C24 X37 d   1      46.436  36.533 115.098  0.00  0.00     0.091 A 
ATOM     48  N25 X37 d   1      45.595  37.547 115.275  0.00  0.00    -0.223 NA
ATOM     49  H   X37 d   1      47.483  36.733 115.328  0.00  0.00     0.146 H 
ATOM     50  C26 X37 d   1      44.341  37.261 114.988  0.00  0.00     0.142 A 
ATOM     51  N27 X37 d   1      43.265  38.088 115.068  0.00  0.00    -0.350 N 
ATOM     52  C31 X37 d   1      43.882  36.029 114.537  0.00  0.00     0.057 A 
ATOM     53  C29 X37 d   1      42.161  37.419 114.680  0.00  0.00    -0.020 A 
ATOM     54  H   X37 d   1      43.289  39.061 115.373  0.00  0.00     0.166 HD
ATOM     55  C30 X37 d   1      42.529  36.161 114.353  0.00  0.00    -0.051 A 
ATOM     56  H   X37 d   1      41.149  37.822 114.638  0.00  0.00     0.111 H 
ATOM     57  H   X37 d   1      41.859  35.377 114.000  0.00  0.00     0.087 H 
ENDBRANCH   1  45
TORSDOF 8
