REMARK  6 active torsions:
REMARK  status: ('A' for Active; 'I' for Inactive)
REMARK    1  A    between atoms: N1_1  and  C2_2 
REMARK    2  A    between atoms: C7_7  and  C9_9 
REMARK    3  A    between atoms: C11_11  and  O12_12 
REMARK    4  A    between atoms: O12_12  and  C13_13 
REMARK    5  A    between atoms: C13_13  and  C14_14 
REMARK    6  A    between atoms: C14_14  and  N15_15 
ROOT
ATOM      1  C9  C0P d   1       0.977  11.021  24.661  0.00  0.00     0.018 A 
ATOM      2  C10 C0P d   1       1.751   9.861  24.546  0.00  0.00    -0.035 A 
ATOM      3  C11 C0P d   1       3.098   9.929  24.190  0.00  0.00     0.091 A 
ATOM      4  C22 C0P d   1       3.711  11.189  24.006  0.00  0.00     0.069 A 
ATOM      5 CL23 C0P d   1       5.401  11.318  23.597  0.00  0.00    -0.081 Cl
ATOM      6  C24 C0P d   1       2.970  12.349  24.153  0.00  0.00    -0.037 A 
ATOM      7  C25 C0P d   1       1.620  12.276  24.489  0.00  0.00     0.048 A 
ATOM      8 CL26 C0P d   1       0.736  13.756  24.657  0.00  0.00    -0.083 Cl
ATOM      9  H   C0P d   1       1.295   8.890  24.737  0.00  0.00     0.089 H 
ATOM     10  H   C0P d   1       3.443  13.320  24.006  0.00  0.00     0.088 H 
ENDROOT
BRANCH   3  11
ATOM     11  O12 C0P d   1       3.904   8.836  24.035  0.00  0.00    -0.348 OA
BRANCH  11  12
ATOM     12  C13 C0P d   1       3.343   7.543  24.354  0.00  0.00     0.051 C 
ATOM     13  H   C0P d   1       2.440   7.368  23.770  0.00  0.00     0.077 H 
ATOM     14  H   C0P d   1       3.072   7.498  25.409  0.00  0.00     0.077 H 
BRANCH  12  15
ATOM     15  C14 C0P d   1       4.380   6.501  24.037  0.00  0.00     0.133 C 
ATOM     16  H   C0P d   1       4.737   6.685  23.024  0.00  0.00     0.083 H 
ATOM     17  H   C0P d   1       3.914   5.522  24.152  0.00  0.00     0.083 H 
BRANCH  15  18
ATOM     18  N15 C0P d   1       5.568   6.555  24.960  0.00  0.00     0.094 N 
ATOM     19  C17 C0P d   1       5.155   6.620  26.398  0.00  0.00     0.133 C 
ATOM     20  C18 C0P d   1       6.389   6.682  27.287  0.00  0.00     0.044 C 
ATOM     21  H   C0P d   1       4.576   5.731  26.647  0.00  0.00     0.083 H 
ATOM     22  H   C0P d   1       4.550   7.512  26.559  0.00  0.00     0.083 H 
ATOM     23  O19 C0P d   1       7.243   7.792  26.943  0.00  0.00    -0.388 OA
ATOM     24  H   C0P d   1       6.955   5.760  27.152  0.00  0.00     0.077 H 
ATOM     25  H   C0P d   1       6.061   6.809  28.319  0.00  0.00     0.077 H 
ATOM     26  C20 C0P d   1       7.669   7.695  25.575  0.00  0.00     0.044 C 
ATOM     27  C21 C0P d   1       6.484   7.696  24.624  0.00  0.00     0.133 C 
ATOM     28  H   C0P d   1       8.214   6.760  25.448  0.00  0.00     0.077 H 
ATOM     29  H   C0P d   1       8.297   8.556  25.346  0.00  0.00     0.077 H 
ATOM     30  H   C0P d   1       5.942   8.637  24.722  0.00  0.00     0.083 H 
ATOM     31  H   C0P d   1       6.841   7.585  23.600  0.00  0.00     0.083 H 
ENDBRANCH  15  18
ENDBRANCH  12  15
ENDBRANCH  11  12
ENDBRANCH   3  11
BRANCH   1  32
ATOM     32  C7  C0P d   1      -0.444  10.873  25.080  0.00  0.00     0.091 A 
ATOM     33  C6  C0P d   1      -0.773  10.354  26.310  0.00  0.00    -0.014 A 
ATOM     34  C4  C0P d   1      -2.098  10.275  26.635  0.00  0.00     0.147 A 
ATOM     35  H   C0P d   1      -0.002  10.017  27.003  0.00  0.00     0.092 H 
ATOM     36  N3  C0P d   1      -3.086  10.651  25.823  0.00  0.00    -0.051 NA
ATOM     37 CL5  C0P d   1      -2.560   9.623  28.169  0.00  0.00    -0.062 Cl
ATOM     38  C2  C0P d   1      -2.692  11.143  24.633  0.00  0.00     0.722 A 
ATOM     39  N8  C0P d   1      -1.396  11.283  24.229  0.00  0.00    -0.062 NA
BRANCH  38  40
ATOM     40  N1  C0P d   1      -3.664  11.553  23.781  0.00  0.00    -0.231 N 
ATOM     41  H   C0P d   1      -4.644  11.481  24.053  0.00  0.00     0.174 HD
ATOM     42  H   C0P d   1      -3.415  11.933  22.868  0.00  0.00     0.174 HD
ENDBRANCH  38  40
ENDBRANCH   1  32
TORSDOF 6
