REMARK WARNING: 32 MAX_TORS EXCEEDED!!!
REMARK  35 active torsions:
REMARK  status: ('A' for Active; 'I' for Inactive)
REMARK    1  A    between atoms: N_1  and  CA_2 
REMARK    2  A    between atoms: CA_2  and  C_3 
REMARK    3  A    between atoms: CA_2  and  CB_5 
REMARK       I    between atoms: C_3  and  N_7 
REMARK    4  A    between atoms: CB_5  and  OG_6 
REMARK    5  A    between atoms: N_7  and  CA_8 
REMARK    6  A    between atoms: CA_8  and  C_9 
REMARK    7  A    between atoms: CA_8  and  CB_11 
REMARK       I    between atoms: C_9  and  N_14 
REMARK    8  A    between atoms: CB_11  and  OG1_12 
REMARK    9  A    between atoms: CB_11  and  CG2_13 
REMARK   10  A    between atoms: N_14  and  CA_15 
REMARK   11  A    between atoms: CA_15  and  C_16 
REMARK   12  A    between atoms: CA_15  and  CB_18 
REMARK   13  A    between atoms: CB_18  and  CG_19 
REMARK   14  A    between atoms: CG_19  and  CD1_20 
REMARK   15  A    between atoms: CG_19  and  CD2_21 
REMARK   16  A    between atoms: CA_23  and  CB_26 
REMARK   17  A    between atoms: CB_26  and  CG_27 
REMARK   18  A    between atoms: CG_27  and  CD_28 
REMARK   19  A    between atoms: CD_28  and  NE_29 
REMARK       I    between atoms: NE_29  and  CZ_30 
REMARK       I    between atoms: CZ_30  and  NH1_31 
REMARK   20  A    between atoms: CA_34  and  CB_37 
REMARK   21  A    between atoms: CA_39  and  CB_42 
REMARK   22  A    between atoms: CB_42  and  CG_43 
REMARK   23  A    between atoms: CG_43  and  CD1_44 
REMARK   24  A    between atoms: CG_43  and  CD2_45 
REMARK   25  A    between atoms: CA_47  and  C_48 
REMARK       I    between atoms: C_48  and  N_54 
REMARK   26  A    between atoms: CG_51  and  CD1_52 
REMARK   27  A    between atoms: N_54  and  CA_55 
REMARK   28  A    between atoms: CA_55  and  C_56 
REMARK   29  A    between atoms: CA_55  and  CB_58 
REMARK       I    between atoms: C_56  and  N_61 
REMARK   30  A    between atoms: CB_58  and  OG1_59 
REMARK   31  A    between atoms: CB_58  and  CG2_60 
REMARK   32  A    between atoms: N_61  and  CA_62 
REMARK   33  A    between atoms: CA_62  and  C_63 
REMARK   34  A    between atoms: CA_62  and  CB_65 
REMARK   35  A    between atoms: CB_65  and  CG_66 
REMARK       I    between atoms: CG_66  and  ND2_68 
ROOT
ATOM      1  C   LEU d   1      66.319  21.371  52.796  0.00  0.00     0.159 C 
ATOM      2  O   LEU d   1      66.409  20.662  51.833  0.00  0.00    -0.336 OA
ATOM      3  N   LEU d   1      68.578  18.289  52.288  0.00  0.00    -0.346 N 
ATOM      4  CA  LEU d   1      68.022  17.234  51.481  0.00  0.00     0.089 C 
ATOM      5  C   LEU d   1      68.117  17.524  50.020  0.00  0.00     0.241 C 
ATOM      6  O   LEU d   1      68.412  16.661  49.222  0.00  0.00    -0.271 OA
ATOM      7  N   LEU d   1      67.864  18.745  49.639  0.00  0.00    -0.346 N 
ATOM      8  CA  LEU d   1      67.895  19.017  48.238  0.00  0.00     0.090 C 
ATOM      9  CB  LEU d   1      66.795  19.978  47.818  0.00  0.00    -0.033 C 
ATOM     10  CG  LEU d   1      66.521  21.215  48.652  0.00  0.00    -0.034 C 
ATOM     11  CD2 LEU d   1      66.350  20.872  50.118  0.00  0.00     0.030 C 
ATOM     12  H   LEU d   1      67.974  18.807  52.926  0.00  0.00     0.163 HD
ATOM     13  H   LEU d   1      68.602  16.335  51.690  0.00  0.00     0.087 H 
ATOM     14  H   LEU d   1      67.652  19.478  50.316  0.00  0.00     0.163 HD
ATOM     15  H   LEU d   1      67.692  18.101  47.683  0.00  0.00     0.087 H 
ATOM     16  H   LEU d   1      65.878  19.393  47.884  0.00  0.00     0.037 H 
ATOM     17  H   LEU d   1      67.120  20.364  46.852  0.00  0.00     0.037 H 
ATOM     18  H   LEU d   1      67.383  21.878  48.580  0.00  0.00     0.042 H 
ATOM     19  H   LEU d   1      65.630  21.682  50.233  0.00  0.00     0.075 H 
ATOM     20  H   LEU d   1      66.910  19.948  49.976  0.00  0.00     0.075 H 
ATOM     21  N   ARG d   1      67.181  22.322  53.065  0.00  0.00    -0.254 NA
ATOM     22  CA  ARG d   1      68.283  22.587  52.186  0.00  0.00     0.112 C 
ATOM     23  C   ARG d   1      69.197  21.409  52.105  0.00  0.00     0.243 C 
ATOM     24  O   ARG d   1      69.693  21.083  51.060  0.00  0.00    -0.271 OA
ATOM     25  H   ARG d   1      67.888  22.773  51.187  0.00  0.00     0.091 H 
ATOM     26  N   ALA d   1      69.427  20.747  53.208  0.00  0.00    -0.346 N 
ATOM     27  CA  ALA d   1      70.347  19.655  53.149  0.00  0.00     0.086 C 
ATOM     28  C   ALA d   1      69.854  18.593  52.213  0.00  0.00     0.240 C 
ATOM     29  O   ALA d   1      70.607  18.039  51.453  0.00  0.00    -0.271 OA
ATOM     30  H   ALA d   1      68.966  21.001  54.081  0.00  0.00     0.163 HD
ATOM     31  H   ALA d   1      71.301  20.028  52.777  0.00  0.00     0.086 H 
ENDROOT
BRANCH   1  32
ATOM     32  CA  LEU d   1      65.210  21.215  53.761  0.00  0.00     0.076 C 
ATOM     33  H   LEU d   1      64.653  20.292  53.599  0.00  0.00     0.085 H 
BRANCH  32  34
ATOM     34  N   LEU d   1      65.807  21.262  55.054  0.00  0.00    -0.347 N 
ATOM     35  C   THR d   1      66.689  20.357  55.410  0.00  0.00     0.243 C 
ATOM     36  O   THR d   1      67.017  19.465  54.674  0.00  0.00    -0.271 OA
ATOM     37  H   LEU d   1      65.548  22.002  55.706  0.00  0.00     0.163 HD
BRANCH  35  38
ATOM     38  CA  THR d   1      67.263  20.489  56.799  0.00  0.00     0.113 C 
ATOM     39  H   THR d   1      68.230  19.997  56.909  0.00  0.00     0.091 H 
BRANCH  38  40
ATOM     40  N   THR d   1      67.506  21.888  57.103  0.00  0.00    -0.344 N 
ATOM     41  C   SER d   1      68.399  22.542  56.388  0.00  0.00     0.251 C 
ATOM     42  O   SER d   1      69.091  21.982  55.578  0.00  0.00    -0.271 OA
ATOM     43  H   THR d   1      66.997  22.354  57.854  0.00  0.00     0.163 HD
BRANCH  41  44
ATOM     44  CA  SER d   1      68.526  24.029  56.577  0.00  0.00     0.195 C 
ATOM     45  H   SER d   1      69.090  24.453  55.746  0.00  0.00     0.102 H 
BRANCH  44  46
ATOM     46  N   SER d   1      67.195  24.580  56.616  0.00  0.00    -0.064 N 
ATOM     47  H   SER d   1      66.696  24.322  55.764  0.00  0.00     0.275 HD
ATOM     48  H   SER d   1      66.699  24.210  57.427  0.00  0.00     0.275 HD
ATOM     49  H   SER d   1      67.251  25.596  56.684  0.00  0.00     0.275 HD
ENDBRANCH  44  46
BRANCH  44  50
ATOM     50  CB  SER d   1      69.312  24.389  57.832  0.00  0.00     0.051 C 
ATOM     51  H   SER d   1      69.520  23.471  58.383  0.00  0.00     0.077 H 
ATOM     52  H   SER d   1      68.717  25.086  58.422  0.00  0.00     0.077 H 
BRANCH  50  53
ATOM     53  OG  SER d   1      70.549  25.012  57.515  0.00  0.00    -0.398 OA
ATOM     54  H   SER d   1      71.016  25.224  58.326  0.00  0.00     0.209 HD
ENDBRANCH  50  53
ENDBRANCH  44  50
ENDBRANCH  41  44
ENDBRANCH  38  40
BRANCH  38  55
ATOM     55  CB  THR d   1      66.280  19.854  57.703  0.00  0.00     0.060 C 
ATOM     56  H   THR d   1      65.457  20.542  57.895  0.00  0.00     0.086 H 
BRANCH  55  57
ATOM     57  OG1 THR d   1      66.927  19.500  58.912  0.00  0.00    -0.393 OA
ATOM     58  H   THR d   1      66.294  19.087  59.504  0.00  0.00     0.210 HD
ENDBRANCH  55  57
BRANCH  55  59
ATOM     59  CG2 THR d   1      65.801  18.623  57.078  0.00  0.00    -0.050 C 
ATOM     60  H   THR d   1      66.647  17.966  56.877  0.00  0.00     0.031 H 
ATOM     61  H   THR d   1      65.103  18.124  57.750  0.00  0.00     0.031 H 
ATOM     62  H   THR d   1      65.297  18.864  56.142  0.00  0.00     0.031 H 
ENDBRANCH  55  59
ENDBRANCH  38  55
ENDBRANCH  35  38
ENDBRANCH  32  34
BRANCH  32  63
ATOM     63  CB  LEU d   1      64.287  22.400  53.621  0.00  0.00    -0.036 C 
ATOM     64  H   LEU d   1      64.941  23.240  53.388  0.00  0.00     0.037 H 
ATOM     65  H   LEU d   1      63.713  22.420  54.547  0.00  0.00     0.037 H 
BRANCH  63  66
ATOM     66  CG  LEU d   1      63.252  22.394  52.520  0.00  0.00    -0.059 C 
ATOM     67  H   LEU d   1      62.299  22.768  52.893  0.00  0.00     0.038 H 
BRANCH  66  68
ATOM     68  CD1 LEU d   1      63.659  23.267  51.410  0.00  0.00    -0.073 C 
ATOM     69  H   LEU d   1      63.775  24.287  51.776  0.00  0.00     0.028 H 
ATOM     70  H   LEU d   1      64.607  22.916  51.002  0.00  0.00     0.028 H 
ATOM     71  H   LEU d   1      62.896  23.243  50.632  0.00  0.00     0.028 H 
ENDBRANCH  66  68
BRANCH  66  72
ATOM     72  CD2 LEU d   1      63.136  21.015  52.055  0.00  0.00    -0.073 C 
ATOM     73  H   LEU d   1      64.102  20.677  51.680  0.00  0.00     0.028 H 
ATOM     74  H   LEU d   1      62.824  20.379  52.883  0.00  0.00     0.028 H 
ATOM     75  H   LEU d   1      62.396  20.963  51.256  0.00  0.00     0.028 H 
ENDBRANCH  66  72
ENDBRANCH  63  66
ENDBRANCH  32  63
ENDBRANCH   1  32
BRANCH  22  76
ATOM     76  CB  ARG d   1      69.034  23.814  52.645  0.00  0.00    -0.034 C 
ATOM     77  H   ARG d   1      69.005  23.819  53.735  0.00  0.00     0.036 H 
ATOM     78  H   ARG d   1      68.555  24.676  52.180  0.00  0.00     0.036 H 
BRANCH  76  79
ATOM     79  CG  ARG d   1      70.466  23.840  52.245  0.00  0.00    -0.047 C 
ATOM     80  H   ARG d   1      70.637  23.055  51.509  0.00  0.00     0.035 H 
ATOM     81  H   ARG d   1      71.079  23.686  53.133  0.00  0.00     0.035 H 
BRANCH  79  82
ATOM     82  CD  ARG d   1      70.828  25.144  51.640  0.00  0.00     0.009 C 
ATOM     83  H   ARG d   1      70.472  25.156  50.610  0.00  0.00     0.064 H 
ATOM     84  H   ARG d   1      71.911  25.259  51.693  0.00  0.00     0.064 H 
BRANCH  82  85
ATOM     85  NE  ARG d   1      70.218  26.245  52.345  0.00  0.00    -0.227 N 
ATOM     86  CZ  ARG d   1      69.904  27.386  51.765  0.00  0.00     0.665 C 
ATOM     87  NH1 ARG d   1      70.127  27.548  50.481  0.00  0.00    -0.235 N 
ATOM     88  NH2 ARG d   1      69.350  28.351  52.464  0.00  0.00    -0.235 N 
ATOM     89  H   ARG d   1      70.542  26.792  49.936  0.00  0.00     0.174 HD
ATOM     90  H   ARG d   1      69.885  28.430  50.029  0.00  0.00     0.174 HD
ATOM     91  H   ARG d   1      69.162  28.218  53.458  0.00  0.00     0.174 HD
ATOM     92  H   ARG d   1      69.108  29.233  52.013  0.00  0.00     0.174 HD
ATOM     93  H   ARG d   1      70.020  26.135  53.340  0.00  0.00     0.177 HD
ENDBRANCH  82  85
ENDBRANCH  79  82
ENDBRANCH  76  79
ENDBRANCH  22  76
BRANCH  10  94
ATOM     94  CD1 LEU d   1      65.334  21.915  48.127  0.00  0.00    -0.071 C 
ATOM     95  H   LEU d   1      65.514  22.208  47.093  0.00  0.00     0.028 H 
ATOM     96  H   LEU d   1      64.472  21.250  48.172  0.00  0.00     0.028 H 
ATOM     97  H   LEU d   1      65.141  22.803  48.729  0.00  0.00     0.028 H 
ENDBRANCH  10  94
BRANCH   8  98
ATOM     98  C   LEU d   1      69.260  19.500  47.878  0.00  0.00     0.241 C 
ATOM     99  O   LEU d   1      69.600  19.541  46.722  0.00  0.00    -0.271 OA
ATOM    100  N   THR d   1      70.063  19.782  48.878  0.00  0.00    -0.344 N 
ATOM    101  H   THR d   1      69.732  19.720  49.841  0.00  0.00     0.163 HD
BRANCH 100 102
ATOM    102  CA  THR d   1      71.412  20.179  48.597  0.00  0.00     0.113 C 
ATOM    103  H   THR d   1      71.337  20.831  47.727  0.00  0.00     0.091 H 
BRANCH 102 104
ATOM    104  C   THR d   1      72.294  19.004  48.282  0.00  0.00     0.243 C 
ATOM    105  O   THR d   1      73.441  19.179  47.983  0.00  0.00    -0.271 OA
ATOM    106  N   ASN d   1      71.757  17.798  48.338  0.00  0.00    -0.344 N 
ATOM    107  H   ASN d   1      70.778  17.694  48.605  0.00  0.00     0.163 HD
BRANCH 106 108
ATOM    108  CA  ASN d   1      72.542  16.620  48.024  0.00  0.00     0.104 C 
ATOM    109  H   ASN d   1      73.479  17.016  47.631  0.00  0.00     0.090 H 
BRANCH 108 110
ATOM    110  C   ASN d   1      72.000  15.736  46.922  0.00  0.00     0.197 C 
ATOM    111  O   ASN d   1      72.590  15.654  45.851  0.00  0.00    -0.646 OA
ATOM    112  OXT ASN d   1      70.857  15.482  47.324  0.00  0.00    -0.646 OA
ENDBRANCH 108 110
BRANCH 108 113
ATOM    113  CB  ASN d   1      72.772  15.798  49.271  0.00  0.00     0.037 C 
ATOM    114  H   ASN d   1      73.031  14.783  48.968  0.00  0.00     0.051 H 
ATOM    115  H   ASN d   1      71.862  15.824  49.870  0.00  0.00     0.051 H 
BRANCH 113 116
ATOM    116  CG  ASN d   1      73.886  16.337  50.093  0.00  0.00     0.217 C 
ATOM    117  OD1 ASN d   1      75.025  16.325  49.665  0.00  0.00    -0.274 OA
ATOM    118  ND2 ASN d   1      73.580  16.780  51.293  0.00  0.00    -0.370 N 
ATOM    119  H   ASN d   1      74.313  17.133  51.908  0.00  0.00     0.159 HD
ATOM    120  H   ASN d   1      72.610  16.770  51.608  0.00  0.00     0.159 HD
ENDBRANCH 113 116
ENDBRANCH 108 113
ENDBRANCH 106 108
ENDBRANCH 102 104
BRANCH 102 121
ATOM    121  CB  THR d   1      72.038  20.928  49.732  0.00  0.00     0.060 C 
ATOM    122  H   THR d   1      71.466  20.781  50.648  0.00  0.00     0.086 H 
BRANCH 121 123
ATOM    123  OG1 THR d   1      72.070  22.313  49.411  0.00  0.00    -0.393 OA
ATOM    124  H   THR d   1      72.471  22.799  50.136  0.00  0.00     0.210 HD
ENDBRANCH 121 123
BRANCH 121 125
ATOM    125  CG2 THR d   1      73.426  20.430  49.911  0.00  0.00    -0.050 C 
ATOM    126  H   THR d   1      73.402  19.363  50.135  0.00  0.00     0.031 H 
ATOM    127  H   THR d   1      73.992  20.598  48.995  0.00  0.00     0.031 H 
ATOM    128  H   THR d   1      73.899  20.965  50.735  0.00  0.00     0.031 H 
ENDBRANCH 121 125
ENDBRANCH 102 121
ENDBRANCH 100 102
ENDBRANCH   8  98
BRANCH  27 129
ATOM    129  CB  ALA d   1      70.530  19.088  54.487  0.00  0.00    -0.049 C 
ATOM    130  H   ALA d   1      70.922  19.855  55.155  0.00  0.00     0.030 H 
ATOM    131  H   ALA d   1      69.571  18.732  54.864  0.00  0.00     0.030 H 
ATOM    132  H   ALA d   1      71.232  18.256  54.435  0.00  0.00     0.030 H 
ENDBRANCH  27 129
BRANCH   4 133
ATOM    133  CB  LEU d   1      66.568  17.039  51.833  0.00  0.00    -0.035 C 
ATOM    134  H   LEU d   1      66.154  16.452  51.013  0.00  0.00     0.037 H 
ATOM    135  H   LEU d   1      66.181  18.043  52.005  0.00  0.00     0.037 H 
BRANCH 133 136
ATOM    136  CG  LEU d   1      66.222  16.266  53.082  0.00  0.00    -0.059 C 
ATOM    137  H   LEU d   1      67.016  16.351  53.824  0.00  0.00     0.038 H 
BRANCH 136 138
ATOM    138  CD1 LEU d   1      64.961  16.813  53.604  0.00  0.00    -0.073 C 
ATOM    139  H   LEU d   1      65.093  17.870  53.834  0.00  0.00     0.028 H 
ATOM    140  H   LEU d   1      64.178  16.697  52.854  0.00  0.00     0.028 H 
ATOM    141  H   LEU d   1      64.681  16.275  54.510  0.00  0.00     0.028 H 
ENDBRANCH 136 138
BRANCH 136 142
ATOM    142  CD2 LEU d   1      66.039  14.842  52.742  0.00  0.00    -0.073 C 
ATOM    143  H   LEU d   1      65.231  14.744  52.017  0.00  0.00     0.028 H 
ATOM    144  H   LEU d   1      66.962  14.450  52.315  0.00  0.00     0.028 H 
ATOM    145  H   LEU d   1      65.789  14.284  53.644  0.00  0.00     0.028 H 
ENDBRANCH 136 142
ENDBRANCH 133 136
ENDBRANCH   4 133
TORSDOF 35
