REMARK  6 active torsions:
REMARK  status: ('A' for Active; 'I' for Inactive)
REMARK    1  A    between atoms: C1_1  and  C2_2 
REMARK    2  A    between atoms: C2_2  and  C3_3 
REMARK    3  A    between atoms: C2_2  and  C4_4 
REMARK    4  A    between atoms: C2_2  and  C19_20 
REMARK    5  A    between atoms: C6_6  and  C7_7 
REMARK       I    between atoms: C7_7  and  N9_9 
REMARK    6  A    between atoms: C21_21  and  O22_22 
ROOT
ATOM      1  C4  T5M d   1      14.350  -1.999   9.651  0.00  0.00    -0.017 A 
ATOM      2  C5  T5M d   1      15.373  -2.725   9.053  0.00  0.00    -0.058 A 
ATOM      3  C6  T5M d   1      15.516  -4.087   9.255  0.00  0.00     0.032 A 
ATOM      4  C18 T5M d   1      14.625  -4.751  10.072  0.00  0.00    -0.065 A 
ATOM      5  C20 T5M d   1      13.606  -4.069  10.681  0.00  0.00    -0.050 A 
ATOM      6  C21 T5M d   1      13.457  -2.708  10.484  0.00  0.00     0.072 A 
ATOM      7  H   T5M d   1      16.082  -2.208   8.407  0.00  0.00     0.086 H 
ATOM      8  H   T5M d   1      14.733  -5.824  10.233  0.00  0.00     0.085 H 
ATOM      9  H   T5M d   1      12.907  -4.602  11.326  0.00  0.00     0.087 H 
ENDROOT
BRANCH   3  10
ATOM     10  C7  T5M d   1      16.623  -4.829   8.590  0.00  0.00     0.254 C 
ATOM     11  O8  T5M d   1      17.340  -5.564   9.257  0.00  0.00    -0.267 OA
ATOM     12  N9  T5M d   1      16.787  -4.661   7.233  0.00  0.00    -0.340 N 
ATOM     13  C10 T5M d   1      18.048  -4.927   6.519  0.00  0.00     0.022 C 
ATOM     14  C17 T5M d   1      15.657  -4.521   6.300  0.00  0.00     0.022 C 
ATOM     15  C11 T5M d   1      17.562  -5.382   5.171  0.00  0.00    -0.032 A 
ATOM     16  H   T5M d   1      18.677  -5.663   7.019  0.00  0.00     0.071 H 
ATOM     17  H   T5M d   1      18.704  -4.058   6.468  0.00  0.00     0.071 H 
ATOM     18  C12 T5M d   1      18.262  -5.957   4.120  0.00  0.00    -0.075 A 
ATOM     19  C16 T5M d   1      16.196  -5.152   5.049  0.00  0.00    -0.032 A 
ATOM     20  C13 T5M d   1      17.603  -6.302   2.962  0.00  0.00    -0.082 A 
ATOM     21  H   T5M d   1      19.333  -6.135   4.211  0.00  0.00     0.084 H 
ATOM     22  C14 T5M d   1      16.243  -6.074   2.842  0.00  0.00    -0.082 A 
ATOM     23  H   T5M d   1      18.153  -6.756   2.138  0.00  0.00     0.083 H 
ATOM     24  C15 T5M d   1      15.542  -5.501   3.881  0.00  0.00    -0.075 A 
ATOM     25  H   T5M d   1      15.725  -6.348   1.923  0.00  0.00     0.083 H 
ATOM     26  H   T5M d   1      14.471  -5.323   3.782  0.00  0.00     0.084 H 
ATOM     27  H   T5M d   1      15.343  -3.487   6.158  0.00  0.00     0.071 H 
ATOM     28  H   T5M d   1      14.743  -4.993   6.659  0.00  0.00     0.071 H 
ENDBRANCH   3  10
BRANCH   1  29
ATOM     29  C2  T5M d   1      14.229  -0.478   9.404  0.00  0.00    -0.021 C 
BRANCH  29  30
ATOM     30  C1  T5M d   1      14.496   0.293  10.696  0.00  0.00    -0.066 C 
ATOM     31  H   T5M d   1      15.513   0.093  11.033  0.00  0.00     0.028 H 
ATOM     32  H   T5M d   1      14.376   1.361  10.512  0.00  0.00     0.028 H 
ATOM     33  H   T5M d   1      13.789  -0.027  11.461  0.00  0.00     0.028 H 
ENDBRANCH  29  30
BRANCH  29  34
ATOM     34  C3  T5M d   1      12.826  -0.117   8.913  0.00  0.00    -0.066 C 
ATOM     35  H   T5M d   1      12.755   0.963   8.783  0.00  0.00     0.028 H 
ATOM     36  H   T5M d   1      12.637  -0.612   7.960  0.00  0.00     0.028 H 
ATOM     37  H   T5M d   1      12.090  -0.446   9.647  0.00  0.00     0.028 H 
ENDBRANCH  29  34
BRANCH  29  38
ATOM     38  C19 T5M d   1      15.239  -0.004   8.353  0.00  0.00    -0.066 C 
ATOM     39  H   T5M d   1      16.250  -0.221   8.698  0.00  0.00     0.028 H 
ATOM     40  H   T5M d   1      15.055  -0.525   7.413  0.00  0.00     0.028 H 
ATOM     41  H   T5M d   1      15.128   1.070   8.203  0.00  0.00     0.028 H 
ENDBRANCH  29  38
ENDBRANCH   1  29
BRANCH   6  42
ATOM     42  O22 T5M d   1      12.426  -2.077  11.113  0.00  0.00    -0.360 OA
ATOM     43  H   T5M d   1      12.440  -1.143  10.891  0.00  0.00     0.217 HD
ENDBRANCH   6  42
TORSDOF 6
