REMARK  4 active torsions:
REMARK  status: ('A' for Active; 'I' for Inactive)
REMARK    1  A    between atoms: O8_1  and  C9_2 
REMARK    2  A    between atoms: C9_2  and  C10_3 
REMARK    3  A    between atoms: C8_6  and  C7_7 
REMARK    4  A    between atoms: C7_7  and  C1_8 
ROOT
ATOM      1  C1  XI7 d   1     -66.313  51.752 -33.659  0.00  0.00     0.014 A 
ATOM      2  C6  XI7 d   1     -65.726  50.677 -32.963  0.00  0.00    -0.069 A 
ATOM      3  C5  XI7 d   1     -65.186  49.574 -33.644  0.00  0.00    -0.082 A 
ATOM      4  C4  XI7 d   1     -65.221  49.546 -35.044  0.00  0.00    -0.083 A 
ATOM      5  C3  XI7 d   1     -65.803  50.625 -35.741  0.00  0.00    -0.082 A 
ATOM      6  C2  XI7 d   1     -66.335  51.730 -35.052  0.00  0.00    -0.069 A 
ATOM      7  H   XI7 d   1     -65.690  50.702 -31.874  0.00  0.00     0.085 H 
ATOM      8  H   XI7 d   1     -64.744  48.747 -33.088  0.00  0.00     0.083 H 
ATOM      9  H   XI7 d   1     -64.803  48.700 -35.589  0.00  0.00     0.083 H 
ATOM     10  H   XI7 d   1     -65.841  50.602 -36.830  0.00  0.00     0.083 H 
ATOM     11  H   XI7 d   1     -66.763  52.566 -35.606  0.00  0.00     0.085 H 
ENDROOT
BRANCH   1  12
ATOM     12  C7  XI7 d   1     -66.854  52.928 -32.870  0.00  0.00     0.185 C 
ATOM     13  O14 XI7 d   1     -66.284  54.005 -33.040  0.00  0.00    -0.287 OA
BRANCH  12  14
ATOM     14  C8  XI7 d   1     -67.909  52.674 -31.853  0.00  0.00     0.005 C 
ATOM     15  C9  XI7 d   1     -68.348  53.550 -30.917  0.00  0.00     0.146 C 
ATOM     16  H   XI7 d   1     -68.374  51.688 -31.861  0.00  0.00     0.094 H 
BRANCH  15  17
ATOM     17  O8  XI7 d   1     -67.879  54.801 -30.847  0.00  0.00    -0.355 OA
ATOM     18  H   XI7 d   1     -67.245  54.944 -31.554  0.00  0.00     0.218 HD
ENDBRANCH  15  17
BRANCH  15  19
ATOM     19  C10 XI7 d   1     -69.261  53.154 -29.998  0.00  0.00     0.233 C 
ATOM     20  O11 XI7 d   1     -69.651  53.953 -29.100  0.00  0.00    -0.642 OA
ATOM     21  O10 XI7 d   1     -69.730  51.985 -30.049  0.00  0.00    -0.642 OA
ENDBRANCH  15  19
ENDBRANCH  12  14
ENDBRANCH   1  12
TORSDOF 4
