REMARK  2 active torsions:
REMARK  status: ('A' for Active; 'I' for Inactive)
REMARK    1  A    between atoms: CD1_2  and  C_10 
REMARK    2  A    between atoms: C_10  and  O_11 
ROOT
ATOM      1  NG  XIY d   1     -21.966 -35.290  -1.591  0.00  0.00    -0.231 NA
ATOM      2  CD1 XIY d   1     -21.756 -34.165  -0.895  0.00  0.00     0.128 A 
ATOM      3  NE1 XIY d   1     -22.072 -34.372   0.394  0.00  0.00    -0.341 N 
ATOM      4  CE2 XIY d   1     -22.483 -35.638   0.519  0.00  0.00     0.062 A 
ATOM      5  CZ2 XIY d   1     -22.925 -36.378   1.613  0.00  0.00    -0.055 A 
ATOM      6  CH2 XIY d   1     -23.299 -37.718   1.443  0.00  0.00    -0.081 A 
ATOM      7  CZ3 XIY d   1     -23.227 -38.301   0.174  0.00  0.00    -0.081 A 
ATOM      8  CE3 XIY d   1     -22.781 -37.549  -0.924  0.00  0.00    -0.053 A 
ATOM      9  CD2 XIY d   1     -22.406 -36.221  -0.748  0.00  0.00     0.085 A 
ATOM     10  H1  XIY d   1     -22.009 -33.678   1.152  0.00  0.00     0.167 HD
ATOM     11  H2  XIY d   1     -22.980 -35.919   2.593  0.00  0.00     0.087 H 
ATOM     12  H3  XIY d   1     -23.642 -38.300   2.291  0.00  0.00     0.083 H 
ATOM     13  H4  XIY d   1     -23.517 -39.337   0.038  0.00  0.00     0.083 H 
ATOM     14  H5  XIY d   1     -22.729 -38.002  -1.907  0.00  0.00     0.087 H 
ENDROOT
BRANCH   2  15
ATOM     15  C   XIY d   1     -21.243 -32.841  -1.461  0.00  0.00     0.071 C 
ATOM     16  H6  XIY d   1     -21.997 -32.419  -2.141  0.00  0.00     0.086 H 
ATOM     17  H7  XIY d   1     -20.309 -33.019  -2.014  0.00  0.00     0.086 H 
BRANCH  15  18
ATOM     18  O   XIY d   1     -20.996 -31.920  -0.398  0.00  0.00    -0.393 OA
ATOM     19  H8  XIY d   1     -20.678 -31.101  -0.758  0.00  0.00     0.209 HD
ENDBRANCH  15  18
ENDBRANCH   2  15
TORSDOF 2
