REMARK  2 active torsions:
REMARK  status: ('A' for Active; 'I' for Inactive)
REMARK    1  A    between atoms: C1_1  and  C2_4 
REMARK    2  A    between atoms: C3_5  and  C1'_6 
ROOT
ATOM      1  C1' XIZ d   1     -22.521 -35.451   0.819  0.00  0.00    -0.033 A 
ATOM      2  C2' XIZ d   1     -22.110 -35.559  -0.515  0.00  0.00    -0.056 A 
ATOM      3  C3' XIZ d   1     -22.243 -36.778  -1.180  0.00  0.00     0.003 A 
ATOM      4  C5' XIZ d   1     -23.170 -37.769   0.713  0.00  0.00     0.003 A 
ATOM      5  C6' XIZ d   1     -23.068 -36.570   1.438  0.00  0.00    -0.056 A 
ATOM      6  N4  XIZ d   1     -22.759 -37.835  -0.554  0.00  0.00    -0.273 NA
ATOM      7  H   XIZ d   1     -21.689 -34.696  -1.031  0.00  0.00     0.086 H 
ATOM      8  H   XIZ d   1     -21.923 -36.866  -2.218  0.00  0.00     0.114 H 
ATOM      9  H   XIZ d   1     -23.589 -38.654   1.191  0.00  0.00     0.114 H 
ATOM     10  H   XIZ d   1     -23.413 -36.517   2.471  0.00  0.00     0.086 H 
ENDROOT
BRANCH   1  11
ATOM     11  C3  XIZ d   1     -22.427 -34.236   1.506  0.00  0.00    -0.067 C 
ATOM     12  C2  XIZ d   1     -21.835 -33.104   0.929  0.00  0.00    -0.009 C 
ATOM     13  H   XIZ d   1     -21.393 -33.184  -0.064  0.00  0.00     0.094 H 
ATOM     14  H   XIZ d   1     -22.825 -34.168   2.518  0.00  0.00     0.085 H 
BRANCH  12  15
ATOM     15  C1  XIZ d   1     -21.796 -31.871   1.597  0.00  0.00     0.198 C 
ATOM     16  O1  XIZ d   1     -21.235 -30.919   1.005  0.00  0.00    -0.645 OA
ATOM     17  O2  XIZ d   1     -22.315 -31.776   2.739  0.00  0.00    -0.645 OA
ENDBRANCH  12  15
ENDBRANCH   1  11
TORSDOF 2
