REMARK  3 active torsions:
REMARK  status: ('A' for Active; 'I' for Inactive)
REMARK    1  A    between atoms: C_2  and  CA_4 
REMARK    2  A    between atoms: CB_5  and  CG_6 
REMARK    3  A    between atoms: CZ_9  and  NH2_10 
ROOT
ATOM      1  CG  XJ0 d   1     -22.093 -35.170   0.312  0.00  0.00     0.000 A 
ATOM      2  CD  XJ0 d   1     -21.916 -35.260  -1.065  0.00  0.00     0.032 A 
ATOM      3  NE  XJ0 d   1     -22.185 -36.393  -1.690  0.00  0.00    -0.075 NA
ATOM      4  CZ  XJ0 d   1     -22.633 -37.465  -1.018  0.00  0.00     0.719 A 
ATOM      5  NH1 XJ0 d   1     -22.812 -37.404   0.310  0.00  0.00    -0.075 NA
ATOM      6  C10 XJ0 d   1     -22.555 -36.296   0.983  0.00  0.00     0.032 A 
ATOM      7  H   XJ0 d   1     -21.556 -34.398  -1.627  0.00  0.00     0.117 H 
ATOM      8  H   XJ0 d   1     -22.705 -36.265   2.062  0.00  0.00     0.117 H 
ENDROOT
BRANCH   1   9
ATOM      9  CB  XJ0 d   1     -21.824 -34.002   1.019  0.00  0.00    -0.064 C 
ATOM     10  CA  XJ0 d   1     -21.360 -32.847   0.400  0.00  0.00    -0.009 C 
ATOM     11  H   XJ0 d   1     -21.195 -32.836  -0.677  0.00  0.00     0.094 H 
ATOM     12  H   XJ0 d   1     -21.983 -33.992   2.097  0.00  0.00     0.085 H 
BRANCH  10  13
ATOM     13  C   XJ0 d   1     -21.106 -31.706   1.152  0.00  0.00     0.198 C 
ATOM     14  OB  XJ0 d   1     -20.694 -30.691   0.549  0.00  0.00    -0.645 OA
ATOM     15  OA  XJ0 d   1     -21.304 -31.757   2.386  0.00  0.00    -0.645 OA
ENDBRANCH  10  13
ENDBRANCH   1   9
BRANCH   4  16
ATOM     16  NH2 XJ0 d   1     -22.902 -38.590  -1.674  0.00  0.00    -0.231 N 
ATOM     17  H   XJ0 d   1     -22.768 -38.636  -2.684  0.00  0.00     0.174 HD
ATOM     18  H   XJ0 d   1     -23.243 -39.407  -1.167  0.00  0.00     0.174 HD
ENDBRANCH   4  16
TORSDOF 3
