REMARK  8 active torsions:
REMARK  status: ('A' for Active; 'I' for Inactive)
REMARK       I    between atoms: C5_2  and  N4_3 
REMARK    1  A    between atoms: C5_2  and  C7_9 
REMARK    2  A    between atoms: N4_3  and  C3_4 
REMARK    3  A    between atoms: C3_4  and  C16_5 
REMARK    4  A    between atoms: C3_4  and  B_6 
REMARK    5  A    between atoms: B_6  and  O1_7 
REMARK    6  A    between atoms: B_6  and  O2_8 
REMARK    7  A    between atoms: C8_10  and  C9_15 
REMARK    8  A    between atoms: C9_15  and  C17_16 
ROOT
ATOM      1  C7  EWB d   1     -27.435  43.781  60.300  0.00  0.00     0.038 A 
ATOM      2  C8  EWB d   1     -28.632  44.457  60.554  0.00  0.00    -0.038 A 
ATOM      3  C11 EWB d   1     -29.080  45.407  59.638  0.00  0.00    -0.076 A 
ATOM      4  C12 EWB d   1     -28.328  45.675  58.493  0.00  0.00    -0.082 A 
ATOM      5  C13 EWB d   1     -27.132  45.004  58.243  0.00  0.00    -0.082 A 
ATOM      6  C14 EWB d   1     -26.687  44.053  59.150  0.00  0.00    -0.067 A 
ATOM      7  H   EWB d   1     -30.015  45.939  59.815  0.00  0.00     0.084 H 
ATOM      8  H   EWB d   1     -28.682  46.422  57.782  0.00  0.00     0.083 H 
ATOM      9  H   EWB d   1     -26.553  45.224  57.346  0.00  0.00     0.083 H 
ATOM     10  H   EWB d   1     -25.755  43.518  58.966  0.00  0.00     0.085 H 
ENDROOT
BRANCH   1  11
ATOM     11  C5  EWB d   1     -26.893  42.756  61.244  0.00  0.00     0.251 C 
ATOM     12  O6  EWB d   1     -26.525  43.134  62.349  0.00  0.00    -0.268 OA
ATOM     13  N4  EWB d   1     -26.809  41.477  60.850  0.00  0.00    -0.356 N 
ATOM     14  H   EWB d   1     -27.137  41.196  59.926  0.00  0.00     0.162 HD
BRANCH  13  15
ATOM     15  C3  EWB d   1     -26.239  40.494  61.768  0.00  0.00     0.043 C 
ATOM     16  H   EWB d   1     -26.446  40.803  62.793  0.00  0.00     0.064 H 
BRANCH  15  17
ATOM     17  C16 EWB d   1     -24.749  40.436  61.467  0.00  0.00    -0.060 C 
ATOM     18  H   EWB d   1     -24.264  39.760  62.171  0.00  0.00     0.029 H 
ATOM     19  H   EWB d   1     -24.599  40.073  60.450  0.00  0.00     0.029 H 
ATOM     20  H   EWB d   1     -24.321  41.434  61.565  0.00  0.00     0.029 H 
ENDBRANCH  15  17
BRANCH  15  21
ATOM     21  B   EWB d   1     -26.889  39.034  61.629  0.00  0.00     0.514 B 
BRANCH  21  22
ATOM     22  O1  EWB d   1     -26.996  38.653  60.142  0.00  0.00    -0.436 OA
ATOM     23  H   EWB d   1     -27.549  39.293  59.688  0.00  0.00     0.184 HD
ENDBRANCH  21  22
BRANCH  21  24
ATOM     24  O2  EWB d   1     -28.278  39.049  62.288  0.00  0.00    -0.436 OA
ATOM     25  H   EWB d   1     -28.189  39.288  63.213  0.00  0.00     0.184 HD
ENDBRANCH  21  24
ENDBRANCH  15  21
ENDBRANCH  13  15
ENDBRANCH   1  11
BRANCH   2  26
ATOM     26  C9  EWB d   1     -29.456  44.191  61.808  0.00  0.00    -0.016 C 
ATOM     27  H   EWB d   1     -30.190  44.993  61.885  0.00  0.00     0.047 H 
ATOM     28  H   EWB d   1     -28.759  44.138  62.644  0.00  0.00     0.047 H 
BRANCH  26  29
ATOM     29  C17 EWB d   1     -30.225  42.884  61.785  0.00  0.00    -0.054 A 
ATOM     30  C22 EWB d   1     -30.545  42.277  63.000  0.00  0.00    -0.077 A 
ATOM     31  C21 EWB d   1     -31.266  41.085  63.006  0.00  0.00    -0.082 A 
ATOM     32  H   EWB d   1     -30.233  42.733  63.939  0.00  0.00     0.084 H 
ATOM     33  C20 EWB d   1     -31.663  40.498  61.797  0.00  0.00    -0.083 A 
ATOM     34  H   EWB d   1     -31.522  40.608  63.952  0.00  0.00     0.083 H 
ATOM     35  C19 EWB d   1     -31.352  41.102  60.576  0.00  0.00    -0.082 A 
ATOM     36  H   EWB d   1     -32.220  39.561  61.809  0.00  0.00     0.083 H 
ATOM     37  C18 EWB d   1     -30.628  42.295  60.577  0.00  0.00    -0.077 A 
ATOM     38  H   EWB d   1     -31.670  40.648  59.637  0.00  0.00     0.083 H 
ATOM     39  H   EWB d   1     -30.373  42.773  59.631  0.00  0.00     0.084 H 
ENDBRANCH  26  29
ENDBRANCH   2  26
TORSDOF 8
