REMARK  6 active torsions:
REMARK  status: ('A' for Active; 'I' for Inactive)
REMARK    1  A    between atoms: C01_1  and  C02_2 
REMARK    2  A    between atoms: C02_2  and  C03_3 
REMARK    3  A    between atoms: C07_7  and  C08_8 
REMARK    4  A    between atoms: C11_11  and  N12_12 
REMARK    5  A    between atoms: C13_13  and  C14_14 
REMARK    6  A    between atoms: C17_17  and  C18_18 
ROOT
ATOM      1  C08 XK3 d   1      26.391   8.408 -20.508  0.00  0.00     0.088 A 
ATOM      2  C09 XK3 d   1      26.370   7.210 -21.244  0.00  0.00     0.033 A 
ATOM      3  N10 XK3 d   1      25.853   6.073 -20.640  0.00  0.00    -0.239 NA
ATOM      4  C11 XK3 d   1      25.339   6.120 -19.357  0.00  0.00     0.146 A 
ATOM      5  C13 XK3 d   1      25.334   7.332 -18.655  0.00  0.00     0.084 A 
ATOM      6  N23 XK3 d   1      25.848   8.468 -19.250  0.00  0.00    -0.247 NA
ATOM      7  H   XK3 d   1      26.751   7.176 -22.265  0.00  0.00     0.118 H 
ENDROOT
BRANCH   5   8
ATOM      8  C14 XK3 d   1      24.746   7.487 -17.279  0.00  0.00    -0.008 C 
ATOM      9  C15 XK3 d   1      25.403   8.451 -16.279  0.00  0.00    -0.056 C 
ATOM     10  C16 XK3 d   1      25.088   8.177 -14.819  0.00  0.00    -0.052 C 
ATOM     11  H   XK3 d   1      25.017   9.446 -16.502  0.00  0.00     0.034 H 
ATOM     12  H   XK3 d   1      26.481   8.337 -16.395  0.00  0.00     0.034 H 
ATOM     13  C17 XK3 d   1      23.603   7.957 -14.569  0.00  0.00     0.030 C 
ATOM     14  H   XK3 d   1      25.399   9.047 -14.241  0.00  0.00     0.034 H 
ATOM     15  H   XK3 d   1      25.614   7.268 -14.528  0.00  0.00     0.034 H 
ATOM     16  C21 XK3 d   1      22.976   6.908 -15.502  0.00  0.00    -0.052 C 
ATOM     17  H   XK3 d   1      23.118   8.870 -14.915  0.00  0.00     0.056 H 
ATOM     18  C22 XK3 d   1      23.266   7.170 -16.980  0.00  0.00    -0.056 C 
ATOM     19  H   XK3 d   1      21.895   6.946 -15.365  0.00  0.00     0.034 H 
ATOM     20  H   XK3 d   1      23.405   5.939 -15.247  0.00  0.00     0.034 H 
ATOM     21  H   XK3 d   1      23.012   6.262 -17.526  0.00  0.00     0.034 H 
ATOM     22  H   XK3 d   1      22.681   8.041 -17.276  0.00  0.00     0.034 H 
ATOM     23  H   XK3 d   1      25.178   6.510 -17.064  0.00  0.00     0.050 H 
BRANCH  13  24
ATOM     24  C18 XK3 d   1      23.100   8.116 -13.184  0.00  0.00     0.177 C 
ATOM     25  O19 XK3 d   1      23.452   9.077 -12.535  0.00  0.00    -0.648 OA
ATOM     26  O20 XK3 d   1      22.433   7.091 -12.565  0.00  0.00    -0.648 OA
ENDBRANCH  13  24
ENDBRANCH   5   8
BRANCH   4  27
ATOM     27  N12 XK3 d   1      24.753   4.967 -18.764  0.00  0.00    -0.382 N 
ATOM     28  H   XK3 d   1      24.708   4.092 -19.286  0.00  0.00     0.157 HD
ATOM     29  H   XK3 d   1      24.378   5.016 -17.817  0.00  0.00     0.157 HD
ENDBRANCH   4  27
BRANCH   1  30
ATOM     30  C07 XK3 d   1      26.859   9.603 -21.039  0.00  0.00     0.020 A 
ATOM     31  C03 XK3 d   1      27.846   9.800 -22.215  0.00  0.00    -0.004 A 
ATOM     32  C04 XK3 d   1      28.087  11.428 -22.402  0.00  0.00    -0.088 A 
ATOM     33  H   XK3 d   1      28.418   8.990 -22.667  0.00  0.00     0.054 H 
ATOM     34  C05 XK3 d   1      27.280  12.150 -21.404  0.00  0.00    -0.047 A 
ATOM     35  H   XK3 d   1      28.738  11.890 -23.144  0.00  0.00     0.078 H 
ATOM     36  S06 XK3 d   1      26.466  10.992 -20.500  0.00  0.00    -0.104 SA
ATOM     37  H   XK3 d   1      27.222  13.231 -21.276  0.00  0.00     0.094 H 
BRANCH  31  38
ATOM     38  C02 XK3 d   1      28.435   8.730 -23.064  0.00  0.00    -0.058 C 
ATOM     39  H   XK3 d   1      29.446   8.550 -22.698  0.00  0.00     0.033 H 
ATOM     40  H   XK3 d   1      27.773   7.867 -22.997  0.00  0.00     0.033 H 
BRANCH  38  41
ATOM     41  C01 XK3 d   1      28.548   9.085 -24.505  0.00  0.00    -0.076 C 
ATOM     42  H   XK3 d   1      27.557   9.300 -24.904  0.00  0.00     0.027 H 
ATOM     43  H   XK3 d   1      29.183   9.964 -24.613  0.00  0.00     0.027 H 
ATOM     44  H   XK3 d   1      28.987   8.249 -25.050  0.00  0.00     0.027 H 
ENDBRANCH  38  41
ENDBRANCH  31  38
ENDBRANCH   1  30
TORSDOF 6
