REMARK  13 active torsions:
REMARK  status: ('A' for Active; 'I' for Inactive)
REMARK    1  A    between atoms: C01_1  and  C02_2 
REMARK    2  A    between atoms: C02_2  and  O03_3 
REMARK    3  A    between atoms: O03_3  and  C04_4 
REMARK    4  A    between atoms: C06_6  and  C07_7 
REMARK    5  A    between atoms: C09_9  and  C10_10 
REMARK    6  A    between atoms: C12_12  and  O13_13 
REMARK    7  A    between atoms: O13_13  and  C14_14 
REMARK    8  A    between atoms: C15_15  and  O16_16 
REMARK    9  A    between atoms: O16_16  and  C17_17 
REMARK   10  A    between atoms: C18_18  and  O19_19 
REMARK   11  A    between atoms: O19_19  and  C20_20 
REMARK   12  A    between atoms: C24_24  and  N25_25 
REMARK   13  A    between atoms: C28_28  and  C29_29 
ROOT
ATOM      1  C07 OL2 d   1     -25.353  22.353 -18.616  0.00  0.00     0.113 A 
ATOM      2  N08 OL2 d   1     -25.877  21.308 -19.260  0.00  0.00    -0.242 NA
ATOM      3  C09 OL2 d   1     -26.443  21.464 -20.462  0.00  0.00     0.085 A 
ATOM      4  C22 OL2 d   1     -26.429  22.715 -21.086  0.00  0.00     0.033 A 
ATOM      5  N23 OL2 d   1     -25.853  23.749 -20.464  0.00  0.00    -0.239 NA
ATOM      6  C24 OL2 d   1     -25.292  23.595 -19.255  0.00  0.00     0.150 A 
ATOM      7  H   OL2 d   1     -26.883  22.846 -22.069  0.00  0.00     0.118 H 
ENDROOT
BRANCH   3   8
ATOM      8  C10 OL2 d   1     -27.002  20.353 -21.071  0.00  0.00    -0.000 A 
ATOM      9  C11 OL2 d   1     -26.873  19.110 -20.443  0.00  0.00    -0.036 A 
ATOM     10  C12 OL2 d   1     -27.412  17.964 -21.043  0.00  0.00     0.105 A 
ATOM     11  H   OL2 d   1     -26.354  19.033 -19.488  0.00  0.00     0.089 H 
ATOM     12  C15 OL2 d   1     -28.078  18.064 -22.273  0.00  0.00     0.135 A 
ATOM     13  C18 OL2 d   1     -28.201  19.316 -22.910  0.00  0.00     0.105 A 
ATOM     14  C21 OL2 d   1     -27.662  20.458 -22.302  0.00  0.00    -0.036 A 
ATOM     15  H   OL2 d   1     -27.756  21.429 -22.788  0.00  0.00     0.089 H 
BRANCH  10  16
ATOM     16  O13 OL2 d   1     -27.303  16.718 -20.407  0.00  0.00    -0.353 OA
BRANCH  16  17
ATOM     17  C14 OL2 d   1     -26.781  16.644 -19.109  0.00  0.00     0.010 C 
ATOM     18  H   OL2 d   1     -25.764  17.036 -19.105  0.00  0.00     0.066 H 
ATOM     19  H   OL2 d   1     -27.402  17.234 -18.435  0.00  0.00     0.066 H 
ATOM     20  H   OL2 d   1     -26.773  15.605 -18.781  0.00  0.00     0.066 H 
ENDBRANCH  16  17
ENDBRANCH  10  16
BRANCH  12  21
ATOM     21  O16 OL2 d   1     -28.570  16.886 -22.850  0.00  0.00    -0.351 OA
BRANCH  21  22
ATOM     22  C17 OL2 d   1     -27.656  15.942 -23.358  0.00  0.00     0.011 C 
ATOM     23  H   OL2 d   1     -27.058  16.404 -24.144  0.00  0.00     0.067 H 
ATOM     24  H   OL2 d   1     -27.003  15.602 -22.555  0.00  0.00     0.067 H 
ATOM     25  H   OL2 d   1     -28.203  15.093 -23.767  0.00  0.00     0.067 H 
ENDBRANCH  21  22
ENDBRANCH  12  21
BRANCH  13  26
ATOM     26  O19 OL2 d   1     -28.873  19.453 -24.131  0.00  0.00    -0.353 OA
BRANCH  26  27
ATOM     27  C20 OL2 d   1     -28.371  18.798 -25.257  0.00  0.00     0.010 C 
ATOM     28  H   OL2 d   1     -27.360  19.150 -25.460  0.00  0.00     0.066 H 
ATOM     29  H   OL2 d   1     -28.353  17.724 -25.073  0.00  0.00     0.066 H 
ATOM     30  H   OL2 d   1     -29.010  19.011 -26.114  0.00  0.00     0.066 H 
ENDBRANCH  26  27
ENDBRANCH  13  26
ENDBRANCH   3   8
BRANCH   1  31
ATOM     31  C06 OL2 d   1     -24.716  22.155 -17.405  0.00  0.00    -0.001 A 
ATOM     32  C05 OL2 d   1     -25.367  21.522 -16.341  0.00  0.00    -0.037 A 
ATOM     33  C04 OL2 d   1     -24.676  21.313 -15.140  0.00  0.00     0.086 A 
ATOM     34  H   OL2 d   1     -26.401  21.195 -16.445  0.00  0.00     0.089 H 
ATOM     35  C28 OL2 d   1     -23.345  21.741 -15.013  0.00  0.00     0.074 A 
ATOM     36  C27 OL2 d   1     -22.696  22.366 -16.080  0.00  0.00    -0.063 A 
ATOM     37  C26 OL2 d   1     -23.383  22.565 -17.280  0.00  0.00    -0.070 A 
ATOM     38  H   OL2 d   1     -21.662  22.696 -15.977  0.00  0.00     0.085 H 
ATOM     39  H   OL2 d   1     -22.880  23.041 -18.122  0.00  0.00     0.085 H 
BRANCH  33  40
ATOM     40  O03 OL2 d   1     -25.322  20.715 -14.054  0.00  0.00    -0.350 OA
BRANCH  40  41
ATOM     41  C02 OL2 d   1     -25.984  19.496 -14.205  0.00  0.00     0.023 C 
ATOM     42  H   OL2 d   1     -26.548  19.572 -15.134  0.00  0.00     0.074 H 
ATOM     43  H   OL2 d   1     -25.213  18.727 -14.166  0.00  0.00     0.074 H 
BRANCH  41  44
ATOM     44  C01 OL2 d   1     -26.999  19.133 -13.122  0.00  0.00    -0.056 C 
ATOM     45  H   OL2 d   1     -26.496  19.082 -12.156  0.00  0.00     0.030 H 
ATOM     46  H   OL2 d   1     -27.779  19.894 -13.087  0.00  0.00     0.030 H 
ATOM     47  H   OL2 d   1     -27.444  18.165 -13.353  0.00  0.00     0.030 H 
ENDBRANCH  41  44
ENDBRANCH  40  41
ENDBRANCH  33  40
BRANCH  35  48
ATOM     48  C29 OL2 d   1     -22.577  21.529 -13.715  0.00  0.00     0.212 C 
ATOM     49  O30 OL2 d   1     -23.081  21.794 -12.675  0.00  0.00    -0.644 OA
ATOM     50  O31 OL2 d   1     -21.203  21.272 -13.792  0.00  0.00    -0.644 OA
ENDBRANCH  35  48
ENDBRANCH   1  31
BRANCH   6  51
ATOM     51  N25 OL2 d   1     -24.663  24.721 -18.595  0.00  0.00    -0.382 N 
ATOM     52  H   OL2 d   1     -24.646  25.634 -19.049  0.00  0.00     0.157 HD
ATOM     53  H   OL2 d   1     -24.237  24.601 -17.676  0.00  0.00     0.157 HD
ENDBRANCH   6  51
TORSDOF 13
