REMARK  5 active torsions:
REMARK  status: ('A' for Active; 'I' for Inactive)
REMARK    1  A    between atoms: N01_1  and  C02_2 
REMARK    2  A    between atoms: C05_5  and  C06_6 
REMARK    3  A    between atoms: C10_10  and  C11_11 
REMARK    4  A    between atoms: C15_15  and  C16_16 
REMARK    5  A    between atoms: C19_19  and  C20_20 
ROOT
ATOM      1  C02 EQH d   1      25.308   6.241 -18.959  0.00  0.00     0.146 A 
ATOM      2  N03 EQH d   1      25.765   6.103 -20.273  0.00  0.00    -0.240 NA
ATOM      3  C04 EQH d   1      26.302   7.149 -20.909  0.00  0.00     0.029 A 
ATOM      4  C05 EQH d   1      26.413   8.455 -20.230  0.00  0.00     0.066 A 
ATOM      5  N14 EQH d   1      25.966   8.602 -18.926  0.00  0.00    -0.251 NA
ATOM      6  C15 EQH d   1      25.415   7.531 -18.281  0.00  0.00     0.084 A 
ATOM      7  H   EQH d   1      26.659   7.037 -21.933  0.00  0.00     0.118 H 
ENDROOT
BRANCH   4   8
ATOM      8  C06 EQH d   1      27.045   9.561 -21.017  0.00  0.00     0.038 C 
ATOM      9  S07 EQH d   1      26.461  11.108 -20.286  0.00  0.00    -0.158 SA
ATOM     10  C08 EQH d   1      27.155  12.284 -21.251  0.00  0.00    -0.022 C 
ATOM     11  C09 EQH d   1      28.298  11.559 -22.081  0.00  0.00    -0.052 C 
ATOM     12  H   EQH d   1      27.562  13.096 -20.649  0.00  0.00     0.049 H 
ATOM     13  H   EQH d   1      26.416  12.736 -21.912  0.00  0.00     0.049 H 
ATOM     14  C10 EQH d   1      27.855  10.012 -22.279  0.00  0.00    -0.033 C 
ATOM     15  H   EQH d   1      29.248  11.617 -21.550  0.00  0.00     0.034 H 
ATOM     16  H   EQH d   1      28.430  12.043 -23.049  0.00  0.00     0.034 H 
ATOM     17  H   EQH d   1      27.092   9.436 -22.802  0.00  0.00     0.043 H 
ATOM     18  H   EQH d   1      27.561   8.643 -21.298  0.00  0.00     0.067 H 
BRANCH  14  19
ATOM     19  C11 EQH d   1      28.711   9.372 -23.349  0.00  0.00    -0.049 A 
ATOM     20  C12 EQH d   1      28.616   8.753 -24.761  0.00  0.00    -0.061 A 
ATOM     21  C13 EQH d   1      29.948   9.334 -24.272  0.00  0.00    -0.061 A 
ATOM     22  H   EQH d   1      27.971   8.816 -25.638  0.00  0.00     0.033 H 
ATOM     23  H   EQH d   1      28.247   7.840 -25.228  0.00  0.00     0.033 H 
ATOM     24  H   EQH d   1      30.996   9.039 -24.219  0.00  0.00     0.033 H 
ATOM     25  H   EQH d   1      30.720  10.015 -24.629  0.00  0.00     0.033 H 
ATOM     26  H   EQH d   1      28.481   9.375 -22.284  0.00  0.00     0.040 H 
ENDBRANCH  14  19
ENDBRANCH   4   8
BRANCH   6  27
ATOM     27  C16 EQH d   1      24.866   7.685 -16.873  0.00  0.00    -0.008 C 
ATOM     28  C17 EQH d   1      25.611   8.547 -15.797  0.00  0.00    -0.056 C 
ATOM     29  C18 EQH d   1      24.892   8.887 -14.467  0.00  0.00    -0.052 C 
ATOM     30  H   EQH d   1      25.776   9.511 -16.278  0.00  0.00     0.034 H 
ATOM     31  H   EQH d   1      26.470   7.944 -15.503  0.00  0.00     0.034 H 
ATOM     32  C19 EQH d   1      23.582   8.116 -14.204  0.00  0.00     0.030 C 
ATOM     33  H   EQH d   1      24.626   9.943 -14.519  0.00  0.00     0.034 H 
ATOM     34  H   EQH d   1      25.578   8.615 -13.665  0.00  0.00     0.034 H 
ATOM     35  C23 EQH d   1      22.697   8.060 -15.462  0.00  0.00    -0.052 C 
ATOM     36  H   EQH d   1      23.892   7.085 -14.032  0.00  0.00     0.056 H 
ATOM     37  C24 EQH d   1      23.398   7.243 -16.563  0.00  0.00    -0.056 C 
ATOM     38  H   EQH d   1      22.523   9.073 -15.823  0.00  0.00     0.034 H 
ATOM     39  H   EQH d   1      21.748   7.585 -15.212  0.00  0.00     0.034 H 
ATOM     40  H   EQH d   1      23.445   6.213 -16.211  0.00  0.00     0.034 H 
ATOM     41  H   EQH d   1      22.824   7.387 -17.478  0.00  0.00     0.034 H 
ATOM     42  H   EQH d   1      25.422   6.777 -16.643  0.00  0.00     0.050 H 
BRANCH  32  43
ATOM     43  C20 EQH d   1      22.959   8.115 -12.832  0.00  0.00     0.177 C 
ATOM     44  O21 EQH d   1      22.502   7.079 -12.366  0.00  0.00    -0.648 OA
ATOM     45  O22 EQH d   1      22.912   9.280 -12.097  0.00  0.00    -0.648 OA
ENDBRANCH  32  43
ENDBRANCH   6  27
BRANCH   1  46
ATOM     46  N01 EQH d   1      24.728   5.108 -18.304  0.00  0.00    -0.382 N 
ATOM     47  H   EQH d   1      24.653   4.218 -18.796  0.00  0.00     0.157 HD
ATOM     48  H   EQH d   1      24.390   5.191 -17.345  0.00  0.00     0.157 HD
ENDBRANCH   1  46
TORSDOF 5
