REMARK  12 active torsions:
REMARK  status: ('A' for Active; 'I' for Inactive)
REMARK    1  A    between atoms: C01_1  and  C02_2 
REMARK    2  A    between atoms: C02_2  and  C03_3 
REMARK    3  A    between atoms: N05_5  and  C06_6 
REMARK    4  A    between atoms: C08_8  and  C09_9 
REMARK    5  A    between atoms: C11_11  and  O12_12 
REMARK    6  A    between atoms: O12_12  and  C13_13 
REMARK    7  A    between atoms: C14_14  and  O15_15 
REMARK    8  A    between atoms: O15_15  and  C16_16 
REMARK    9  A    between atoms: C17_17  and  O18_18 
REMARK   10  A    between atoms: O18_18  and  C19_19 
REMARK   11  A    between atoms: C23_23  and  N24_24 
REMARK   12  A    between atoms: C27_27  and  C28_28 
ROOT
ATOM      1  C06 30E d   1     -25.216  22.275 -18.225  0.00  0.00     0.172 A 
ATOM      2  N07 30E d   1     -25.849  21.213 -18.907  0.00  0.00    -0.225 NA
ATOM      3  C08 30E d   1     -26.300  21.368 -20.220  0.00  0.00     0.087 A 
ATOM      4  C21 30E d   1     -26.109  22.610 -20.907  0.00  0.00     0.033 A 
ATOM      5  N22 30E d   1     -25.471  23.691 -20.210  0.00  0.00    -0.238 NA
ATOM      6  C23 30E d   1     -25.034  23.551 -18.898  0.00  0.00     0.167 A 
ATOM      7  H   30E d   1     -26.441  22.732 -21.938  0.00  0.00     0.118 H 
ENDROOT
BRANCH   1   8
ATOM      8  N05 30E d   1     -24.813  22.005 -16.808  0.00  0.00    -0.362 N 
ATOM      9  C04 30E d   1     -25.088  20.777 -16.092  0.00  0.00     0.001 C 
ATOM     10  C03 30E d   1     -24.702  21.010 -14.625  0.00  0.00    -0.026 C 
ATOM     11  H   30E d   1     -26.142  20.513 -16.174  0.00  0.00     0.065 H 
ATOM     12  H   30E d   1     -24.515  19.951 -16.513  0.00  0.00     0.065 H 
ATOM     13  C27 30E d   1     -23.200  21.325 -14.440  0.00  0.00     0.037 C 
ATOM     14  H   30E d   1     -24.825  20.027 -14.171  0.00  0.00     0.043 H 
ATOM     15  C26 30E d   1     -22.653  22.217 -15.581  0.00  0.00    -0.037 C 
ATOM     16  H   30E d   1     -22.651  20.394 -14.579  0.00  0.00     0.057 H 
ATOM     17  C25 30E d   1     -23.774  22.942 -16.359  0.00  0.00    -0.003 C 
ATOM     18  H   30E d   1     -22.010  22.976 -15.134  0.00  0.00     0.036 H 
ATOM     19  H   30E d   1     -22.120  21.575 -16.282  0.00  0.00     0.036 H 
ATOM     20  H   30E d   1     -24.234  23.675 -15.697  0.00  0.00     0.064 H 
ATOM     21  H   30E d   1     -23.334  23.415 -17.237  0.00  0.00     0.064 H 
BRANCH  10  22
ATOM     22  C02 30E d   1     -25.713  21.702 -13.696  0.00  0.00    -0.063 C 
ATOM     23  H   30E d   1     -26.393  20.919 -13.363  0.00  0.00     0.033 H 
ATOM     24  H   30E d   1     -25.119  22.203 -12.932  0.00  0.00     0.033 H 
BRANCH  22  25
ATOM     25  C01 30E d   1     -26.598  22.787 -14.312  0.00  0.00    -0.076 C 
ATOM     26  H   30E d   1     -25.970  23.585 -14.707  0.00  0.00     0.027 H 
ATOM     27  H   30E d   1     -27.190  22.356 -15.119  0.00  0.00     0.027 H 
ATOM     28  H   30E d   1     -27.262  23.190 -13.547  0.00  0.00     0.027 H 
ENDBRANCH  22  25
ENDBRANCH  10  22
BRANCH  13  29
ATOM     29  C28 30E d   1     -22.754  21.598 -13.011  0.00  0.00     0.177 C 
ATOM     30  O29 30E d   1     -23.177  20.920 -12.130  0.00  0.00    -0.648 OA
ATOM     31  O30 30E d   1     -21.881  22.649 -12.727  0.00  0.00    -0.648 OA
ENDBRANCH  13  29
ENDBRANCH   1   8
BRANCH   6  32
ATOM     32  N24 30E d   1     -24.440  24.692 -18.233  0.00  0.00    -0.381 N 
ATOM     33  H   30E d   1     -24.348  25.579 -18.727  0.00  0.00     0.157 HD
ATOM     34  H   30E d   1     -24.113  24.608 -17.270  0.00  0.00     0.157 HD
ENDBRANCH   6  32
BRANCH   3  35
ATOM     35  C09 30E d   1     -26.871  20.243 -20.851  0.00  0.00    -0.000 A 
ATOM     36  C10 30E d   1     -26.760  18.961 -20.167  0.00  0.00    -0.036 A 
ATOM     37  C11 30E d   1     -27.306  17.742 -20.806  0.00  0.00     0.105 A 
ATOM     38  H   30E d   1     -26.278  18.900 -19.191  0.00  0.00     0.089 H 
ATOM     39  C14 30E d   1     -27.929  17.836 -22.118  0.00  0.00     0.135 A 
ATOM     40  C17 30E d   1     -28.004  19.110 -22.810  0.00  0.00     0.105 A 
ATOM     41  C20 30E d   1     -27.466  20.343 -22.172  0.00  0.00    -0.036 A 
ATOM     42  H   30E d   1     -27.518  21.302 -22.687  0.00  0.00     0.089 H 
BRANCH  37  43
ATOM     43  O12 30E d   1     -27.207  16.479 -20.186  0.00  0.00    -0.353 OA
BRANCH  43  44
ATOM     44  C13 30E d   1     -26.695  16.354 -18.889  0.00  0.00     0.010 C 
ATOM     45  H   30E d   1     -25.673  16.731 -18.865  0.00  0.00     0.066 H 
ATOM     46  H   30E d   1     -27.312  16.930 -18.199  0.00  0.00     0.066 H 
ATOM     47  H   30E d   1     -26.703  15.304 -18.596  0.00  0.00     0.066 H 
ENDBRANCH  43  44
ENDBRANCH  37  43
BRANCH  39  48
ATOM     48  O15 30E d   1     -28.406  16.655 -22.709  0.00  0.00    -0.351 OA
BRANCH  48  49
ATOM     49  C16 30E d   1     -27.455  15.711 -23.160  0.00  0.00     0.011 C 
ATOM     50  H   30E d   1     -26.818  16.171 -23.916  0.00  0.00     0.067 H 
ATOM     51  H   30E d   1     -26.844  15.383 -22.319  0.00  0.00     0.067 H 
ATOM     52  H   30E d   1     -27.972  14.854 -23.592  0.00  0.00     0.067 H 
ENDBRANCH  48  49
ENDBRANCH  39  48
BRANCH  40  53
ATOM     53  O18 30E d   1     -28.557  19.169 -24.098  0.00  0.00    -0.353 OA
BRANCH  53  54
ATOM     54  C19 30E d   1     -28.836  20.402 -24.676  0.00  0.00     0.010 C 
ATOM     55  H   30E d   1     -29.552  20.939 -24.055  0.00  0.00     0.066 H 
ATOM     56  H   30E d   1     -27.916  20.981 -24.755  0.00  0.00     0.066 H 
ATOM     57  H   30E d   1     -29.258  20.249 -25.669  0.00  0.00     0.066 H 
ENDBRANCH  53  54
ENDBRANCH  40  53
ENDBRANCH   3  35
TORSDOF 12
