REMARK  12 active torsions:
REMARK  status: ('A' for Active; 'I' for Inactive)
REMARK    1  A    between atoms: C01_1  and  O02_2 
REMARK    2  A    between atoms: O02_2  and  C03_3 
REMARK    3  A    between atoms: C05_5  and  C06_6 
REMARK    4  A    between atoms: C08_8  and  C09_9 
REMARK    5  A    between atoms: C11_11  and  O12_12 
REMARK    6  A    between atoms: O12_12  and  C13_13 
REMARK    7  A    between atoms: C14_14  and  O15_15 
REMARK    8  A    between atoms: O15_15  and  C16_16 
REMARK    9  A    between atoms: C17_17  and  O18_18 
REMARK   10  A    between atoms: O18_18  and  C19_19 
REMARK   11  A    between atoms: C23_23  and  N24_24 
REMARK   12  A    between atoms: C27_27  and  C28_28 
ROOT
ATOM      1  C06 5R1 d   1      24.910   7.714 -18.287  0.00  0.00     0.113 A 
ATOM      2  N07 5R1 d   1      25.521   8.677 -18.987  0.00  0.00    -0.242 NA
ATOM      3  C08 5R1 d   1      25.885   8.499 -20.263  0.00  0.00     0.085 A 
ATOM      4  C21 5R1 d   1      25.628   7.271 -20.881  0.00  0.00     0.033 A 
ATOM      5  N22 5R1 d   1      25.035   6.293 -20.179  0.00  0.00    -0.239 NA
ATOM      6  C23 5R1 d   1      24.677   6.474 -18.897  0.00  0.00     0.150 A 
ATOM      7  H   5R1 d   1      25.907   7.110 -21.922  0.00  0.00     0.118 H 
ENDROOT
BRANCH   3   8
ATOM      8  C09 5R1 d   1      26.467   9.561 -20.949  0.00  0.00    -0.000 A 
ATOM      9  C10 5R1 d   1      26.450  10.836 -20.349  0.00  0.00    -0.036 A 
ATOM     10  C11 5R1 d   1      27.010  11.938 -21.010  0.00  0.00     0.105 A 
ATOM     11  H   5R1 d   1      25.999  10.966 -19.365  0.00  0.00     0.089 H 
ATOM     12  C14 5R1 d   1      27.574  11.757 -22.278  0.00  0.00     0.135 A 
ATOM     13  C17 5R1 d   1      27.579  10.496 -22.892  0.00  0.00     0.105 A 
ATOM     14  C20 5R1 d   1      27.026   9.388 -22.228  0.00  0.00    -0.036 A 
ATOM     15  H   5R1 d   1      27.030   8.405 -22.699  0.00  0.00     0.089 H 
BRANCH  10  16
ATOM     16  O12 5R1 d   1      27.038  13.221 -20.436  0.00  0.00    -0.353 OA
BRANCH  16  17
ATOM     17  C13 5R1 d   1      26.509  13.459 -19.158  0.00  0.00     0.010 C 
ATOM     18  H   5R1 d   1      25.449  13.204 -19.151  0.00  0.00     0.066 H 
ATOM     19  H   5R1 d   1      27.036  12.845 -18.428  0.00  0.00     0.066 H 
ATOM     20  H   5R1 d   1      26.632  14.512 -18.906  0.00  0.00     0.066 H 
ENDBRANCH  16  17
ENDBRANCH  10  16
BRANCH  12  21
ATOM     21  O15 5R1 d   1      28.094  12.870 -22.937  0.00  0.00    -0.351 OA
BRANCH  21  22
ATOM     22  C16 5R1 d   1      27.173  13.791 -23.467  0.00  0.00     0.011 C 
ATOM     23  H   5R1 d   1      26.539  13.289 -24.198  0.00  0.00     0.067 H 
ATOM     24  H   5R1 d   1      26.556  14.190 -22.662  0.00  0.00     0.067 H 
ATOM     25  H   5R1 d   1      27.713  14.605 -23.951  0.00  0.00     0.067 H 
ENDBRANCH  21  22
ENDBRANCH  12  21
BRANCH  13  26
ATOM     26  O18 5R1 d   1      28.130  10.369 -24.170  0.00  0.00    -0.353 OA
BRANCH  26  27
ATOM     27  C19 5R1 d   1      28.288   9.110 -24.757  0.00  0.00     0.010 C 
ATOM     28  H   5R1 d   1      28.941   8.499 -24.134  0.00  0.00     0.066 H 
ATOM     29  H   5R1 d   1      27.315   8.628 -24.847  0.00  0.00     0.066 H 
ATOM     30  H   5R1 d   1      28.731   9.225 -25.746  0.00  0.00     0.066 H 
ENDBRANCH  26  27
ENDBRANCH  13  26
ENDBRANCH   3   8
BRANCH   1  31
ATOM     31  C05 5R1 d   1      24.581   7.967 -16.959  0.00  0.00    -0.001 A 
ATOM     32  C04 5R1 d   1      23.269   7.813 -16.491  0.00  0.00    -0.037 A 
ATOM     33  C03 5R1 d   1      22.978   8.088 -15.145  0.00  0.00     0.086 A 
ATOM     34  H   5R1 d   1      22.480   7.482 -17.167  0.00  0.00     0.089 H 
ATOM     35  C27 5R1 d   1      23.983   8.523 -14.270  0.00  0.00     0.074 A 
ATOM     36  C26 5R1 d   1      25.293   8.683 -14.740  0.00  0.00    -0.063 A 
ATOM     37  C25 5R1 d   1      25.585   8.406 -16.083  0.00  0.00    -0.070 A 
ATOM     38  H   5R1 d   1      26.080   9.021 -14.066  0.00  0.00     0.085 H 
ATOM     39  H   5R1 d   1      26.603   8.533 -16.451  0.00  0.00     0.085 H 
BRANCH  33  40
ATOM     40  O02 5R1 d   1      21.667   7.968 -14.683  0.00  0.00    -0.355 OA
BRANCH  40  41
ATOM     41  C01 5R1 d   1      20.964   6.787 -14.911  0.00  0.00     0.010 C 
ATOM     42  H   5R1 d   1      20.888   6.612 -15.984  0.00  0.00     0.066 H 
ATOM     43  H   5R1 d   1      21.491   5.956 -14.443  0.00  0.00     0.066 H 
ATOM     44  H   5R1 d   1      19.965   6.872 -14.484  0.00  0.00     0.066 H 
ENDBRANCH  40  41
ENDBRANCH  33  40
BRANCH  35  45
ATOM     45  C28 5R1 d   1      23.661   8.828 -12.804  0.00  0.00     0.212 C 
ATOM     46  O29 5R1 d   1      22.567   8.666 -12.379  0.00  0.00    -0.644 OA
ATOM     47  O30 5R1 d   1      24.675   9.282 -11.952  0.00  0.00    -0.644 OA
ENDBRANCH  35  45
ENDBRANCH   1  31
BRANCH   6  48
ATOM     48  N24 5R1 d   1      24.034   5.400 -18.170  0.00  0.00    -0.382 N 
ATOM     49  H   5R1 d   1      23.854   4.508 -18.631  0.00  0.00     0.157 HD
ATOM     50  H   5R1 d   1      23.761   5.535 -17.197  0.00  0.00     0.157 HD
ENDBRANCH   6  48
TORSDOF 12
