REMARK  8 active torsions:
REMARK  status: ('A' for Active; 'I' for Inactive)
REMARK    1  A    between atoms: N7_2  and  C3_4 
REMARK    2  A    between atoms: C8_8  and  C9_13 
REMARK       I    between atoms: C9_13  and  N2_15 
REMARK    3  A    between atoms: N2_15  and  C10_16 
REMARK    4  A    between atoms: C13_19  and  C16_22 
REMARK    5  A    between atoms: C16_22  and  C17_23 
REMARK    6  A    between atoms: C16_22  and  N3_24 
REMARK    7  A    between atoms: N3_24  and  N4_25 
REMARK       I    between atoms: N4_25  and  C18_26 
REMARK       I    between atoms: C18_26  and  N6_27 
REMARK    8  A    between atoms: N5_28  and  OBC_29 
ROOT
ATOM      1  C10 XK9 d   1     -47.023  14.095 -10.632  0.00  0.00     0.035 A 
ATOM      2  C15 XK9 d   1     -46.213  14.293 -11.760  0.00  0.00    -0.056 A 
ATOM      3  C14 XK9 d   1     -46.371  13.515 -12.917  0.00  0.00    -0.069 A 
ATOM      4  C13 XK9 d   1     -47.370  12.522 -12.977  0.00  0.00    -0.010 A 
ATOM      5  C12 XK9 d   1     -48.174  12.348 -11.849  0.00  0.00    -0.069 A 
ATOM      6  C11 XK9 d   1     -48.010  13.128 -10.702  0.00  0.00    -0.056 A 
ATOM      7  H   XK9 d   1     -45.446  15.067 -11.737  0.00  0.00     0.086 H 
ATOM      8  H   XK9 d   1     -45.718  13.679 -13.774  0.00  0.00     0.085 H 
ATOM      9  H   XK9 d   1     -48.950  11.583 -11.864  0.00  0.00     0.085 H 
ATOM     10  H   XK9 d   1     -48.670  12.972  -9.849  0.00  0.00     0.086 H 
ENDROOT
BRANCH   1  11
ATOM     11  N2  XK9 d   1     -46.865  14.901  -9.553  0.00  0.00    -0.322 N 
ATOM     12  C9  XK9 d   1     -47.615  14.855  -8.434  0.00  0.00     0.272 C 
ATOM     13  O1  XK9 d   1     -48.507  14.033  -8.196  0.00  0.00    -0.266 OA
ATOM     14  H   XK9 d   1     -46.120  15.597  -9.591  0.00  0.00     0.169 HD
BRANCH  12  15
ATOM     15  C8  XK9 d   1     -47.331  15.956  -7.410  0.00  0.00     0.102 A 
ATOM     16  N1  XK9 d   1     -47.929  16.036  -6.211  0.00  0.00    -0.349 N 
ATOM     17  C4  XK9 d   1     -47.453  17.109  -5.602  0.00  0.00     0.076 A 
ATOM     18  H   XK9 d   1     -48.623  15.388  -5.838  0.00  0.00     0.166 HD
ATOM     19  C3  XK9 d   1     -47.714  17.681  -4.358  0.00  0.00     0.130 A 
ATOM     20  C5  XK9 d   1     -46.551  17.721  -6.480  0.00  0.00    -0.005 A 
ATOM     21  C2  XK9 d   1     -47.055  18.857  -3.997  0.00  0.00    -0.049 A 
ATOM     22  C1  XK9 d   1     -46.158  19.468  -4.874  0.00  0.00    -0.080 A 
ATOM     23  H   XK9 d   1     -47.243  19.303  -3.020  0.00  0.00     0.087 H 
ATOM     24  C6  XK9 d   1     -45.911  18.899  -6.116  0.00  0.00    -0.071 A 
ATOM     25  H   XK9 d   1     -45.653  20.389  -4.585  0.00  0.00     0.083 H 
ATOM     26  H   XK9 d   1     -45.215  19.377  -6.806  0.00  0.00     0.084 H 
ATOM     27  C7  XK9 d   1     -46.506  16.991  -7.598  0.00  0.00    -0.040 A 
ATOM     28  H   XK9 d   1     -45.913  17.199  -8.489  0.00  0.00     0.088 H 
BRANCH  19  29
ATOM     29  N7  XK9 d   1     -48.575  17.121  -3.492  0.00  0.00    -0.113 N 
ATOM     30  O3  XK9 d   1     -49.425  16.017  -3.837  0.00  0.00    -0.532 OA
ATOM     31  O2  XK9 d   1     -48.652  17.613  -2.163  0.00  0.00    -0.532 OA
ENDBRANCH  19  29
ENDBRANCH  12  15
ENDBRANCH   1  11
BRANCH   4  32
ATOM     32  C16 XK9 d   1     -47.544  11.741 -14.127  0.00  0.00     0.061 C 
BRANCH  32  33
ATOM     33  C17 XK9 d   1     -48.186  10.365 -14.096  0.00  0.00    -0.033 C 
ATOM     34  H   XK9 d   1     -49.079  10.368 -14.721  0.00  0.00     0.035 H 
ATOM     35  H   XK9 d   1     -47.479   9.627 -14.474  0.00  0.00     0.035 H 
ATOM     36  H   XK9 d   1     -48.459  10.116 -13.071  0.00  0.00     0.035 H 
ENDBRANCH  32  33
BRANCH  32  37
ATOM     37  N3  XK9 d   1     -47.137  12.231 -15.295  0.00  0.00    -0.164 NA
BRANCH  37  38
ATOM     38  N4  XK9 d   1     -47.212  11.626 -16.383  0.00  0.00    -0.108 N 
ATOM     39  C18 XK9 d   1     -46.791  12.245 -17.507  0.00  0.00     0.711 C 
ATOM     40  N6  XK9 d   1     -46.868  11.690 -18.709  0.00  0.00    -0.232 N 
ATOM     41  N5  XK9 d   1     -46.284  13.457 -17.449  0.00  0.00    -0.098 N 
ATOM     42  H   XK9 d   1     -47.259  10.754 -18.814  0.00  0.00     0.174 HD
ATOM     43  H   XK9 d   1     -46.536  12.199 -19.528  0.00  0.00     0.174 HD
ATOM     44  H   XK9 d   1     -46.203  13.939 -16.554  0.00  0.00     0.213 HD
ATOM     45  H   XK9 d   1     -47.586  10.678 -16.423  0.00  0.00     0.208 HD
BRANCH  41  46
ATOM     46  OBC XK9 d   1     -45.865  14.068 -18.605  0.00  0.00    -0.276 OA
ATOM     47  H   XK9 d   1     -45.523  14.941 -18.398  0.00  0.00     0.245 HD
ENDBRANCH  41  46
ENDBRANCH  37  38
ENDBRANCH  32  37
ENDBRANCH   4  32
TORSDOF 8
