REMARK  11 active torsions:
REMARK  status: ('A' for Active; 'I' for Inactive)
REMARK    1  A    between atoms: CAD_1  and  CAT_2 
REMARK    2  A    between atoms: CBA_4  and  CAS_5 
REMARK    3  A    between atoms: CAV_10  and  CBB_11 
REMARK    4  A    between atoms: CAU_13  and  NAE_14 
REMARK    5  A    between atoms: CAX_17  and  CAW_18 
REMARK    6  A    between atoms: CAY_21  and  OAP_22 
REMARK    7  A    between atoms: OAP_22  and  CAA_23 
REMARK    8  A    between atoms: CBC_24  and  OAR_25 
REMARK    9  A    between atoms: OAR_25  and  CAC_26 
REMARK   10  A    between atoms: CAZ_27  and  OAQ_28 
REMARK   11  A    between atoms: OAQ_28  and  CAB_29 
ROOT
ATOM      1  CBB 4VQ d   1      24.823  -7.065  18.014  0.00  0.00     0.113 A 
ATOM      2  NAO 4VQ d   1      25.366  -8.019  18.726  0.00  0.00    -0.242 NA
ATOM      3  CAU 4VQ d   1      24.627  -5.721  18.606  0.00  0.00     0.150 A 
ATOM      4  NAN 4VQ d   1      25.001  -5.484  19.837  0.00  0.00    -0.239 NA
ATOM      5  CAJ 4VQ d   1      25.568  -6.471  20.574  0.00  0.00     0.033 A 
ATOM      6  CAX 4VQ d   1      25.753  -7.772  20.002  0.00  0.00     0.085 A 
ATOM      7  H   4VQ d   1      25.882  -6.275  21.599  0.00  0.00     0.118 H 
ENDROOT
BRANCH   6   8
ATOM      8  CAW 4VQ d   1      26.403  -8.883  20.822  0.00  0.00    -0.000 A 
ATOM      9  CAM 4VQ d   1      26.968  -8.595  22.029  0.00  0.00    -0.036 A 
ATOM     10  CAZ 4VQ d   1      27.581  -9.621  22.778  0.00  0.00     0.105 A 
ATOM     11  H   4VQ d   1      26.946  -7.575  22.414  0.00  0.00     0.089 H 
ATOM     12  CBC 4VQ d   1      27.625 -10.961  22.264  0.00  0.00     0.135 A 
ATOM     13  CAY 4VQ d   1      27.056 -11.257  21.006  0.00  0.00     0.105 A 
ATOM     14  CAL 4VQ d   1      26.460 -10.264  20.282  0.00  0.00    -0.036 A 
ATOM     15  H   4VQ d   1      26.026 -10.486  19.307  0.00  0.00     0.089 H 
BRANCH  10  16
ATOM     16  OAQ 4VQ d   1      28.137  -9.324  24.024  0.00  0.00    -0.353 OA
BRANCH  16  17
ATOM     17  CAB 4VQ d   1      27.536  -9.834  25.179  0.00  0.00     0.010 C 
ATOM     18  H   4VQ d   1      26.511  -9.469  25.245  0.00  0.00     0.066 H 
ATOM     19  H   4VQ d   1      27.534 -10.923  25.135  0.00  0.00     0.066 H 
ATOM     20  H   4VQ d   1      28.097  -9.506  26.054  0.00  0.00     0.066 H 
ENDBRANCH  16  17
ENDBRANCH  10  16
BRANCH  12  21
ATOM     21  OAR 4VQ d   1      28.240 -11.979  22.999  0.00  0.00    -0.351 OA
BRANCH  21  22
ATOM     22  CAC 4VQ d   1      29.572 -12.310  22.728  0.00  0.00     0.011 C 
ATOM     23  H   4VQ d   1      29.661 -12.633  21.691  0.00  0.00     0.067 H 
ATOM     24  H   4VQ d   1      30.203 -11.437  22.894  0.00  0.00     0.067 H 
ATOM     25  H   4VQ d   1      29.886 -13.117  23.389  0.00  0.00     0.067 H 
ENDBRANCH  21  22
ENDBRANCH  12  21
BRANCH  13  26
ATOM     26  OAP 4VQ d   1      27.088 -12.569  20.515  0.00  0.00    -0.353 OA
BRANCH  26  27
ATOM     27  CAA 4VQ d   1      26.684 -12.838  19.201  0.00  0.00     0.010 C 
ATOM     28  H   4VQ d   1      25.645 -12.534  19.072  0.00  0.00     0.066 H 
ATOM     29  H   4VQ d   1      27.315 -12.282  18.507  0.00  0.00     0.066 H 
ATOM     30  H   4VQ d   1      26.779 -13.906  19.005  0.00  0.00     0.066 H 
ENDBRANCH  26  27
ENDBRANCH  13  26
ENDBRANCH   6   8
BRANCH   1  31
ATOM     31  CAV 4VQ d   1      24.377  -7.331  16.578  0.00  0.00    -0.003 A 
ATOM     32  CAK 4VQ d   1      23.061  -7.202  16.236  0.00  0.00    -0.064 A 
ATOM     33  CAT 4VQ d   1      22.650  -7.428  14.904  0.00  0.00    -0.044 A 
ATOM     34  H   4VQ d   1      22.327  -6.924  16.992  0.00  0.00     0.085 H 
ATOM     35  CBA 4VQ d   1      23.617  -7.792  13.904  0.00  0.00     0.046 A 
ATOM     36  CAI 4VQ d   1      24.978  -7.924  14.260  0.00  0.00    -0.065 A 
ATOM     37  CAH 4VQ d   1      25.376  -7.707  15.548  0.00  0.00    -0.070 A 
ATOM     38  H   4VQ d   1      25.713  -8.200  13.504  0.00  0.00     0.085 H 
ATOM     39  H   4VQ d   1      26.427  -7.810  15.819  0.00  0.00     0.084 H 
BRANCH  33  40
ATOM     40  CAD 4VQ d   1      21.177  -7.275  14.533  0.00  0.00    -0.050 C 
ATOM     41  H   4VQ d   1      20.581  -7.974  15.120  0.00  0.00     0.033 H 
ATOM     42  H   4VQ d   1      20.855  -6.255  14.744  0.00  0.00     0.033 H 
ATOM     43  H   4VQ d   1      21.047  -7.487  13.472  0.00  0.00     0.033 H 
ENDBRANCH  33  40
BRANCH  35  44
ATOM     44  CAS 4VQ d   1      23.185  -8.045  12.460  0.00  0.00     0.209 C 
ATOM     45  OAG 4VQ d   1      23.581  -9.006  11.891  0.00  0.00    -0.644 OA
ATOM     46  OAF 4VQ d   1      22.482  -7.063  11.750  0.00  0.00    -0.644 OA
ENDBRANCH  35  44
ENDBRANCH   1  31
BRANCH   3  47
ATOM     47  NAE 4VQ d   1      24.006  -4.672  17.822  0.00  0.00    -0.382 N 
ATOM     48  H   4VQ d   1      23.860  -3.749  18.230  0.00  0.00     0.157 HD
ATOM     49  H   4VQ d   1      23.715  -4.857  16.862  0.00  0.00     0.157 HD
ENDBRANCH   3  47
TORSDOF 11
