REMARK  10 active torsions:
REMARK  status: ('A' for Active; 'I' for Inactive)
REMARK    1  A    between atoms: C24_2  and  C23_4 
REMARK    2  A    between atoms: C20_9  and  C19_10 
REMARK    3  A    between atoms: C17_12  and  N18_13 
REMARK    4  A    between atoms: C13_16  and  C12_17 
REMARK    5  A    between atoms: C8_20  and  O9_21 
REMARK    6  A    between atoms: O9_21  and  C10_22 
REMARK    7  A    between atoms: C5_23  and  O6_24 
REMARK    8  A    between atoms: O6_24  and  C7_25 
REMARK    9  A    between atoms: C3_26  and  O2_27 
REMARK   10  A    between atoms: O2_27  and  C1_28 
ROOT
ATOM      1  C19 T3M d   1      24.853  -7.013  18.267  0.00  0.00     0.113 A 
ATOM      2  N14 T3M d   1      25.478  -8.032  18.888  0.00  0.00    -0.242 NA
ATOM      3  C17 T3M d   1      24.749  -5.736  18.919  0.00  0.00     0.150 A 
ATOM      4  N16 T3M d   1      25.240  -5.559  20.168  0.00  0.00    -0.239 NA
ATOM      5  C15 T3M d   1      25.826  -6.557  20.774  0.00  0.00     0.033 A 
ATOM      6  C13 T3M d   1      25.992  -7.848  20.074  0.00  0.00     0.085 A 
ATOM      7  H7  T3M d   1      26.190  -6.438  21.788  0.00  0.00     0.118 H 
ENDROOT
BRANCH   6   8
ATOM      8  C12 T3M d   1      26.624  -9.020  20.801  0.00  0.00    -0.000 A 
ATOM      9  C4  T3M d   1      27.223  -8.839  22.072  0.00  0.00    -0.036 A 
ATOM     10  C3  T3M d   1      27.776  -9.980  22.743  0.00  0.00     0.105 A 
ATOM     11  H8  T3M d   1      27.263  -7.857  22.529  0.00  0.00     0.089 H 
ATOM     12  C5  T3M d   1      27.721 -11.252  22.144  0.00  0.00     0.135 A 
ATOM     13  C8  T3M d   1      27.137 -11.428  20.928  0.00  0.00     0.105 A 
ATOM     14  C11 T3M d   1      26.568 -10.264  20.224  0.00  0.00    -0.036 A 
ATOM     15  H9  T3M d   1      26.106 -10.391  19.252  0.00  0.00     0.089 H 
BRANCH  10  16
ATOM     16  O2  T3M d   1      28.321  -9.848  24.023  0.00  0.00    -0.353 OA
BRANCH  16  17
ATOM     17  C1  T3M d   1      28.613  -8.572  24.513  0.00  0.00     0.010 C 
ATOM     18  H16 T3M d   1      29.032  -8.655  25.527  0.00  0.00     0.066 H 
ATOM     19  H17 T3M d   1      27.692  -7.972  24.545  0.00  0.00     0.066 H 
ATOM     20  H18 T3M d   1      29.345  -8.084  23.853  0.00  0.00     0.066 H 
ENDBRANCH  16  17
ENDBRANCH  10  16
BRANCH  12  21
ATOM     21  O6  T3M d   1      28.269 -12.353  22.799  0.00  0.00    -0.351 OA
BRANCH  21  22
ATOM     22  C7  T3M d   1      27.404 -13.221  23.482  0.00  0.00     0.011 C 
ATOM     23  H13 T3M d   1      27.987 -14.033  23.942  0.00  0.00     0.067 H 
ATOM     24  H14 T3M d   1      26.678 -13.647  22.774  0.00  0.00     0.067 H 
ATOM     25  H15 T3M d   1      26.869 -12.664  24.266  0.00  0.00     0.067 H 
ENDBRANCH  21  22
ENDBRANCH  12  21
BRANCH  13  26
ATOM     26  O9  T3M d   1      27.089 -12.713  20.367  0.00  0.00    -0.353 OA
BRANCH  26  27
ATOM     27  C10 T3M d   1      26.614 -12.885  19.059  0.00  0.00     0.010 C 
ATOM     28  H10 T3M d   1      26.650 -13.952  18.793  0.00  0.00     0.066 H 
ATOM     29  H11 T3M d   1      27.243 -12.312  18.362  0.00  0.00     0.066 H 
ATOM     30  H12 T3M d   1      25.576 -12.526  18.996  0.00  0.00     0.066 H 
ENDBRANCH  26  27
ENDBRANCH  13  26
ENDBRANCH   6   8
BRANCH   1  31
ATOM     31  C20 T3M d   1      24.311  -7.195  16.856  0.00  0.00    -0.004 A 
ATOM     32  C21 T3M d   1      25.166  -7.536  15.849  0.00  0.00    -0.070 A 
ATOM     33  C22 T3M d   1      24.688  -7.658  14.531  0.00  0.00    -0.066 A 
ATOM     34  H2  T3M d   1      26.214  -7.713  16.064  0.00  0.00     0.084 H 
ATOM     35  C23 T3M d   1      23.305  -7.416  14.249  0.00  0.00     0.040 A 
ATOM     36  H1  T3M d   1      25.365  -7.934  13.731  0.00  0.00     0.085 H 
ATOM     37  C27 T3M d   1      22.425  -7.040  15.288  0.00  0.00    -0.066 A 
ATOM     38  C28 T3M d   1      22.883  -6.915  16.564  0.00  0.00    -0.070 A 
ATOM     39  H3  T3M d   1      21.381  -6.850  15.068  0.00  0.00     0.085 H 
ATOM     40  H4  T3M d   1      22.211  -6.614  17.359  0.00  0.00     0.084 H 
BRANCH  35  41
ATOM     41  C24 T3M d   1      22.801  -7.472  12.808  0.00  0.00     0.209 C 
ATOM     42  O26 T3M d   1      23.506  -8.192  11.836  0.00  0.00    -0.644 OA
ATOM     43  O25 T3M d   1      21.821  -6.868  12.511  0.00  0.00    -0.644 OA
ENDBRANCH  35  41
ENDBRANCH   1  31
BRANCH   3  44
ATOM     44  N18 T3M d   1      24.081  -4.627  18.290  0.00  0.00    -0.382 N 
ATOM     45  H5  T3M d   1      24.018  -3.721  18.776  0.00  0.00     0.157 HD
ATOM     46  H6  T3M d   1      23.666  -4.739  17.354  0.00  0.00     0.157 HD
ENDBRANCH   3  44
TORSDOF 10
