REMARK  6 active torsions:
REMARK  status: ('A' for Active; 'I' for Inactive)
REMARK    1  A    between atoms: CAW_3  and  CAQ_4 
REMARK    2  A    between atoms: NAX_9  and  CAV_10 
REMARK    3  A    between atoms: CAR_12  and  NAB_13 
REMARK    4  A    between atoms: CAU_16  and  CAT_17 
REMARK    5  A    between atoms: CAS_22  and  OAP_23 
REMARK    6  A    between atoms: OAP_23  and  CAA_24 
ROOT
ATOM      1  CAV WI2 d   1     -24.721   6.890  17.979  0.00  0.00     0.172 A 
ATOM      2  NAO WI2 d   1     -25.260   7.927  18.683  0.00  0.00    -0.225 NA
ATOM      3  CAR WI2 d   1     -24.539   5.614  18.602  0.00  0.00     0.167 A 
ATOM      4  NAN WI2 d   1     -24.938   5.443  19.905  0.00  0.00    -0.238 NA
ATOM      5  CAH WI2 d   1     -25.479   6.477  20.572  0.00  0.00     0.033 A 
ATOM      6  CAU WI2 d   1     -25.647   7.741  19.969  0.00  0.00     0.087 A 
ATOM      7  H   WI2 d   1     -25.796   6.335  21.605  0.00  0.00     0.118 H 
ENDROOT
BRANCH   1   8
ATOM      8  NAX WI2 d   1     -24.223   7.149  16.676  0.00  0.00    -0.363 N 
ATOM      9  CAL WI2 d   1     -22.746   7.210  16.448  0.00  0.00    -0.003 C 
ATOM     10  CAJ WI2 d   1     -22.349   6.982  14.986  0.00  0.00    -0.037 C 
ATOM     11  H   WI2 d   1     -22.410   8.208  16.729  0.00  0.00     0.064 H 
ATOM     12  H   WI2 d   1     -22.288   6.418  17.041  0.00  0.00     0.064 H 
ATOM     13  CAW WI2 d   1     -23.022   7.992  14.084  0.00  0.00     0.033 C 
ATOM     14  H   WI2 d   1     -22.662   5.981  14.688  0.00  0.00     0.036 H 
ATOM     15  H   WI2 d   1     -21.269   7.093  14.893  0.00  0.00     0.036 H 
ATOM     16  CAK WI2 d   1     -24.524   7.858  14.322  0.00  0.00    -0.037 C 
ATOM     17  H   WI2 d   1     -22.723   9.018  14.300  0.00  0.00     0.056 H 
ATOM     18  CAM WI2 d   1     -24.980   8.077  15.777  0.00  0.00    -0.003 C 
ATOM     19  H   WI2 d   1     -24.792   6.834  14.061  0.00  0.00     0.036 H 
ATOM     20  H   WI2 d   1     -25.006   8.631  13.723  0.00  0.00     0.036 H 
ATOM     21  H   WI2 d   1     -26.048   7.876  15.860  0.00  0.00     0.064 H 
ATOM     22  H   WI2 d   1     -24.786   9.109  16.070  0.00  0.00     0.064 H 
BRANCH  13  23
ATOM     23  CAQ WI2 d   1     -22.618   7.731  12.653  0.00  0.00     0.177 C 
ATOM     24  OAD WI2 d   1     -21.920   6.814  12.227  0.00  0.00    -0.648 OA
ATOM     25  OAC WI2 d   1     -23.323   8.485  11.779  0.00  0.00    -0.648 OA
ENDBRANCH  13  23
ENDBRANCH   1   8
BRANCH   3  26
ATOM     26  NAB WI2 d   1     -24.013   4.492  18.000  0.00  0.00    -0.381 N 
ATOM     27  H   WI2 d   1     -23.944   3.618  18.522  0.00  0.00     0.157 HD
ATOM     28  H   WI2 d   1     -23.693   4.535  17.032  0.00  0.00     0.157 HD
ENDBRANCH   3  26
BRANCH   6  29
ATOM     29  CAT WI2 d   1     -26.284   8.824  20.769  0.00  0.00    -0.003 A 
ATOM     30  CAI WI2 d   1     -27.068   8.630  21.904  0.00  0.00    -0.039 A 
ATOM     31  CAS WI2 d   1     -27.619   9.738  22.572  0.00  0.00     0.069 A 
ATOM     32  H   WI2 d   1     -27.254   7.622  22.273  0.00  0.00     0.089 H 
ATOM     33  CAF WI2 d   1     -27.408  11.051  22.131  0.00  0.00    -0.051 A 
ATOM     34  CAE WI2 d   1     -26.628  11.243  20.984  0.00  0.00    -0.080 A 
ATOM     35  H   WI2 d   1     -27.838  11.898  22.665  0.00  0.00     0.087 H 
ATOM     36  CAG WI2 d   1     -26.080  10.139  20.313  0.00  0.00    -0.071 A 
ATOM     37  H   WI2 d   1     -26.446  12.251  20.612  0.00  0.00     0.083 H 
ATOM     38  H   WI2 d   1     -25.482  10.304  19.417  0.00  0.00     0.084 H 
BRANCH  31  39
ATOM     39  OAP WI2 d   1     -28.332   9.452  23.705  0.00  0.00    -0.356 OA
BRANCH  39  40
ATOM     40  CAA WI2 d   1     -29.291  10.397  24.146  0.00  0.00     0.010 C 
ATOM     41  H   WI2 d   1     -28.796  11.345  24.355  0.00  0.00     0.066 H 
ATOM     42  H   WI2 d   1     -30.041  10.541  23.369  0.00  0.00     0.066 H 
ATOM     43  H   WI2 d   1     -29.772  10.029  25.052  0.00  0.00     0.066 H 
ENDBRANCH  39  40
ENDBRANCH  31  39
ENDBRANCH   6  29
TORSDOF 6
