REMARK  10 active torsions:
REMARK  status: ('A' for Active; 'I' for Inactive)
REMARK    1  A    between atoms: C01_1  and  O02_2 
REMARK    2  A    between atoms: O02_2  and  C03_3 
REMARK    3  A    between atoms: C05_5  and  C06_6 
REMARK    4  A    between atoms: C09_9  and  N10_10 
REMARK    5  A    between atoms: C11_11  and  N12_12 
REMARK    6  A    between atoms: C15_15  and  C16_16 
REMARK    7  A    between atoms: C23_23  and  O24_24 
REMARK    8  A    between atoms: O24_24  and  C25_25 
REMARK    9  A    between atoms: C26_26  and  O27_27 
REMARK   10  A    between atoms: O27_27  and  C28_28 
ROOT
ATOM      1  C06 BX1 d   1     -25.909  21.629 -20.095  0.00  0.00     0.086 A 
ATOM      2  C07 BX1 d   1     -25.773  22.888 -20.769  0.00  0.00     0.033 A 
ATOM      3  N08 BX1 d   1     -25.179  23.973 -20.104  0.00  0.00    -0.238 NA
ATOM      4  C09 BX1 d   1     -24.720  23.828 -18.783  0.00  0.00     0.162 A 
ATOM      5  C11 BX1 d   1     -24.848  22.565 -18.118  0.00  0.00     0.152 A 
ATOM      6  N21 BX1 d   1     -25.432  21.479 -18.772  0.00  0.00    -0.231 NA
ATOM      7  H5  BX1 d   1     -26.127  23.001 -21.787  0.00  0.00     0.118 H 
ENDROOT
BRANCH   1   8
ATOM      8  C05 BX1 d   1     -26.501  20.502 -20.752  0.00  0.00    -0.000 A 
ATOM      9  C04 BX1 d   1     -26.522  19.225 -20.055  0.00  0.00    -0.036 A 
ATOM     10  C03 BX1 d   1     -27.106  18.028 -20.709  0.00  0.00     0.105 A 
ATOM     11  H4  BX1 d   1     -26.110  19.148 -19.055  0.00  0.00     0.089 H 
ATOM     12  C26 BX1 d   1     -27.659  18.138 -22.038  0.00  0.00     0.135 A 
ATOM     13  C23 BX1 d   1     -27.641  19.428 -22.741  0.00  0.00     0.105 A 
ATOM     14  C22 BX1 d   1     -27.060  20.620 -22.096  0.00  0.00    -0.036 A 
ATOM     15  H17 BX1 d   1     -27.048  21.573 -22.613  0.00  0.00     0.089 H 
BRANCH  10  16
ATOM     16  O02 BX1 d   1     -27.131  16.811 -20.047  0.00  0.00    -0.353 OA
BRANCH  16  17
ATOM     17  C01 BX1 d   1     -26.183  16.524 -19.083  0.00  0.00     0.010 C 
ATOM     18  H1  BX1 d   1     -26.367  15.519 -18.675  0.00  0.00     0.066 H 
ATOM     19  H2  BX1 d   1     -26.247  17.266 -18.273  0.00  0.00     0.066 H 
ATOM     20  H3  BX1 d   1     -25.180  16.558 -19.533  0.00  0.00     0.066 H 
ENDBRANCH  16  17
ENDBRANCH  10  16
BRANCH  12  21
ATOM     21  O27 BX1 d   1     -28.195  17.017 -22.633  0.00  0.00    -0.351 OA
BRANCH  21  22
ATOM     22  C28 BX1 d   1     -27.345  16.011 -23.047  0.00  0.00     0.011 C 
ATOM     23  H21 BX1 d   1     -27.932  15.197 -23.497  0.00  0.00     0.067 H 
ATOM     24  H22 BX1 d   1     -26.785  15.625 -22.182  0.00  0.00     0.067 H 
ATOM     25  H23 BX1 d   1     -26.640  16.410 -23.792  0.00  0.00     0.067 H 
ENDBRANCH  21  22
ENDBRANCH  12  21
BRANCH  13  26
ATOM     26  O24 BX1 d   1     -28.173  19.518 -24.012  0.00  0.00    -0.353 OA
BRANCH  26  27
ATOM     27  C25 BX1 d   1     -28.393  20.759 -24.568  0.00  0.00     0.010 C 
ATOM     28  H18 BX1 d   1     -28.817  20.639 -25.576  0.00  0.00     0.066 H 
ATOM     29  H19 BX1 d   1     -27.441  21.306 -24.633  0.00  0.00     0.066 H 
ATOM     30  H20 BX1 d   1     -29.097  21.323 -23.939  0.00  0.00     0.066 H 
ENDBRANCH  26  27
ENDBRANCH  13  26
ENDBRANCH   1   8
BRANCH   5  31
ATOM     31  N12 BX1 d   1     -24.348  22.424 -16.757  0.00  0.00    -0.265 NA
ATOM     32  C13 BX1 d   1     -25.139  21.477 -15.962  0.00  0.00    -0.014 C 
ATOM     33  C14 BX1 d   1     -24.439  20.995 -14.690  0.00  0.00    -0.041 C 
ATOM     34  H8  BX1 d   1     -25.360  20.600 -16.588  0.00  0.00     0.056 H 
ATOM     35  H9  BX1 d   1     -26.080  21.969 -15.674  0.00  0.00     0.056 H 
ATOM     36  C15 BX1 d   1     -23.334  21.896 -14.189  0.00  0.00     0.033 C 
ATOM     37  H10 BX1 d   1     -24.006  20.005 -14.893  0.00  0.00     0.036 H 
ATOM     38  H11 BX1 d   1     -25.195  20.909 -13.896  0.00  0.00     0.036 H 
ATOM     39  C19 BX1 d   1     -22.334  22.312 -15.258  0.00  0.00    -0.041 C 
ATOM     40  H12 BX1 d   1     -23.890  22.838 -14.074  0.00  0.00     0.056 H 
ATOM     41  C20 BX1 d   1     -22.902  22.194 -16.695  0.00  0.00    -0.014 C 
ATOM     42  H13 BX1 d   1     -21.446  21.668 -15.178  0.00  0.00     0.036 H 
ATOM     43  H14 BX1 d   1     -22.045  23.358 -15.080  0.00  0.00     0.036 H 
ATOM     44  H15 BX1 d   1     -22.401  22.937 -17.333  0.00  0.00     0.056 H 
ATOM     45  H16 BX1 d   1     -22.691  21.183 -17.074  0.00  0.00     0.056 H 
BRANCH  36  46
ATOM     46  C16 BX1 d   1     -22.870  21.725 -12.790  0.00  0.00     0.177 C 
ATOM     47  O17 BX1 d   1     -22.946  20.629 -12.264  0.00  0.00    -0.648 OA
ATOM     48  O18 BX1 d   1     -22.131  22.711 -12.190  0.00  0.00    -0.648 OA
ENDBRANCH  36  46
ENDBRANCH   5  31
BRANCH   4  49
ATOM     49  N10 BX1 d   1     -24.104  24.912 -18.110  0.00  0.00    -0.381 N 
ATOM     50  H6  BX1 d   1     -23.771  24.795 -17.142  0.00  0.00     0.157 HD
ATOM     51  H7  BX1 d   1     -23.989  25.817 -18.588  0.00  0.00     0.157 HD
ENDBRANCH   4  49
TORSDOF 10
