REMARK WARNING: 32 MAX_TORS EXCEEDED!!!
REMARK  44 active torsions:
REMARK  status: ('A' for Active; 'I' for Inactive)
REMARK    1  A    between atoms: N_1  and  CA_2 
REMARK    2  A    between atoms: CA_2  and  C_3 
REMARK    3  A    between atoms: CA_2  and  CB_5 
REMARK       I    between atoms: C_3  and  N_9 
REMARK    4  A    between atoms: CB_5  and  CG_6 
REMARK    5  A    between atoms: N_9  and  CA_10 
REMARK    6  A    between atoms: CA_10  and  C_11 
REMARK    7  A    between atoms: CA_10  and  CB_13 
REMARK       I    between atoms: C_11  and  N_14 
REMARK    8  A    between atoms: N_14  and  CA_15 
REMARK    9  A    between atoms: CA_15  and  C_16 
REMARK   10  A    between atoms: CA_15  and  CB_18 
REMARK       I    between atoms: C_16  and  N_23 
REMARK   11  A    between atoms: CB_18  and  CG_19 
REMARK   12  A    between atoms: CG_19  and  CD_20 
REMARK   13  A    between atoms: N_23  and  CA_24 
REMARK   14  A    between atoms: CA_24  and  C_25 
REMARK   15  A    between atoms: CA_24  and  CB_27 
REMARK       I    between atoms: C_25  and  N_30 
REMARK   16  A    between atoms: CB_27  and  CG1_28 
REMARK   17  A    between atoms: CB_27  and  CG2_29 
REMARK   18  A    between atoms: N_30  and  CA_31 
REMARK   19  A    between atoms: CA_31  and  C_32 
REMARK   20  A    between atoms: CA_31  and  CB_34 
REMARK       I    between atoms: C_32  and  N_38 
REMARK   21  A    between atoms: CB_34  and  CG_35 
REMARK   22  A    between atoms: N_38  and  CA_39 
REMARK   23  A    between atoms: CA_39  and  C_40 
REMARK   24  A    between atoms: CA_39  and  CB_42 
REMARK       I    between atoms: C_40  and  N_45 
REMARK   25  A    between atoms: CB_42  and  CG1_43 
REMARK   26  A    between atoms: CB_42  and  CG2_44 
REMARK   27  A    between atoms: N_45  and  CA_46 
REMARK   28  A    between atoms: CA_46  and  C_47 
REMARK   29  A    between atoms: CA_46  and  CB_49 
REMARK       I    between atoms: C_47  and  N_52 
REMARK   30  A    between atoms: CB_49  and  OG1_50 
REMARK   31  A    between atoms: CB_49  and  CG2_51 
REMARK   32  A    between atoms: N_52  and  CA_53 
REMARK   33  A    between atoms: CA_53  and  C_54 
REMARK   34  A    between atoms: CA_53  and  CB_56 
REMARK       I    between atoms: C_54  and  N_58 
REMARK   35  A    between atoms: CB_56  and  OG_57 
REMARK   36  A    between atoms: N_58  and  CA_59 
REMARK   37  A    between atoms: CA_59  and  C_60 
REMARK   38  A    between atoms: CA_59  and  CB_62 
REMARK       I    between atoms: C_60  and  N_65 
REMARK   39  A    between atoms: CB_62  and  CG1_63 
REMARK   40  A    between atoms: CB_62  and  CG2_64 
REMARK   41  A    between atoms: N_65  and  CA_66 
REMARK   42  A    between atoms: CA_66  and  C_67 
REMARK   43  A    between atoms: CA_66  and  CB_69 
REMARK   44  A    between atoms: CB_69  and  CG_70 
ROOT
ATOM      1  C   ASP d   1      21.081  13.536 -10.915  0.00  0.00     0.241 C 
ATOM      2  O   ASP d   1      20.983  14.632 -10.371  0.00  0.00    -0.271 OA
ATOM      3  N   VAL d   1      20.770  12.392 -10.318  0.00  0.00    -0.346 N 
ATOM      4  H   VAL d   1      21.110  11.525 -10.734  0.00  0.00     0.163 HD
ENDROOT
BRANCH   3   5
ATOM      5  CA  VAL d   1      19.973  12.304  -9.107  0.00  0.00     0.092 C 
ATOM      6  H   VAL d   1      19.567  13.272  -8.812  0.00  0.00     0.088 H 
BRANCH   5   7
ATOM      7  C   VAL d   1      20.824  11.856  -7.915  0.00  0.00     0.241 C 
ATOM      8  O   VAL d   1      20.393  11.926  -6.775  0.00  0.00    -0.271 OA
ATOM      9  N   THR d   1      22.053  11.428  -8.186  0.00  0.00    -0.344 N 
ATOM     10  H   THR d   1      22.401  11.489  -9.143  0.00  0.00     0.163 HD
BRANCH   9  11
ATOM     11  CA  THR d   1      22.915  10.874  -7.150  0.00  0.00     0.113 C 
ATOM     12  H   THR d   1      22.285  10.789  -6.264  0.00  0.00     0.091 H 
BRANCH  11  13
ATOM     13  C   THR d   1      24.102  11.770  -6.853  0.00  0.00     0.243 C 
ATOM     14  O   THR d   1      24.694  11.684  -5.777  0.00  0.00    -0.271 OA
ATOM     15  N   SER d   1      24.465  12.611  -7.817  0.00  0.00    -0.344 N 
ATOM     16  H   SER d   1      23.915  12.659  -8.675  0.00  0.00     0.163 HD
BRANCH  15  17
ATOM     17  CA  SER d   1      25.639  13.467  -7.667  0.00  0.00     0.109 C 
ATOM     18  H   SER d   1      26.444  12.842  -7.280  0.00  0.00     0.090 H 
BRANCH  17  19
ATOM     19  C   SER d   1      25.374  14.591  -6.690  0.00  0.00     0.243 C 
ATOM     20  O   SER d   1      24.367  15.283  -6.794  0.00  0.00    -0.271 OA
ATOM     21  N   VAL d   1      26.275  14.767  -5.736  0.00  0.00    -0.346 N 
ATOM     22  H   VAL d   1      27.037  14.097  -5.629  0.00  0.00     0.163 HD
BRANCH  21  23
ATOM     23  CA  VAL d   1      26.187  15.909  -4.839  0.00  0.00     0.092 C 
ATOM     24  H   VAL d   1      25.308  16.499  -5.100  0.00  0.00     0.088 H 
BRANCH  23  25
ATOM     25  C   VAL d   1      27.429  16.778  -5.015  0.00  0.00     0.241 C 
ATOM     26  O   VAL d   1      28.515  16.448  -4.544  0.00  0.00    -0.271 OA
ATOM     27  N   ASP d   1      27.261  17.879  -5.737  0.00  0.00    -0.344 N 
ATOM     28  H   ASP d   1      26.324  18.127  -6.055  0.00  0.00     0.163 HD
BRANCH  27  29
ATOM     29  CA  ASP d   1      28.381  18.741  -6.086  0.00  0.00     0.105 C 
ATOM     30  H   ASP d   1      29.295  18.155  -5.987  0.00  0.00     0.090 H 
BRANCH  29  31
ATOM     31  C   ASP d   1      28.483  19.931  -5.137  0.00  0.00     0.197 C 
ATOM     32  O   ASP d   1      27.609  20.155  -4.294  0.00  0.00    -0.646 OA
ATOM     33  OXT ASP d   1      29.449  20.694  -5.191  0.00  0.00    -0.646 OA
ENDBRANCH  29  31
BRANCH  29  34
ATOM     34  CB  ASP d   1      28.259  19.222  -7.538  0.00  0.00     0.044 C 
ATOM     35  H   ASP d   1      28.170  18.342  -8.175  0.00  0.00     0.053 H 
ATOM     36  H   ASP d   1      29.141  19.820  -7.768  0.00  0.00     0.053 H 
BRANCH  34  37
ATOM     37  CG  ASP d   1      27.030  20.093  -7.768  0.00  0.00     0.175 C 
ATOM     38  OD1 ASP d   1      26.075  20.011  -6.962  0.00  0.00    -0.648 OA
ATOM     39  OD2 ASP d   1      27.021  20.859  -8.760  0.00  0.00    -0.648 OA
ENDBRANCH  34  37
ENDBRANCH  29  34
ENDBRANCH  27  29
ENDBRANCH  23  25
BRANCH  23  40
ATOM     40  CB  VAL d   1      25.972  15.479  -3.371  0.00  0.00    -0.033 C 
ATOM     41  H   VAL d   1      24.929  15.656  -3.109  0.00  0.00     0.042 H 
BRANCH  40  42
ATOM     42  CG1 VAL d   1      26.243  13.981  -3.207  0.00  0.00    -0.071 C 
ATOM     43  H   VAL d   1      25.562  13.418  -3.845  0.00  0.00     0.028 H 
ATOM     44  H   VAL d   1      27.273  13.766  -3.493  0.00  0.00     0.028 H 
ATOM     45  H   VAL d   1      26.087  13.697  -2.167  0.00  0.00     0.028 H 
ENDBRANCH  40  42
BRANCH  40  46
ATOM     46  CG2 VAL d   1      26.817  16.327  -2.411  0.00  0.00    -0.071 C 
ATOM     47  H   VAL d   1      27.872  16.208  -2.656  0.00  0.00     0.028 H 
ATOM     48  H   VAL d   1      26.535  17.375  -2.510  0.00  0.00     0.028 H 
ATOM     49  H   VAL d   1      26.641  15.998  -1.387  0.00  0.00     0.028 H 
ENDBRANCH  40  46
ENDBRANCH  23  40
ENDBRANCH  21  23
ENDBRANCH  17  19
BRANCH  17  50
ATOM     50  CB  SER d   1      26.068  14.057  -9.014  0.00  0.00     0.044 C 
ATOM     51  H   SER d   1      26.810  14.834  -8.832  0.00  0.00     0.077 H 
ATOM     52  H   SER d   1      25.187  14.461  -9.513  0.00  0.00     0.077 H 
BRANCH  50  53
ATOM     53  OG  SER d   1      26.645  13.068  -9.848  0.00  0.00    -0.398 OA
ATOM     54  H   SER d   1      26.003  12.373 -10.009  0.00  0.00     0.209 HD
ENDBRANCH  50  53
ENDBRANCH  17  50
ENDBRANCH  15  17
ENDBRANCH  11  13
BRANCH  11  55
ATOM     55  CB  THR d   1      23.472   9.484  -7.552  0.00  0.00     0.060 C 
ATOM     56  H   THR d   1      24.072   9.102  -6.726  0.00  0.00     0.086 H 
BRANCH  55  57
ATOM     57  OG1 THR d   1      24.292   9.612  -8.723  0.00  0.00    -0.393 OA
ATOM     58  H   THR d   1      24.635   8.749  -8.968  0.00  0.00     0.210 HD
ENDBRANCH  55  57
BRANCH  55  59
ATOM     59  CG2 THR d   1      22.331   8.484  -7.817  0.00  0.00    -0.050 C 
ATOM     60  H   THR d   1      21.731   8.372  -6.914  0.00  0.00     0.031 H 
ATOM     61  H   THR d   1      21.704   8.856  -8.627  0.00  0.00     0.031 H 
ATOM     62  H   THR d   1      22.753   7.519  -8.097  0.00  0.00     0.031 H 
ENDBRANCH  55  59
ENDBRANCH  11  55
ENDBRANCH   9  11
ENDBRANCH   5   7
BRANCH   5  63
ATOM     63  CB  VAL d   1      18.828  11.312  -9.433  0.00  0.00    -0.033 C 
ATOM     64  H   VAL d   1      19.076  10.868 -10.397  0.00  0.00     0.042 H 
BRANCH  63  65
ATOM     65  CG1 VAL d   1      18.799  10.072  -8.564  0.00  0.00    -0.071 C 
ATOM     66  H   VAL d   1      19.734   9.525  -8.682  0.00  0.00     0.028 H 
ATOM     67  H   VAL d   1      18.677  10.364  -7.521  0.00  0.00     0.028 H 
ATOM     68  H   VAL d   1      17.965   9.438  -8.865  0.00  0.00     0.028 H 
ENDBRANCH  63  65
BRANCH  63  69
ATOM     69  CG2 VAL d   1      17.497  11.999  -9.730  0.00  0.00    -0.071 C 
ATOM     70  H   VAL d   1      17.189  12.582  -8.862  0.00  0.00     0.028 H 
ATOM     71  H   VAL d   1      17.614  12.659 -10.590  0.00  0.00     0.028 H 
ATOM     72  H   VAL d   1      16.741  11.245  -9.950  0.00  0.00     0.028 H 
ENDBRANCH  63  69
ENDBRANCH   5  63
ENDBRANCH   3   5
BRANCH   1  73
ATOM     73  CA  ASP d   1      21.641  13.411 -12.326  0.00  0.00     0.098 C 
ATOM     74  H   ASP d   1      21.649  12.359 -12.612  0.00  0.00     0.088 H 
BRANCH  73  75
ATOM     75  N   ASP d   1      20.808  14.141 -13.260  0.00  0.00    -0.345 N 
ATOM     76  C   VAL d   1      19.890  13.529 -13.987  0.00  0.00     0.241 C 
ATOM     77  O   VAL d   1      19.678  12.325 -13.901  0.00  0.00    -0.271 OA
ATOM     78  H   ASP d   1      20.933  15.149 -13.358  0.00  0.00     0.163 HD
BRANCH  76  79
ATOM     79  CA  VAL d   1      19.067  14.392 -14.931  0.00  0.00     0.092 C 
ATOM     80  H   VAL d   1      19.350  15.444 -14.938  0.00  0.00     0.088 H 
BRANCH  79  81
ATOM     81  N   VAL d   1      19.239  13.908 -16.302  0.00  0.00    -0.346 N 
ATOM     82  C   GLU d   1      19.399  14.726 -17.341  0.00  0.00     0.241 C 
ATOM     83  O   GLU d   1      19.389  15.954 -17.238  0.00  0.00    -0.271 OA
ATOM     84  H   VAL d   1      19.236  12.902 -16.469  0.00  0.00     0.163 HD
BRANCH  82  85
ATOM     85  CA  GLU d   1      19.613  14.063 -18.704  0.00  0.00     0.090 C 
ATOM     86  H   GLU d   1      19.138  13.082 -18.687  0.00  0.00     0.087 H 
BRANCH  85  87
ATOM     87  N   GLU d   1      19.000  14.831 -19.784  0.00  0.00    -0.346 N 
ATOM     88  C   GLU d   1      17.758  15.300 -19.709  0.00  0.00     0.240 C 
ATOM     89  O   GLU d   1      17.017  15.090 -18.747  0.00  0.00    -0.271 OA
ATOM     90  H   GLU d   1      19.544  15.014 -20.627  0.00  0.00     0.163 HD
BRANCH  88  91
ATOM     91  CA  GLU d   1      17.272  16.129 -20.895  0.00  0.00     0.086 C 
ATOM     92  H   GLU d   1      17.670  15.704 -21.817  0.00  0.00     0.086 H 
BRANCH  91  93
ATOM     93  N   GLU d   1      15.818  16.098 -20.955  0.00  0.00    -0.346 N 
ATOM     94  C   ASP d   1      15.166  15.591 -21.995  0.00  0.00     0.249 C 
ATOM     95  O   ASP d   1      15.741  15.129 -22.988  0.00  0.00    -0.271 OA
ATOM     96  H   GLU d   1      15.283  16.478 -20.174  0.00  0.00     0.163 HD
BRANCH  94  97
ATOM     97  CA  ASP d   1      13.634  15.621 -21.910  0.00  0.00     0.185 C 
ATOM     98  H   ASP d   1      13.250  15.072 -22.770  0.00  0.00     0.100 H 
BRANCH  97  99
ATOM     99  N   ASP d   1      13.124  14.942 -20.717  0.00  0.00    -0.066 N 
ATOM    100  H   ASP d   1      13.470  13.983 -20.699  0.00  0.00     0.275 HD
ATOM    101  H   ASP d   1      13.443  15.436 -19.884  0.00  0.00     0.275 HD
ATOM    102  H   ASP d   1      12.104  14.936 -20.740  0.00  0.00     0.275 HD
ENDBRANCH  97  99
BRANCH  97 103
ATOM    103  CB  ASP d   1      13.130  17.071 -21.968  0.00  0.00     0.050 C 
ATOM    104  H   ASP d   1      13.871  17.660 -22.509  0.00  0.00     0.052 H 
ATOM    105  H   ASP d   1      12.983  17.413 -20.944  0.00  0.00     0.052 H 
BRANCH 103 106
ATOM    106  CG  ASP d   1      11.798  17.208 -22.702  0.00  0.00     0.175 C 
ATOM    107  OD1 ASP d   1      11.064  16.200 -22.832  0.00  0.00    -0.648 OA
ATOM    108  OD2 ASP d   1      11.489  18.337 -23.149  0.00  0.00    -0.648 OA
ENDBRANCH 103 106
ENDBRANCH  97 103
ENDBRANCH  94  97
ENDBRANCH  91  93
BRANCH  91 109
ATOM    109  CB  GLU d   1      17.774  17.571 -20.769  0.00  0.00    -0.049 C 
ATOM    110  H   GLU d   1      17.443  18.147 -21.633  0.00  0.00     0.030 H 
ATOM    111  H   GLU d   1      17.372  18.016 -19.859  0.00  0.00     0.030 H 
ATOM    112  H   GLU d   1      18.863  17.573 -20.726  0.00  0.00     0.030 H 
ENDBRANCH  91 109
ENDBRANCH  88  91
ENDBRANCH  85  87
BRANCH  85 113
ATOM    113  CB  GLU d   1      21.111  13.931 -18.957  0.00  0.00    -0.029 C 
ATOM    114  H   GLU d   1      21.549  14.917 -18.803  0.00  0.00     0.037 H 
ATOM    115  H   GLU d   1      21.231  13.536 -19.966  0.00  0.00     0.037 H 
BRANCH 113 116
ATOM    116  CG  GLU d   1      21.823  12.979 -18.021  0.00  0.00     0.018 C 
ATOM    117  H   GLU d   1      21.192  12.828 -17.145  0.00  0.00     0.049 H 
ATOM    118  H   GLU d   1      22.788  13.416 -17.762  0.00  0.00     0.049 H 
BRANCH 116 119
ATOM    119  CD  GLU d   1      22.073  11.628 -18.662  0.00  0.00     0.172 C 
ATOM    120  OE1 GLU d   1      21.383  11.306 -19.654  0.00  0.00    -0.648 OA
ATOM    121  OE2 GLU d   1      22.963  10.892 -18.179  0.00  0.00    -0.648 OA
ENDBRANCH 116 119
ENDBRANCH 113 116
ENDBRANCH  85 113
ENDBRANCH  82  85
ENDBRANCH  79  81
BRANCH  79 122
ATOM    122  CB  VAL d   1      17.628  14.184 -14.435  0.00  0.00    -0.033 C 
ATOM    123  H   VAL d   1      17.506  13.112 -14.281  0.00  0.00     0.042 H 
BRANCH 122 124
ATOM    124  CG1 VAL d   1      17.396  14.789 -13.074  0.00  0.00    -0.071 C 
ATOM    125  H   VAL d   1      18.071  14.328 -12.353  0.00  0.00     0.028 H 
ATOM    126  H   VAL d   1      17.586  15.861 -13.117  0.00  0.00     0.028 H 
ATOM    127  H   VAL d   1      16.364  14.614 -12.771  0.00  0.00     0.028 H 
ENDBRANCH 122 124
BRANCH 122 128
ATOM    128  CG2 VAL d   1      16.572  14.490 -15.473  0.00  0.00    -0.071 C 
ATOM    129  H   VAL d   1      16.660  15.531 -15.783  0.00  0.00     0.028 H 
ATOM    130  H   VAL d   1      16.714  13.840 -16.336  0.00  0.00     0.028 H 
ATOM    131  H   VAL d   1      15.584  14.319 -15.046  0.00  0.00     0.028 H 
ENDBRANCH 122 128
ENDBRANCH  79 122
ENDBRANCH  76  79
ENDBRANCH  73  75
BRANCH  73 132
ATOM    132  CB  ASP d   1      23.065  13.948 -12.366  0.00  0.00     0.043 C 
ATOM    133  H   ASP d   1      23.031  15.007 -12.108  0.00  0.00     0.052 H 
ATOM    134  H   ASP d   1      23.462  13.772 -13.366  0.00  0.00     0.052 H 
BRANCH 132 135
ATOM    135  CG  ASP d   1      23.976  13.257 -11.376  0.00  0.00     0.175 C 
ATOM    136  OD1 ASP d   1      25.063  12.798 -11.797  0.00  0.00    -0.648 OA
ATOM    137  OD2 ASP d   1      23.601  13.168 -10.183  0.00  0.00    -0.648 OA
ENDBRANCH 132 135
ENDBRANCH  73 132
ENDBRANCH   1  73
TORSDOF 44
