REMARK WARNING: 32 MAX_TORS EXCEEDED!!!
REMARK  46 active torsions:
REMARK  status: ('A' for Active; 'I' for Inactive)
REMARK    1  A    between atoms: N_1  and  CA_2 
REMARK    2  A    between atoms: CA_2  and  C_3 
REMARK    3  A    between atoms: CA_2  and  CB_5 
REMARK       I    between atoms: C_3  and  N_9 
REMARK    4  A    between atoms: CB_5  and  CG_6 
REMARK    5  A    between atoms: N_9  and  CA_10 
REMARK    6  A    between atoms: CA_10  and  C_11 
REMARK    7  A    between atoms: CA_10  and  CB_13 
REMARK       I    between atoms: C_11  and  N_18 
REMARK    8  A    between atoms: CB_13  and  CG_14 
REMARK    9  A    between atoms: CG_14  and  CD_15 
REMARK   10  A    between atoms: N_18  and  CA_19 
REMARK   11  A    between atoms: CA_19  and  C_20 
REMARK   12  A    between atoms: CA_19  and  CB_22 
REMARK       I    between atoms: C_20  and  N_27 
REMARK   13  A    between atoms: CB_22  and  CG_23 
REMARK   14  A    between atoms: CG_23  and  CD_24 
REMARK   15  A    between atoms: N_27  and  CA_28 
REMARK   16  A    between atoms: CA_28  and  C_29 
REMARK   17  A    between atoms: CA_28  and  CB_31 
REMARK       I    between atoms: C_29  and  N_34 
REMARK   18  A    between atoms: CB_31  and  CG1_32 
REMARK   19  A    between atoms: CB_31  and  CG2_33 
REMARK   20  A    between atoms: N_34  and  CA_35 
REMARK   21  A    between atoms: CA_35  and  C_36 
REMARK   22  A    between atoms: CA_35  and  CB_38 
REMARK       I    between atoms: C_36  and  N_42 
REMARK   23  A    between atoms: CB_38  and  CG_39 
REMARK   24  A    between atoms: N_42  and  CA_43 
REMARK   25  A    between atoms: CA_43  and  C_44 
REMARK   26  A    between atoms: CA_43  and  CB_46 
REMARK       I    between atoms: C_44  and  N_49 
REMARK   27  A    between atoms: CB_46  and  CG1_47 
REMARK   28  A    between atoms: CB_46  and  CG2_48 
REMARK   29  A    between atoms: N_49  and  CA_50 
REMARK   30  A    between atoms: CA_50  and  C_51 
REMARK   31  A    between atoms: CA_50  and  CB_53 
REMARK       I    between atoms: C_51  and  N_56 
REMARK   32  A    between atoms: CB_53  and  OG1_54 
REMARK   33  A    between atoms: CB_53  and  CG2_55 
REMARK   34  A    between atoms: N_56  and  CA_57 
REMARK   35  A    between atoms: CA_57  and  C_58 
REMARK   36  A    between atoms: CA_57  and  CB_60 
REMARK       I    between atoms: C_58  and  N_62 
REMARK   37  A    between atoms: CB_60  and  OG_61 
REMARK   38  A    between atoms: N_62  and  CA_63 
REMARK   39  A    between atoms: CA_63  and  C_64 
REMARK   40  A    between atoms: CA_63  and  CB_66 
REMARK       I    between atoms: C_64  and  N_69 
REMARK   41  A    between atoms: CB_66  and  CG1_67 
REMARK   42  A    between atoms: CB_66  and  CG2_68 
REMARK   43  A    between atoms: N_69  and  CA_70 
REMARK   44  A    between atoms: CA_70  and  C_71 
REMARK   45  A    between atoms: CA_70  and  CB_73 
REMARK   46  A    between atoms: CB_73  and  CG_74 
ROOT
ATOM      1  C   ASP d   1       3.411 -12.942 -12.669  0.00  0.00     0.241 C 
ATOM      2  O   ASP d   1       3.471 -14.055 -12.132  0.00  0.00    -0.271 OA
ATOM      3  N   VAL d   1       3.804 -11.827 -12.064  0.00  0.00    -0.346 N 
ATOM      4  H   VAL d   1       3.741 -10.940 -12.564  0.00  0.00     0.163 HD
ENDROOT
BRANCH   1   5
ATOM      5  CA  ASP d   1       2.871 -12.769 -14.100  0.00  0.00     0.098 C 
ATOM      6  H   ASP d   1       2.884 -11.702 -14.322  0.00  0.00     0.088 H 
BRANCH   5   7
ATOM      7  N   ASP d   1       3.700 -13.458 -15.070  0.00  0.00    -0.345 N 
ATOM      8  C   VAL d   1       4.753 -12.902 -15.646  0.00  0.00     0.241 C 
ATOM      9  O   VAL d   1       5.109 -11.753 -15.410  0.00  0.00    -0.271 OA
ATOM     10  H   ASP d   1       3.460 -14.417 -15.320  0.00  0.00     0.163 HD
BRANCH   8  11
ATOM     11  CA  VAL d   1       5.519 -13.776 -16.638  0.00  0.00     0.092 C 
ATOM     12  H   VAL d   1       5.091 -14.778 -16.661  0.00  0.00     0.088 H 
BRANCH  11  13
ATOM     13  N   VAL d   1       5.412 -13.229 -17.990  0.00  0.00    -0.346 N 
ATOM     14  C   GLU d   1       5.494 -13.964 -19.100  0.00  0.00     0.241 C 
ATOM     15  O   GLU d   1       5.635 -15.187 -19.100  0.00  0.00    -0.271 OA
ATOM     16  H   VAL d   1       5.266 -12.225 -18.090  0.00  0.00     0.163 HD
BRANCH  14  17
ATOM     17  CA  GLU d   1       5.404 -13.188 -20.414  0.00  0.00     0.090 C 
ATOM     18  H   GLU d   1       6.073 -12.334 -20.314  0.00  0.00     0.087 H 
BRANCH  17  19
ATOM     19  N   GLU d   1       5.877 -13.947 -21.567  0.00  0.00    -0.346 N 
ATOM     20  C   GLU d   1       7.123 -14.405 -21.650  0.00  0.00     0.241 C 
ATOM     21  O   GLU d   1       7.941 -14.291 -20.735  0.00  0.00    -0.271 OA
ATOM     22  H   GLU d   1       5.231 -14.132 -22.334  0.00  0.00     0.163 HD
BRANCH  20  23
ATOM     23  CA  GLU d   1       7.496 -15.103 -22.967  0.00  0.00     0.090 C 
ATOM     24  H   GLU d   1       6.893 -14.644 -23.750  0.00  0.00     0.087 H 
BRANCH  23  25
ATOM     25  N   GLU d   1       8.896 -14.893 -23.346  0.00  0.00    -0.346 N 
ATOM     26  C   ASP d   1       9.898 -15.488 -22.701  0.00  0.00     0.249 C 
ATOM     27  O   ASP d   1       9.721 -16.296 -21.786  0.00  0.00    -0.271 OA
ATOM     28  H   GLU d   1       9.109 -14.273 -24.127  0.00  0.00     0.163 HD
BRANCH  26  29
ATOM     29  CA  ASP d   1      11.315 -15.123 -23.149  0.00  0.00     0.185 C 
ATOM     30  H   ASP d   1      11.261 -14.708 -24.155  0.00  0.00     0.100 H 
BRANCH  29  31
ATOM     31  N   ASP d   1      11.894 -14.109 -22.269  0.00  0.00    -0.066 N 
ATOM     32  H   ASP d   1      11.294 -13.284 -22.262  0.00  0.00     0.275 HD
ATOM     33  H   ASP d   1      11.970 -14.484 -21.324  0.00  0.00     0.275 HD
ATOM     34  H   ASP d   1      12.821 -13.854 -22.610  0.00  0.00     0.275 HD
ENDBRANCH  29  31
BRANCH  29  35
ATOM     35  CB  ASP d   1      12.202 -16.377 -23.177  0.00  0.00     0.050 C 
ATOM     36  H   ASP d   1      12.127 -16.862 -22.203  0.00  0.00     0.052 H 
ATOM     37  H   ASP d   1      13.219 -16.062 -23.413  0.00  0.00     0.052 H 
BRANCH  35  38
ATOM     38  CG  ASP d   1      11.766 -17.382 -24.234  0.00  0.00     0.175 C 
ATOM     39  OD1 ASP d   1      11.044 -16.977 -25.170  0.00  0.00    -0.648 OA
ATOM     40  OD2 ASP d   1      12.149 -18.571 -24.131  0.00  0.00    -0.648 OA
ENDBRANCH  35  38
ENDBRANCH  29  35
ENDBRANCH  26  29
ENDBRANCH  23  25
BRANCH  23  41
ATOM     41  CB  GLU d   1       7.164 -16.599 -22.898  0.00  0.00    -0.029 C 
ATOM     42  H   GLU d   1       8.059 -17.112 -22.547  0.00  0.00     0.037 H 
ATOM     43  H   GLU d   1       6.838 -16.902 -23.893  0.00  0.00     0.037 H 
BRANCH  41  44
ATOM     44  CG  GLU d   1       6.036 -16.945 -21.928  0.00  0.00     0.018 C 
ATOM     45  H   GLU d   1       5.146 -16.403 -22.247  0.00  0.00     0.049 H 
ATOM     46  H   GLU d   1       6.365 -16.672 -20.925  0.00  0.00     0.049 H 
BRANCH  44  47
ATOM     47  CD  GLU d   1       5.696 -18.428 -21.916  0.00  0.00     0.172 C 
ATOM     48  OE1 GLU d   1       4.918 -18.854 -21.031  0.00  0.00    -0.648 OA
ATOM     49  OE2 GLU d   1       6.205 -19.163 -22.791  0.00  0.00    -0.648 OA
ENDBRANCH  44  47
ENDBRANCH  41  44
ENDBRANCH  23  41
ENDBRANCH  20  23
ENDBRANCH  17  19
BRANCH  17  50
ATOM     50  CB  GLU d   1       3.972 -12.689 -20.646  0.00  0.00    -0.029 C 
ATOM     51  H   GLU d   1       3.714 -12.050 -19.801  0.00  0.00     0.037 H 
ATOM     52  H   GLU d   1       3.339 -13.570 -20.752  0.00  0.00     0.037 H 
BRANCH  50  53
ATOM     53  CG  GLU d   1       3.794 -11.848 -21.919  0.00  0.00     0.018 C 
ATOM     54  H   GLU d   1       2.761 -11.967 -22.246  0.00  0.00     0.049 H 
ATOM     55  H   GLU d   1       4.528 -12.198 -22.645  0.00  0.00     0.049 H 
BRANCH  53  56
ATOM     56  CD  GLU d   1       4.037 -10.352 -21.709  0.00  0.00     0.172 C 
ATOM     57  OE1 GLU d   1       4.858  -9.762 -22.450  0.00  0.00    -0.648 OA
ATOM     58  OE2 GLU d   1       3.398  -9.760 -20.811  0.00  0.00    -0.648 OA
ENDBRANCH  53  56
ENDBRANCH  50  53
ENDBRANCH  17  50
ENDBRANCH  14  17
ENDBRANCH  11  13
BRANCH  11  59
ATOM     59  CB  VAL d   1       6.990 -13.865 -16.182  0.00  0.00    -0.033 C 
ATOM     60  H   VAL d   1       7.534 -13.032 -16.627  0.00  0.00     0.042 H 
BRANCH  59  61
ATOM     61  CG1 VAL d   1       7.093 -13.746 -14.676  0.00  0.00    -0.071 C 
ATOM     62  H   VAL d   1       6.683 -12.787 -14.360  0.00  0.00     0.028 H 
ATOM     63  H   VAL d   1       6.530 -14.554 -14.210  0.00  0.00     0.028 H 
ATOM     64  H   VAL d   1       8.139 -13.812 -14.378  0.00  0.00     0.028 H 
ENDBRANCH  59  61
BRANCH  59  65
ATOM     65  CG2 VAL d   1       7.625 -15.155 -16.664  0.00  0.00    -0.071 C 
ATOM     66  H   VAL d   1       7.077 -16.003 -16.254  0.00  0.00     0.028 H 
ATOM     67  H   VAL d   1       7.591 -15.191 -17.753  0.00  0.00     0.028 H 
ATOM     68  H   VAL d   1       8.662 -15.195 -16.330  0.00  0.00     0.028 H 
ENDBRANCH  59  65
ENDBRANCH  11  59
ENDBRANCH   8  11
ENDBRANCH   5   7
BRANCH   5  69
ATOM     69  CB  ASP d   1       1.441 -13.309 -14.200  0.00  0.00     0.043 C 
ATOM     70  H   ASP d   1       1.470 -14.370 -13.952  0.00  0.00     0.052 H 
ATOM     71  H   ASP d   1       1.084 -13.115 -15.211  0.00  0.00     0.052 H 
BRANCH  69  72
ATOM     72  CG  ASP d   1       0.480 -12.635 -13.234  0.00  0.00     0.175 C 
ATOM     73  OD1 ASP d   1       0.894 -12.297 -12.101  0.00  0.00    -0.648 OA
ATOM     74  OD2 ASP d   1      -0.702 -12.459 -13.609  0.00  0.00    -0.648 OA
ENDBRANCH  69  72
ENDBRANCH   5  69
ENDBRANCH   1   5
BRANCH   3  75
ATOM     75  CA  VAL d   1       4.322 -11.841 -10.705  0.00  0.00     0.092 C 
ATOM     76  H   VAL d   1       4.465 -12.885 -10.425  0.00  0.00     0.088 H 
BRANCH  75  77
ATOM     77  C   VAL d   1       3.335 -11.185  -9.749  0.00  0.00     0.241 C 
ATOM     78  O   VAL d   1       3.684 -10.857  -8.615  0.00  0.00    -0.271 OA
ATOM     79  N   THR d   1       2.101 -10.995 -10.207  0.00  0.00    -0.344 N 
ATOM     80  H   THR d   1       1.862 -11.293 -11.153  0.00  0.00     0.163 HD
BRANCH  79  81
ATOM     81  CA  THR d   1       1.088 -10.366  -9.372  0.00  0.00     0.113 C 
ATOM     82  H   THR d   1       1.617 -10.130  -8.449  0.00  0.00     0.091 H 
BRANCH  81  83
ATOM     83  C   THR d   1      -0.089 -11.260  -9.005  0.00  0.00     0.243 C 
ATOM     84  O   THR d   1      -0.648 -11.130  -7.917  0.00  0.00    -0.271 OA
ATOM     85  N   SER d   1      -0.469 -12.156  -9.908  0.00  0.00    -0.344 N 
ATOM     86  H   SER d   1       0.118 -12.325 -10.725  0.00  0.00     0.163 HD
BRANCH  85  87
ATOM     87  CA  SER d   1      -1.714 -12.904  -9.750  0.00  0.00     0.109 C 
ATOM     88  H   SER d   1      -2.367 -12.309  -9.111  0.00  0.00     0.090 H 
BRANCH  87  89
ATOM     89  C   SER d   1      -1.502 -14.234  -9.051  0.00  0.00     0.243 C 
ATOM     90  O   SER d   1      -0.536 -14.940  -9.330  0.00  0.00    -0.271 OA
ATOM     91  N   VAL d   1      -2.420 -14.566  -8.148  0.00  0.00    -0.346 N 
ATOM     92  H   VAL d   1      -3.266 -14.001  -8.077  0.00  0.00     0.163 HD
BRANCH  91  93
ATOM     93  CA  VAL d   1      -2.261 -15.710  -7.254  0.00  0.00     0.092 C 
ATOM     94  H   VAL d   1      -1.227 -16.040  -7.354  0.00  0.00     0.088 H 
BRANCH  93  95
ATOM     95  C   VAL d   1      -3.164 -16.873  -7.651  0.00  0.00     0.241 C 
ATOM     96  O   VAL d   1      -3.976 -17.365  -6.863  0.00  0.00    -0.271 OA
ATOM     97  N   ASP d   1      -3.002 -17.308  -8.892  0.00  0.00    -0.344 N 
ATOM     98  H   ASP d   1      -2.336 -16.831  -9.500  0.00  0.00     0.163 HD
BRANCH  97  99
ATOM     99  CA  ASP d   1      -3.742 -18.441  -9.412  0.00  0.00     0.105 C 
ATOM    100  H   ASP d   1      -4.287 -18.948  -8.616  0.00  0.00     0.090 H 
BRANCH  99 101
ATOM    101  C   ASP d   1      -2.738 -19.401 -10.035  0.00  0.00     0.197 C 
ATOM    102  O   ASP d   1      -1.534 -19.253  -9.798  0.00  0.00    -0.646 OA
ATOM    103  OXT ASP d   1      -3.090 -20.330 -10.768  0.00  0.00    -0.646 OA
ENDBRANCH  99 101
BRANCH  99 104
ATOM    104  CB  ASP d   1      -4.780 -17.971 -10.436  0.00  0.00     0.044 C 
ATOM    105  H   ASP d   1      -5.352 -18.841 -10.759  0.00  0.00     0.053 H 
ATOM    106  H   ASP d   1      -4.249 -17.492 -11.258  0.00  0.00     0.053 H 
BRANCH 104 107
ATOM    107  CG  ASP d   1      -5.757 -16.956  -9.852  0.00  0.00     0.175 C 
ATOM    108  OD1 ASP d   1      -6.562 -17.339  -8.975  0.00  0.00    -0.648 OA
ATOM    109  OD2 ASP d   1      -5.718 -15.776 -10.264  0.00  0.00    -0.648 OA
ENDBRANCH 104 107
ENDBRANCH  99 104
ENDBRANCH  97  99
ENDBRANCH  93  95
BRANCH  93 110
ATOM    110  CB  VAL d   1      -2.500 -15.321  -5.781  0.00  0.00    -0.033 C 
ATOM    111  H   VAL d   1      -2.424 -16.219  -5.168  0.00  0.00     0.042 H 
BRANCH 110 112
ATOM    112  CG1 VAL d   1      -1.451 -14.322  -5.333  0.00  0.00    -0.071 C 
ATOM    113  H   VAL d   1      -0.461 -14.768  -5.431  0.00  0.00     0.028 H 
ATOM    114  H   VAL d   1      -1.512 -13.429  -5.955  0.00  0.00     0.028 H 
ATOM    115  H   VAL d   1      -1.628 -14.053  -4.292  0.00  0.00     0.028 H 
ENDBRANCH 110 112
BRANCH 110 116
ATOM    116  CG2 VAL d   1      -3.890 -14.732  -5.601  0.00  0.00    -0.071 C 
ATOM    117  H   VAL d   1      -3.989 -13.842  -6.222  0.00  0.00     0.028 H 
ATOM    118  H   VAL d   1      -4.637 -15.469  -5.898  0.00  0.00     0.028 H 
ATOM    119  H   VAL d   1      -4.037 -14.465  -4.555  0.00  0.00     0.028 H 
ENDBRANCH 110 116
ENDBRANCH  93 110
ENDBRANCH  91  93
ENDBRANCH  87  89
BRANCH  87 120
ATOM    120  CB  SER d   1      -2.402 -13.105 -11.107  0.00  0.00     0.044 C 
ATOM    121  H   SER d   1      -3.264 -13.758 -10.971  0.00  0.00     0.077 H 
ATOM    122  H   SER d   1      -1.688 -13.548 -11.801  0.00  0.00     0.077 H 
BRANCH 120 123
ATOM    123  OG  SER d   1      -2.846 -11.861 -11.636  0.00  0.00    -0.398 OA
ATOM    124  H   SER d   1      -3.273 -12.009 -12.483  0.00  0.00     0.209 HD
ENDBRANCH 120 123
ENDBRANCH  87 120
ENDBRANCH  85  87
ENDBRANCH  81  83
BRANCH  81 125
ATOM    125  CB  THR d   1       0.527  -9.100 -10.045  0.00  0.00     0.060 C 
ATOM    126  H   THR d   1      -0.298  -8.720  -9.442  0.00  0.00     0.086 H 
BRANCH 125 127
ATOM    127  OG1 THR d   1       0.047  -9.417 -11.363  0.00  0.00    -0.393 OA
ATOM    128  H   THR d   1       0.770  -9.763 -11.891  0.00  0.00     0.210 HD
ENDBRANCH 125 127
BRANCH 125 129
ATOM    129  CG2 THR d   1       1.603  -8.038 -10.139  0.00  0.00    -0.050 C 
ATOM    130  H   THR d   1       1.952  -7.786  -9.137  0.00  0.00     0.031 H 
ATOM    131  H   THR d   1       2.436  -8.418 -10.730  0.00  0.00     0.031 H 
ATOM    132  H   THR d   1       1.193  -7.148 -10.617  0.00  0.00     0.031 H 
ENDBRANCH 125 129
ENDBRANCH  81 125
ENDBRANCH  79  81
ENDBRANCH  75  77
BRANCH  75 133
ATOM    133  CB  VAL d   1       5.676 -11.114 -10.610  0.00  0.00    -0.033 C 
ATOM    134  H   VAL d   1       5.879 -10.628 -11.565  0.00  0.00     0.042 H 
BRANCH 133 135
ATOM    135  CG1 VAL d   1       5.629 -10.042  -9.532  0.00  0.00    -0.071 C 
ATOM    136  H   VAL d   1       4.853  -9.317  -9.776  0.00  0.00     0.028 H 
ATOM    137  H   VAL d   1       5.406 -10.505  -8.571  0.00  0.00     0.028 H 
ATOM    138  H   VAL d   1       6.595  -9.539  -9.479  0.00  0.00     0.028 H 
ENDBRANCH 133 135
BRANCH 133 139
ATOM    139  CG2 VAL d   1       6.793 -12.109 -10.334  0.00  0.00    -0.071 C 
ATOM    140  H   VAL d   1       6.597 -12.621  -9.392  0.00  0.00     0.028 H 
ATOM    141  H   VAL d   1       6.837 -12.838 -11.143  0.00  0.00     0.028 H 
ATOM    142  H   VAL d   1       7.743 -11.578 -10.270  0.00  0.00     0.028 H 
ENDBRANCH 133 139
ENDBRANCH  75 133
ENDBRANCH   3  75
TORSDOF 46
