REMARK  6 active torsions:
REMARK  status: ('A' for Active; 'I' for Inactive)
REMARK    1  A    between atoms: C1_1  and  C2_2 
REMARK    2  A    between atoms: O1_5  and  C1_1 
REMARK    3  A    between atoms: C3_3  and  C4_4 
REMARK    4  A    between atoms: O2_6  and  C3_3 
REMARK    5  A    between atoms: P_8  and  O1_5 
REMARK    6  A    between atoms: O2_6  and  P_8 
ROOT
ATOM      1  O3  DEP d   1     -17.976  -1.128  42.358  0.00  0.00    -0.145 OA
ATOM      2  P   DEP d   1     -17.879  -1.477  40.918  0.00  0.00     0.364 P 
ENDROOT
BRANCH   2   3
ATOM      3  O1  DEP d   1     -16.346  -1.788  40.544  0.00  0.00    -0.316 OA
BRANCH   3   4
ATOM      4  C1  DEP d   1     -15.596  -2.717  41.339  0.00  0.00     0.025 C 
ATOM      5  H   DEP d   1     -14.625  -2.873  40.868  0.00  0.00     0.074 H 
ATOM      6  H   DEP d   1     -15.487  -2.306  42.343  0.00  0.00     0.074 H 
BRANCH   4   7
ATOM      7  C2  DEP d   1     -16.311  -4.066  41.439  0.00  0.00    -0.056 C 
ATOM      8  H   DEP d   1     -17.289  -3.924  41.900  0.00  0.00     0.030 H 
ATOM      9  H   DEP d   1     -16.436  -4.485  40.440  0.00  0.00     0.030 H 
ATOM     10  H   DEP d   1     -15.716  -4.747  42.048  0.00  0.00     0.030 H 
ENDBRANCH   4   7
ENDBRANCH   3   4
ENDBRANCH   2   3
BRANCH   2  11
ATOM     11  O2  DEP d   1     -18.257  -0.192  40.002  0.00  0.00    -0.316 OA
BRANCH  11  12
ATOM     12  C3  DEP d   1     -19.633   0.161  39.770  0.00  0.00     0.025 C 
ATOM     13  H   DEP d   1     -20.002  -0.422  38.926  0.00  0.00     0.074 H 
ATOM     14  H   DEP d   1     -20.201  -0.047  40.677  0.00  0.00     0.074 H 
BRANCH  12  15
ATOM     15  C4  DEP d   1     -19.781   1.648  39.434  0.00  0.00    -0.056 C 
ATOM     16  H   DEP d   1     -19.406   2.246  40.264  0.00  0.00     0.030 H 
ATOM     17  H   DEP d   1     -19.209   1.875  38.534  0.00  0.00     0.030 H 
ATOM     18  H   DEP d   1     -20.833   1.878  39.265  0.00  0.00     0.030 H 
ENDBRANCH  12  15
ENDBRANCH  11  12
ENDBRANCH   2  11
TORSDOF 6
