REMARK  10 active torsions:
REMARK  status: ('A' for Active; 'I' for Inactive)
REMARK       I    between atoms: C5_2  and  N4_3 
REMARK    1  A    between atoms: C5_2  and  C7_9 
REMARK    2  A    between atoms: N4_3  and  C3_4 
REMARK    3  A    between atoms: C3_4  and  B_5 
REMARK    4  A    between atoms: C3_4  and  C16_8 
REMARK    5  A    between atoms: B_5  and  O2_6 
REMARK    6  A    between atoms: B_5  and  O1_7 
REMARK    7  A    between atoms: C14_10  and  O15_11 
REMARK    8  A    between atoms: O15_11  and  C15_12 
REMARK    9  A    between atoms: C8_16  and  O9_17 
REMARK   10  A    between atoms: O9_17  and  C10_18 
ROOT
ATOM      1  C7  EWA d   1      -2.519   0.810  37.322  0.00  0.00     0.098 C 
ATOM      2  C14 EWA d   1      -3.161   1.597  36.374  0.00  0.00     0.086 C 
ATOM      3  C13 EWA d   1      -4.547   1.707  36.480  0.00  0.00    -0.050 C 
ATOM      4  C12 EWA d   1      -5.222   1.119  37.560  0.00  0.00    -0.078 C 
ATOM      5  C11 EWA d   1      -4.531   0.396  38.535  0.00  0.00    -0.050 C 
ATOM      6  C8  EWA d   1      -3.140   0.275  38.461  0.00  0.00     0.086 C 
ATOM      7  H   EWA d   1      -5.108   2.252  35.721  0.00  0.00     0.087 H 
ATOM      8  H   EWA d   1      -6.304   1.228  37.640  0.00  0.00     0.083 H 
ATOM      9  H   EWA d   1      -5.076  -0.074  39.354  0.00  0.00     0.087 H 
ENDROOT
BRANCH   1  10
ATOM     10  C5  EWA d   1      -1.033   0.751  37.154  0.00  0.00     0.257 C 
ATOM     11  O6  EWA d   1      -0.277   0.916  38.111  0.00  0.00    -0.267 OA
ATOM     12  N4  EWA d   1      -0.945  -0.169  36.186  0.00  0.00    -0.356 N 
ATOM     13  H   EWA d   1      -1.629  -0.057  35.437  0.00  0.00     0.162 HD
BRANCH  12  14
ATOM     14  C3  EWA d   1      -0.058  -1.286  36.015  0.00  0.00     0.043 C 
ATOM     15  H   EWA d   1       0.839  -1.230  36.632  0.00  0.00     0.064 H 
BRANCH  14  16
ATOM     16  B   EWA d   1      -0.861  -2.597  36.395  0.00  0.00     0.514 B 
BRANCH  16  17
ATOM     17  O2  EWA d   1      -1.525  -2.424  37.764  0.00  0.00    -0.436 OA
ATOM     18  H   EWA d   1      -2.007  -3.224  37.988  0.00  0.00     0.184 HD
ENDBRANCH  16  17
BRANCH  16  19
ATOM     19  O1  EWA d   1      -1.980  -2.856  35.385  0.00  0.00    -0.436 OA
ATOM     20  H   EWA d   1      -2.583  -2.109  35.378  0.00  0.00     0.184 HD
ENDBRANCH  16  19
ENDBRANCH  14  16
BRANCH  14  21
ATOM     21  C16 EWA d   1       0.296  -1.294  34.536  0.00  0.00    -0.060 C 
ATOM     22  H   EWA d   1       0.912  -2.166  34.316  0.00  0.00     0.029 H 
ATOM     23  H   EWA d   1      -0.619  -1.335  33.945  0.00  0.00     0.029 H 
ATOM     24  H   EWA d   1       0.848  -0.386  34.291  0.00  0.00     0.029 H 
ENDBRANCH  14  21
ENDBRANCH  12  14
ENDBRANCH   1  10
BRANCH   2  25
ATOM     25  O15 EWA d   1      -2.383   2.166  35.271  0.00  0.00    -0.355 OA
BRANCH  25  26
ATOM     26  C15 EWA d   1      -2.853   2.281  33.922  0.00  0.00     0.010 C 
ATOM     27  H   EWA d   1      -3.089   1.290  33.535  0.00  0.00     0.066 H 
ATOM     28  H   EWA d   1      -3.748   2.903  33.902  0.00  0.00     0.066 H 
ATOM     29  H   EWA d   1      -2.078   2.738  33.306  0.00  0.00     0.066 H 
ENDBRANCH  25  26
ENDBRANCH   2  25
BRANCH   6  30
ATOM     30  O9  EWA d   1      -2.400  -0.510  39.449  0.00  0.00    -0.355 OA
BRANCH  30  31
ATOM     31  C10 EWA d   1      -2.870  -0.708  40.785  0.00  0.00     0.010 C 
ATOM     32  H   EWA d   1      -2.975   0.258  41.279  0.00  0.00     0.066 H 
ATOM     33  H   EWA d   1      -3.837  -1.210  40.758  0.00  0.00     0.066 H 
ATOM     34  H   EWA d   1      -2.155  -1.322  41.333  0.00  0.00     0.066 H 
ENDBRANCH  30  31
ENDBRANCH   6  30
TORSDOF 10
