REMARK  4 active torsions:
REMARK  status: ('A' for Active; 'I' for Inactive)
REMARK    1  A    between atoms: N21_21  and  C07_7 
REMARK    2  A    between atoms: C08_8  and  C09_9 
REMARK    3  A    between atoms: C10_10  and  O23_23 
REMARK    4  A    between atoms: C15_15  and  N21_21 
ROOT
ATOM      1  C01 B4W d   1       7.785 -47.676   7.810  0.00  0.00    -0.067 A 
ATOM      2  C02 B4W d   1       7.017 -48.085   8.864  0.00  0.00    -0.082 A 
ATOM      3  C03 B4W d   1       7.618 -48.483  10.061  0.00  0.00    -0.081 A 
ATOM      4  C04 B4W d   1       9.075 -48.459  10.183  0.00  0.00    -0.054 A 
ATOM      5  C05 B4W d   1       9.871 -48.041   9.108  0.00  0.00     0.073 A 
ATOM      6  C06 B4W d   1       9.287 -47.651   7.935  0.00  0.00     0.038 A 
ATOM      7  C07 B4W d   1      10.114 -47.224   6.833  0.00  0.00     0.139 A 
ATOM      8  C08 B4W d   1      12.073 -47.588   8.110  0.00  0.00     0.165 A 
ATOM      9  N19 B4W d   1      11.227 -48.023   9.236  0.00  0.00    -0.228 NA
ATOM     10  N20 B4W d   1      11.496 -47.212   6.973  0.00  0.00    -0.210 NA
ATOM     11  H   B4W d   1       7.311 -47.368   6.878  0.00  0.00     0.085 H 
ATOM     12  H   B4W d   1       5.931 -48.101   8.770  0.00  0.00     0.083 H 
ATOM     13  H   B4W d   1       7.004 -48.810  10.900  0.00  0.00     0.083 H 
ATOM     14  H   B4W d   1       9.545 -48.768  11.117  0.00  0.00     0.087 H 
ENDROOT
BRANCH   7  15
ATOM     15  N21 B4W d   1       9.572 -46.776   5.566  0.00  0.00    -0.368 N 
ATOM     16  H   B4W d   1       9.110 -47.621   5.231  0.00  0.00     0.161 HD
BRANCH  15  17
ATOM     17  C15 B4W d   1       9.292 -45.843   4.485  0.00  0.00     0.035 C 
ATOM     18  C16 B4W d   1       9.075 -44.343   4.761  0.00  0.00     0.100 C 
ATOM     19  N22 B4W d   1       8.849 -43.759   3.410  0.00  0.00    -0.073 N 
ATOM     20  H   B4W d   1       9.925 -43.889   5.271  0.00  0.00     0.078 H 
ATOM     21  H   B4W d   1       8.237 -44.163   5.435  0.00  0.00     0.078 H 
ATOM     22  C17 B4W d   1       8.387 -44.864   2.512  0.00  0.00     0.084 C 
ATOM     23  H   B4W d   1       9.710 -43.346   3.052  0.00  0.00     0.277 HD
ATOM     24  H   B4W d   1       8.148 -43.019   3.454  0.00  0.00     0.277 HD
ATOM     25  C18 B4W d   1       8.303 -46.132   3.359  0.00  0.00    -0.022 C 
ATOM     26  H   B4W d   1       7.415 -44.626   2.081  0.00  0.00     0.075 H 
ATOM     27  H   B4W d   1       9.083 -45.002   1.685  0.00  0.00     0.075 H 
ATOM     28  H   B4W d   1       7.295 -46.340   3.719  0.00  0.00     0.038 H 
ATOM     29  H   B4W d   1       8.545 -47.036   2.800  0.00  0.00     0.038 H 
ATOM     30  H   B4W d   1      10.307 -46.087   4.171  0.00  0.00     0.075 H 
ENDBRANCH  15  17
ENDBRANCH   7  15
BRANCH   8  31
ATOM     31  C09 B4W d   1      13.578 -47.557   8.214  0.00  0.00     0.045 A 
ATOM     32  C10 B4W d   1      14.289 -48.109   9.402  0.00  0.00     0.079 A 
ATOM     33  C11 B4W d   1      15.666 -48.068   9.464  0.00  0.00    -0.050 A 
ATOM     34  C12 B4W d   1      16.404 -47.515   8.410  0.00  0.00    -0.080 A 
ATOM     35  H   B4W d   1      16.182 -48.468  10.337  0.00  0.00     0.087 H 
ATOM     36  C13 B4W d   1      15.722 -46.991   7.270  0.00  0.00    -0.082 A 
ATOM     37  H   B4W d   1      17.492 -47.485   8.460  0.00  0.00     0.083 H 
ATOM     38  C14 B4W d   1      14.289 -47.030   7.202  0.00  0.00    -0.067 A 
ATOM     39  H   B4W d   1      16.293 -46.559   6.448  0.00  0.00     0.083 H 
ATOM     40  H   B4W d   1      13.775 -46.631   6.327  0.00  0.00     0.085 H 
BRANCH  32  41
ATOM     41  O23 B4W d   1      13.576 -48.656  10.446  0.00  0.00    -0.360 OA
ATOM     42  H   B4W d   1      12.637 -48.609  10.250  0.00  0.00     0.217 HD
ENDBRANCH  32  41
ENDBRANCH   8  31
TORSDOF 4
