REMARK  5 active torsions:
REMARK  status: ('A' for Active; 'I' for Inactive)
REMARK    1  A    between atoms: N15_15  and  C07_7 
REMARK    2  A    between atoms: C08_8  and  C17_17 
REMARK    3  A    between atoms: C11_11  and  N15_15 
REMARK    4  A    between atoms: C18_18  and  O28_28 
REMARK    5  A    between atoms: C21_21  and  C23_23 
ROOT
ATOM      1  C01 LWH d   1      45.579 -19.156  -7.415  0.00  0.00    -0.067 A 
ATOM      2  C02 LWH d   1      45.740 -19.817  -6.205  0.00  0.00    -0.082 A 
ATOM      3  C03 LWH d   1      46.589 -19.315  -5.241  0.00  0.00    -0.081 A 
ATOM      4  C04 LWH d   1      47.288 -18.144  -5.482  0.00  0.00    -0.054 A 
ATOM      5  C05 LWH d   1      47.133 -17.473  -6.693  0.00  0.00     0.073 A 
ATOM      6  C06 LWH d   1      46.280 -17.974  -7.661  0.00  0.00     0.038 A 
ATOM      7  C07 LWH d   1      46.122 -17.306  -8.862  0.00  0.00     0.139 A 
ATOM      8  C08 LWH d   1      47.668 -15.686  -8.113  0.00  0.00     0.165 A 
ATOM      9  N09 LWH d   1      46.812 -16.165  -9.071  0.00  0.00    -0.210 NA
ATOM     10  N10 LWH d   1      47.823 -16.341  -6.915  0.00  0.00    -0.228 NA
ATOM     11  H   LWH d   1      44.906 -19.559  -8.172  0.00  0.00     0.085 H 
ATOM     12  H   LWH d   1      45.191 -20.740  -6.015  0.00  0.00     0.083 H 
ATOM     13  H   LWH d   1      46.709 -19.838  -4.292  0.00  0.00     0.083 H 
ATOM     14  H   LWH d   1      47.961 -17.746  -4.722  0.00  0.00     0.087 H 
ENDROOT
BRANCH   8  15
ATOM     15  C17 LWH d   1      48.332 -14.387  -8.416  0.00  0.00     0.046 C 
ATOM     16  C18 LWH d   1      49.060 -13.738  -7.427  0.00  0.00     0.079 C 
ATOM     17  C19 LWH d   1      49.595 -12.488  -7.704  0.00  0.00    -0.049 C 
ATOM     18  C20 LWH d   1      49.328 -11.864  -8.926  0.00  0.00    -0.068 C 
ATOM     19  H   LWH d   1      50.225 -11.991  -6.966  0.00  0.00     0.087 H 
ATOM     20  C21 LWH d   1      48.528 -12.474  -9.887  0.00  0.00    -0.005 C 
ATOM     21  H   LWH d   1      49.754 -10.882  -9.130  0.00  0.00     0.085 H 
ATOM     22  C22 LWH d   1      47.997 -13.725  -9.604  0.00  0.00    -0.054 C 
ATOM     23  H   LWH d   1      47.314 -14.196 -10.312  0.00  0.00     0.086 H 
BRANCH  16  24
ATOM     24  O28 LWH d   1      49.309 -14.378  -6.232  0.00  0.00    -0.360 OA
ATOM     25  H   LWH d   1      48.857 -15.225  -6.224  0.00  0.00     0.217 HD
ENDBRANCH  16  24
BRANCH  20  26
ATOM     26  C23 LWH d   1      48.249 -11.792 -11.197  0.00  0.00     0.088 A 
ATOM     27  C24 LWH d   1      48.405 -10.420 -11.475  0.00  0.00    -0.036 A 
ATOM     28  C25 LWH d   1      48.060 -10.198 -12.788  0.00  0.00    -0.002 A 
ATOM     29  H   LWH d   1      48.742  -9.662 -10.768  0.00  0.00     0.089 H 
ATOM     30  N27 LWH d   1      47.698 -11.436 -13.334  0.00  0.00    -0.289 N 
ATOM     31  H   LWH d   1      48.067  -9.239 -13.306  0.00  0.00     0.113 H 
ATOM     32  N26 LWH d   1      47.818 -12.381 -12.363  0.00  0.00    -0.175 NA
ATOM     33  H   LWH d   1      47.396 -11.601 -14.294  0.00  0.00     0.188 HD
ENDBRANCH  20  26
ENDBRANCH   8  15
BRANCH   7  34
ATOM     34  N15 LWH d   1      45.245 -17.767  -9.900  0.00  0.00    -0.368 N 
ATOM     35  H   LWH d   1      44.843 -18.701  -9.823  0.00  0.00     0.161 HD
BRANCH  34  36
ATOM     36  C11 LWH d   1      44.909 -16.958 -11.053  0.00  0.00     0.035 C 
ATOM     37  C12 LWH d   1      44.411 -15.560 -10.819  0.00  0.00     0.100 C 
ATOM     38  N16 LWH d   1      43.416 -15.337 -11.889  0.00  0.00    -0.073 N 
ATOM     39  H   LWH d   1      45.218 -14.828 -10.853  0.00  0.00     0.078 H 
ATOM     40  H   LWH d   1      43.977 -15.442  -9.826  0.00  0.00     0.078 H 
ATOM     41  C13 LWH d   1      43.703 -16.361 -12.883  0.00  0.00     0.084 C 
ATOM     42  H   LWH d   1      43.484 -14.398 -12.281  0.00  0.00     0.277 HD
ATOM     43  H   LWH d   1      42.460 -15.405 -11.539  0.00  0.00     0.277 HD
ATOM     44  C14 LWH d   1      43.980 -17.561 -12.053  0.00  0.00    -0.022 C 
ATOM     45  H   LWH d   1      42.882 -16.512 -13.584  0.00  0.00     0.075 H 
ATOM     46  H   LWH d   1      44.535 -16.096 -13.535  0.00  0.00     0.075 H 
ATOM     47  H   LWH d   1      43.096 -18.034 -11.626  0.00  0.00     0.038 H 
ATOM     48  H   LWH d   1      44.389 -18.410 -12.601  0.00  0.00     0.038 H 
ATOM     49  H   LWH d   1      45.923 -16.913 -11.449  0.00  0.00     0.075 H 
ENDBRANCH  34  36
ENDBRANCH   7  34
TORSDOF 5
