REMARK  3 active torsions:
REMARK  status: ('A' for Active; 'I' for Inactive)
REMARK    1  A    between atoms: C2_2  and  C1_1 
REMARK    2  A    between atoms: C4_3  and  C5_4 
REMARK    3  A    between atoms: C4_3  and  N1_9 
ROOT
ATOM      1  C2  OGA d   1      51.028  24.365  51.744  0.00  0.00     0.252 C 
ATOM      2  O2' OGA d   1      51.803  23.454  52.360  0.00  0.00    -0.165 OA
ATOM      3  N1  OGA d   1      51.534  25.217  50.884  0.00  0.00    -0.353 N 
ATOM      4  H3  OGA d   1      50.936  25.910  50.481  0.00  0.00     0.162 HD
ENDROOT
BRANCH   3   5
ATOM      5  C4  OGA d   1      52.923  25.188  50.501  0.00  0.00     0.074 C 
ATOM      6  H1  OGA d   1      53.545  25.122  51.406  0.00  0.00     0.080 H 
ATOM      7  H2  OGA d   1      53.104  24.308  49.867  0.00  0.00     0.080 H 
BRANCH   5   8
ATOM      8  C5  OGA d   1      53.301  26.454  49.723  0.00  0.00     0.191 C 
ATOM      9  O3  OGA d   1      54.305  27.088  50.131  0.00  0.00    -0.647 OA
ATOM     10  O4  OGA d   1      52.565  26.769  48.750  0.00  0.00    -0.647 OA
ENDBRANCH   5   8
ENDBRANCH   3   5
BRANCH   1  11
ATOM     11  C1  OGA d   1      49.566  24.452  52.100  0.00  0.00     0.255 C 
ATOM     12  O1  OGA d   1      49.032  23.676  52.927  0.00  0.00    -0.641 OA
ATOM     13  O2  OGA d   1      48.902  25.392  51.491  0.00  0.00    -0.641 OA
ENDBRANCH   1  11
TORSDOF 3
