REMARK  10 active torsions:
REMARK  status: ('A' for Active; 'I' for Inactive)
REMARK    1  A    between atoms: C9_11  and  O3_12 
REMARK    2  A    between atoms: C15_18  and  O5_19 
REMARK    3  A    between atoms: C22_26  and  C21_25 
REMARK       I    between atoms: N8_43  and  C22_26 
REMARK    4  A    between atoms: C1_28  and  C7_34 
REMARK    5  A    between atoms: O4_44  and  C4_31 
REMARK    6  A    between atoms: C7_34  and  C8_35 
REMARK    7  A    between atoms: C8_35  and  C9_36 
REMARK    8  A    between atoms: C8_35  and  N8_43 
REMARK    9  A    between atoms: C1'_37  and  O4_44 
REMARK   10  A    between atoms: C4'_40  and  O4'_45 
ROOT
ATOM      1  O1  F6Y d   1       1.504 -13.486  24.579  0.00  0.00    -0.259 OA
ATOM      2  C1  F6Y d   1       0.971 -12.537  24.027  0.00  0.00     0.295 A 
ATOM      3  C2  F6Y d   1       0.141 -11.482  24.661  0.00  0.00     0.049 A 
ATOM      4  C3  F6Y d   1      -0.222 -11.295  25.988  0.00  0.00    -0.066 A 
ATOM      5  C4  F6Y d   1      -1.025 -10.191  26.290  0.00  0.00    -0.067 A 
ATOM      6  O2  F6Y d   1       1.031 -12.238  22.603  0.00  0.00    -0.291 OA
ATOM      7  C5  F6Y d   1       0.261 -11.052  22.319  0.00  0.00     0.159 A 
ATOM      8  C6  F6Y d   1       1.131  -9.957  21.762  0.00  0.00     0.020 A 
ATOM      9  C7  F6Y d   1       2.476  -9.855  22.122  0.00  0.00    -0.068 A 
ATOM     10  C8  F6Y d   1       3.264  -8.832  21.597  0.00  0.00    -0.050 A 
ATOM     11  C9  F6Y d   1       2.710  -7.907  20.715  0.00  0.00     0.068 A 
ATOM     12  C11 F6Y d   1       1.368  -8.007  20.358  0.00  0.00    -0.018 A 
ATOM     13  C12 F6Y d   1       0.582  -9.029  20.884  0.00  0.00     0.088 A 
ATOM     14  O4  F6Y d   1      -0.740  -9.128  20.529  0.00  0.00    -0.309 OA
ATOM     15  C13 F6Y d   1      -1.356 -10.355  20.544  0.00  0.00     0.088 A 
ATOM     16  C14 F6Y d   1      -2.430 -10.601  19.692  0.00  0.00    -0.018 A 
ATOM     17  C15 F6Y d   1      -3.058 -11.844  19.703  0.00  0.00     0.068 A 
ATOM     18  C16 F6Y d   1      -2.607 -12.840  20.567  0.00  0.00    -0.050 A 
ATOM     19  C17 F6Y d   1      -1.531 -12.593  21.419  0.00  0.00    -0.068 A 
ATOM     20  C18 F6Y d   1      -0.899 -11.348  21.406  0.00  0.00     0.020 A 
ATOM     21  C19 F6Y d   1      -0.258 -10.633  23.666  0.00  0.00     0.004 A 
ATOM     22  C20 F6Y d   1      -1.058  -9.533  23.950  0.00  0.00    -0.057 A 
ATOM     23  C21 F6Y d   1      -1.435  -9.312  25.277  0.00  0.00     0.032 A 
ATOM     24  H   F6Y d   1       0.107 -11.984  26.766  0.00  0.00     0.085 H 
ATOM     25  H   F6Y d   1      -1.335 -10.012  27.320  0.00  0.00     0.085 H 
ATOM     26  H   F6Y d   1       2.910 -10.576  22.814  0.00  0.00     0.084 H 
ATOM     27  H   F6Y d   1       4.315  -8.756  21.877  0.00  0.00     0.087 H 
ATOM     28  H   F6Y d   1       0.933  -7.285  19.667  0.00  0.00     0.092 H 
ATOM     29  H   F6Y d   1      -2.779  -9.820  19.016  0.00  0.00     0.092 H 
ATOM     30  H   F6Y d   1      -3.096 -13.814  20.577  0.00  0.00     0.087 H 
ATOM     31  H   F6Y d   1      -1.183 -13.373  22.096  0.00  0.00     0.084 H 
ATOM     32  H   F6Y d   1      -1.383  -8.859  23.157  0.00  0.00     0.086 H 
ENDROOT
BRANCH  23  33
ATOM     33  C22 F6Y d   1      -2.308  -8.135  25.608  0.00  0.00     0.252 C 
ATOM     34  O6  F6Y d   1      -1.801  -7.101  26.011  0.00  0.00    -0.268 OA
ATOM     35  N8  T44 d   1      -3.629  -8.245  25.455  0.00  0.00    -0.342 N 
ATOM     36  H   F6Y d   1      -4.217  -7.439  25.667  0.00  0.00     0.163 HD
BRANCH  35  37
ATOM     37  C8  T44 d   1      -4.261  -9.474  24.996  0.00  0.00     0.100 C 
ATOM     38  H   F6Y d   1      -3.584 -10.304  25.197  0.00  0.00     0.090 H 
BRANCH  37  39
ATOM     39  C7  T44 d   1      -5.549  -9.709  25.781  0.00  0.00    -0.013 C 
ATOM     40  H   F6Y d   1      -5.801 -10.761  25.651  0.00  0.00     0.043 H 
ATOM     41  H   F6Y d   1      -5.348  -9.392  26.804  0.00  0.00     0.043 H 
BRANCH  39  42
ATOM     42  C1  T44 d   1      -6.755  -8.921  25.319  0.00  0.00    -0.053 A 
ATOM     43  C2  T44 d   1      -7.504  -9.380  24.240  0.00  0.00    -0.058 A 
ATOM     44  C3  T44 d   1      -8.622  -8.677  23.811  0.00  0.00     0.042 A 
ATOM     45  H   F6Y d   1      -7.211 -10.297  23.728  0.00  0.00     0.086 H 
ATOM     46  C4  T44 d   1      -9.015  -7.517  24.467  0.00  0.00     0.109 A 
ATOM     47  I3  T44 d   1      -9.692  -9.425  22.184  0.00  0.00    -0.042 I 
ATOM     48  C5  T44 d   1      -8.273  -7.061  25.550  0.00  0.00     0.042 A 
ATOM     49  C6  T44 d   1      -7.148  -7.761  25.982  0.00  0.00    -0.058 A 
ATOM     50  I5  T44 d   1      -8.835  -5.319  26.551  0.00  0.00    -0.042 I 
ATOM     51  H   F6Y d   1      -6.577  -7.401  26.838  0.00  0.00     0.086 H 
BRANCH  46  52
ATOM     52  O4  T44 d   1     -10.117  -6.812  24.039  0.00  0.00    -0.308 OA
BRANCH  52  53
ATOM     53  C1' T44 d   1     -10.030  -5.931  22.982  0.00  0.00     0.078 A 
ATOM     54  C2' T44 d   1      -8.809  -5.384  22.571  0.00  0.00    -0.032 A 
ATOM     55  C3' T44 d   1      -8.754  -4.499  21.494  0.00  0.00     0.043 A 
ATOM     56  H   F6Y d   1      -7.893  -5.652  23.097  0.00  0.00     0.089 H 
ATOM     57  C4' T44 d   1      -9.917  -4.150  20.817  0.00  0.00     0.098 A 
ATOM     58  I3' T44 d   1      -6.911  -3.713  20.912  0.00  0.00    -0.042 I 
ATOM     59  C5' T44 d   1     -11.130  -4.692  21.220  0.00  0.00     0.043 A 
ATOM     60  C6' T44 d   1     -11.190  -5.579  22.295  0.00  0.00    -0.032 A 
ATOM     61  I5' T44 d   1     -12.876  -4.170  20.208  0.00  0.00    -0.042 I 
ATOM     62  H   F6Y d   1     -12.149  -5.999  22.599  0.00  0.00     0.089 H 
BRANCH  57  63
ATOM     63  O4' T44 d   1      -9.875  -3.283  19.760  0.00  0.00    -0.358 OA
ATOM     64  H   F6Y d   1      -8.969  -3.003  19.613  0.00  0.00     0.217 HD
ENDBRANCH  57  63
ENDBRANCH  52  53
ENDBRANCH  46  52
ENDBRANCH  39  42
ENDBRANCH  37  39
BRANCH  37  65
ATOM     65  C9  T44 d   1      -4.463  -9.509  23.504  0.00  0.00     0.197 C 
ATOM     66  O9  T44 d   1      -4.736  -8.454  22.894  0.00  0.00    -0.646 OA
ATOM     67  O10 T44 d   1      -4.342 -10.610  22.924  0.00  0.00    -0.646 OA
ENDBRANCH  37  65
ENDBRANCH  35  37
ENDBRANCH  23  33
BRANCH  11  68
ATOM     68  O3  F6Y d   1       3.478  -6.906  20.201  0.00  0.00    -0.361 OA
ATOM     69  H   F6Y d   1       2.945  -6.363  19.616  0.00  0.00     0.217 HD
ENDBRANCH  11  68
BRANCH  17  70
ATOM     70  O5  F6Y d   1      -4.108 -12.084  18.870  0.00  0.00    -0.361 OA
ATOM     71  H   F6Y d   1      -4.422 -12.981  19.003  0.00  0.00     0.217 HD
ENDBRANCH  17  70
TORSDOF 10
