REMARK  10 active torsions:
REMARK  status: ('A' for Active; 'I' for Inactive)
REMARK    1  A    between atoms: C7_7  and  C1_1 
REMARK    2  A    between atoms: C4_4  and  O4_17 
REMARK    3  A    between atoms: C8_8  and  C7_7 
REMARK    4  A    between atoms: C8_8  and  C9_9 
REMARK    5  A    between atoms: N8_16  and  C8_8 
REMARK    6  A    between atoms: O4_17  and  C1'_10 
REMARK    7  A    between atoms: C4'_13  and  O4'_18 
REMARK       I    between atoms: C25_51  and  N8_16 
REMARK    8  A    between atoms: C4_29  and  C25_51 
REMARK    9  A    between atoms: C9_35  and  O3_36 
REMARK   10  A    between atoms: C15_42  and  O5_43 
ROOT
ATOM      1  H   T44 d   1      -2.019  -9.900   0.346  0.00  0.00     0.086 H 
ATOM      2  H   T44 d   1      -2.757  -6.306   2.742  0.00  0.00     0.084 H 
ATOM      3  H   T44 d   1      -4.112  -4.536   3.798  0.00  0.00     0.087 H 
ATOM      4  H   T44 d   1      -0.784  -3.252   6.187  0.00  0.00     0.092 H 
ATOM      5  H   T44 d   1       3.078  -5.937   6.532  0.00  0.00     0.092 H 
ATOM      6  H   T44 d   1       3.308  -9.683   4.430  0.00  0.00     0.087 H 
ATOM      7  H   T44 d   1       1.304  -9.123   3.097  0.00  0.00     0.084 H 
ATOM      8  H   T44 d   1      -0.829  -8.966   5.095  0.00  0.00     0.084 H 
ATOM      9  H   T44 d   1      -1.938 -11.114   4.477  0.00  0.00     0.085 H 
ATOM     10  O1  F6Z d   1      -0.985  -7.108  -0.210  0.00  0.00    -0.259 OA
ATOM     11  C1  F6Z d   1      -0.727  -7.345   0.959  0.00  0.00     0.295 C 
ATOM     12  C2  F6Z d   1      -1.162  -8.518   1.764  0.00  0.00     0.050 A 
ATOM     13  C3  F6Z d   1      -1.766  -9.706   1.388  0.00  0.00    -0.051 A 
ATOM     14  C4  F6Z d   1      -2.040 -10.644   2.375  0.00  0.00     0.033 A 
ATOM     15  O2  F6Z d   1       0.068  -6.501   1.840  0.00  0.00    -0.291 OA
ATOM     16  C5  F6Z d   1      -0.171  -6.902   3.206  0.00  0.00     0.159 C 
ATOM     17  C6  F6Z d   1      -0.989  -5.829   3.860  0.00  0.00     0.020 A 
ATOM     18  C7  F6Z d   1      -2.310  -5.657   3.495  0.00  0.00    -0.068 A 
ATOM     19  C8  F6Z d   1      -3.068  -4.656   4.089  0.00  0.00    -0.050 A 
ATOM     20  C9  F6Z d   1      -2.529  -3.804   5.045  0.00  0.00     0.068 A 
ATOM     21  C11 F6Z d   1      -1.197  -3.928   5.438  0.00  0.00    -0.018 A 
ATOM     22  C12 F6Z d   1      -0.395  -4.915   4.873  0.00  0.00     0.088 A 
ATOM     23  O4  F6Z d   1       0.918  -5.052   5.249  0.00  0.00    -0.309 OA
ATOM     24  C13 F6Z d   1       1.551  -6.252   5.045  0.00  0.00     0.088 A 
ATOM     25  C14 F6Z d   1       2.676  -6.613   5.777  0.00  0.00    -0.018 A 
ATOM     26  C15 F6Z d   1       3.288  -7.844   5.542  0.00  0.00     0.068 A 
ATOM     27  C16 F6Z d   1       2.803  -8.730   4.587  0.00  0.00    -0.050 A 
ATOM     28  C17 F6Z d   1       1.684  -8.415   3.833  0.00  0.00    -0.068 A 
ATOM     29  C18 F6Z d   1       1.049  -7.196   4.018  0.00  0.00     0.020 A 
ATOM     30  C19 F6Z d   1      -0.848  -8.244   3.060  0.00  0.00     0.003 A 
ATOM     31  C20 F6Z d   1      -1.101  -9.172   4.060  0.00  0.00    -0.071 A 
ATOM     32  C21 F6Z d   1      -1.713 -10.376   3.707  0.00  0.00    -0.067 A 
ENDROOT
BRANCH  14  33
ATOM     33  C25 F6Z d   1      -2.695 -11.944   2.018  0.00  0.00     0.252 C 
ATOM     34  N8  T44 d   1      -3.459 -12.551   2.977  0.00  0.00    -0.342 N 
ATOM     35  H   T44 d   1      -3.417 -13.521   3.290  0.00  0.00     0.163 HD
ATOM     36  O6  F6Z d   1      -2.571 -12.449   0.912  0.00  0.00    -0.268 OA
BRANCH  34  37
ATOM     37  C8  T44 d   1      -4.353 -11.489   3.452  0.00  0.00     0.100 C 
ATOM     38  H   T44 d   1      -3.863 -10.516   3.440  0.00  0.00     0.090 H 
BRANCH  37  39
ATOM     39  C7  T44 d   1      -5.537 -11.472   2.497  0.00  0.00    -0.013 C 
ATOM     40  H   T44 d   1      -5.834 -10.429   2.386  0.00  0.00     0.043 H 
ATOM     41  H   T44 d   1      -5.206 -11.961   1.581  0.00  0.00     0.043 H 
BRANCH  39  42
ATOM     42  C1  T44 d   1      -6.757 -12.221   2.971  0.00  0.00    -0.053 A 
ATOM     43  C2  T44 d   1      -7.483 -11.716   4.046  0.00  0.00    -0.058 A 
ATOM     44  C3  T44 d   1      -8.617 -12.369   4.499  0.00  0.00     0.042 A 
ATOM     45  H   T44 d   1      -7.156 -10.799   4.535  0.00  0.00     0.086 H 
ATOM     46  C4  T44 d   1      -9.058 -13.604   3.831  0.00  0.00     0.109 A 
ATOM     47  I3  T44 d   1      -9.713 -11.639   6.110  0.00  0.00    -0.042 I 
ATOM     48  C5  T44 d   1      -8.266 -14.089   2.690  0.00  0.00     0.042 A 
ATOM     49  C6  T44 d   1      -7.140 -13.378   2.290  0.00  0.00    -0.058 A 
ATOM     50  I5  T44 d   1      -8.898 -15.835   1.747  0.00  0.00    -0.042 I 
ATOM     51  H   T44 d   1      -6.553 -13.726   1.440  0.00  0.00     0.086 H 
BRANCH  46  52
ATOM     52  O4  T44 d   1     -10.173 -14.277   4.244  0.00  0.00    -0.308 OA
BRANCH  52  53
ATOM     53  C1' T44 d   1     -10.110 -15.158   5.292  0.00  0.00     0.078 A 
ATOM     54  C2' T44 d   1     -11.294 -15.515   5.922  0.00  0.00    -0.032 A 
ATOM     55  C3' T44 d   1     -11.284 -16.408   6.988  0.00  0.00     0.043 A 
ATOM     56  H   T44 d   1     -12.238 -15.092   5.579  0.00  0.00     0.089 H 
ATOM     57  C4' T44 d   1     -10.014 -16.988   7.459  0.00  0.00     0.098 A 
ATOM     58  I3' T44 d   1     -13.034 -16.968   7.956  0.00  0.00    -0.042 I 
ATOM     59  C5' T44 d   1      -8.793 -16.577   6.756  0.00  0.00     0.043 A 
ATOM     60  C6' T44 d   1      -8.877 -15.674   5.696  0.00  0.00    -0.032 A 
ATOM     61  I5' T44 d   1      -6.990 -17.383   7.418  0.00  0.00    -0.042 I 
ATOM     62  H   T44 d   1      -7.969 -15.367   5.177  0.00  0.00     0.089 H 
BRANCH  57  63
ATOM     63  O4' T44 d   1      -9.982 -17.867   8.504  0.00  0.00    -0.358 OA
ATOM     64  H   T44 d   1     -10.874 -18.009   8.829  0.00  0.00     0.217 HD
ENDBRANCH  57  63
ENDBRANCH  52  53
ENDBRANCH  46  52
ENDBRANCH  39  42
ENDBRANCH  37  39
BRANCH  37  65
ATOM     65  C9  T44 d   1      -4.725 -11.662   4.894  0.00  0.00     0.197 C 
ATOM     66  O9  T44 d   1      -5.109 -12.779   5.298  0.00  0.00    -0.646 OA
ATOM     67  O10 T44 d   1      -4.619 -10.658   5.632  0.00  0.00    -0.646 OA
ENDBRANCH  37  65
ENDBRANCH  34  37
ENDBRANCH  14  33
BRANCH  20  68
ATOM     68  O3  F6Z d   1      -3.330  -2.842   5.586  0.00  0.00    -0.361 OA
ATOM     69  H   T44 d   1      -2.828  -2.332   6.226  0.00  0.00     0.217 HD
ENDBRANCH  20  68
BRANCH  26  70
ATOM     70  O5  F6Z d   1       4.387  -8.208   6.252  0.00  0.00    -0.361 OA
ATOM     71  H   T44 d   1       4.678  -9.077   5.966  0.00  0.00     0.217 HD
ENDBRANCH  26  70
TORSDOF 10
