REMARK  4 active torsions:
REMARK  status: ('A' for Active; 'I' for Inactive)
REMARK    1  A    between atoms: N17_20  and  C16_5 
REMARK    2  A    between atoms: N22_23  and  C21_7 
REMARK    3  A    between atoms: C08_16  and  C09_17 
REMARK    4  A    between atoms: C18_21  and  N17_20 
ROOT
ATOM      1  C19 ASH d   1       2.631 -34.134  -3.345  0.00  0.00    -0.055 A 
ATOM      2  C21 ASH d   1       1.076 -35.837  -2.384  0.00  0.00     0.030 A 
ATOM      3  C18 ASH d   1       2.364 -34.363  -4.709  0.00  0.00     0.033 A 
ATOM      4  C20 ASH d   1       2.033 -34.816  -2.259  0.00  0.00    -0.055 A 
ATOM      5  C28 ASH d   1       0.785 -36.089  -3.753  0.00  0.00    -0.055 A 
ATOM      6  C29 ASH d   1       1.383 -35.404  -4.834  0.00  0.00    -0.055 A 
ATOM      7  H   ASH d   1       3.363 -33.363  -3.105  0.00  0.00     0.087 H 
ATOM      8  H   ASH d   1       2.337 -34.528  -1.252  0.00  0.00     0.087 H 
ATOM      9  H   ASH d   1       0.052 -36.862  -3.983  0.00  0.00     0.087 H 
ATOM     10  H   ASH d   1       1.076 -35.688  -5.841  0.00  0.00     0.087 H 
ENDROOT
BRANCH   3  11
ATOM     11  N17 ASH d   1       2.992 -33.653  -5.873  0.00  0.00    -0.338 N 
ATOM     12  H   ASH d   1       2.741 -34.092  -6.759  0.00  0.00     0.167 HD
BRANCH  11  13
ATOM     13  C16 ASH d   1       3.886 -32.475  -6.078  0.00  0.00     0.176 A 
ATOM     14  C05 ASH d   1       4.220 -31.870  -7.393  0.00  0.00     0.181 A 
ATOM     15  N04 ASH d   1       3.880 -32.136  -8.691  0.00  0.00    -0.236 NA
ATOM     16  N06 ASH d   1       5.103 -30.730  -7.357  0.00  0.00    -0.290 N 
ATOM     17  C03 ASH d   1       4.528 -31.190  -9.473  0.00  0.00     0.042 A 
ATOM     18  C02 ASH d   1       5.281 -30.322  -8.679  0.00  0.00     0.129 A 
ATOM     19  H   ASH d   1       4.459 -31.132 -10.559  0.00  0.00     0.119 H 
ATOM     20 CL   ASH d   1       6.210 -29.038  -9.159  0.00  0.00    -0.062 Cl
ATOM     21  C07 ASH d   1       5.649 -30.180  -6.192  0.00  0.00     0.017 A 
ATOM     22  C08 ASH d   1       5.305 -30.772  -4.995  0.00  0.00     0.087 A 
ATOM     23  H   ASH d   1       6.318 -29.320  -6.229  0.00  0.00     0.116 H 
ATOM     24  N15 ASH d   1       4.438 -31.906  -4.991  0.00  0.00    -0.225 NA
BRANCH  22  25
ATOM     25  C09 ASH d   1       5.901 -30.184  -3.711  0.00  0.00     0.012 A 
ATOM     26  C10 ASH d   1       6.088 -30.957  -2.548  0.00  0.00    -0.068 A 
ATOM     27  C11 ASH d   1       6.608 -30.440  -1.353  0.00  0.00    -0.065 A 
ATOM     28  H   ASH d   1       5.814 -32.012  -2.579  0.00  0.00     0.085 H 
ATOM     29  C12 ASH d   1       6.963 -29.096  -1.291  0.00  0.00     0.002 A 
ATOM     30  H   ASH d   1       6.733 -31.084  -0.482  0.00  0.00     0.085 H 
ATOM     31  N13 ASH d   1       6.803 -28.302  -2.375  0.00  0.00    -0.272 NA
ATOM     32  H   ASH d   1       7.370 -28.682  -0.368  0.00  0.00     0.114 H 
ATOM     33  C14 ASH d   1       6.292 -28.837  -3.514  0.00  0.00     0.014 A 
ATOM     34  H   ASH d   1       6.171 -28.162  -4.361  0.00  0.00     0.116 H 
ENDBRANCH  22  25
ENDBRANCH  11  13
ENDBRANCH   3  11
BRANCH   2  35
ATOM     35  N22 ASH d   1       0.475 -36.521  -1.255  0.00  0.00    -0.377 N 
ATOM     36  C23 ASH d   1       0.693 -36.018   0.127  0.00  0.00     0.015 C 
ATOM     37  C24 ASH d   1       0.109 -36.919   1.267  0.00  0.00     0.034 C 
ATOM     38  H   ASH d   1       1.772 -35.982   0.279  0.00  0.00     0.067 H 
ATOM     39  H   ASH d   1       0.181 -35.058   0.194  0.00  0.00     0.067 H 
ATOM     40  O25 ASH d   1      -0.112 -38.221   0.828  0.00  0.00    -0.388 OA
ATOM     41  H   ASH d   1      -0.844 -36.497   1.586  0.00  0.00     0.076 H 
ATOM     42  H   ASH d   1       0.828 -36.949   2.085  0.00  0.00     0.076 H 
ATOM     43  C26 ASH d   1      -1.105 -38.236  -0.152  0.00  0.00     0.034 C 
ATOM     44  C27 ASH d   1      -0.797 -37.282  -1.358  0.00  0.00     0.015 C 
ATOM     45  H   ASH d   1      -2.031 -37.895   0.311  0.00  0.00     0.076 H 
ATOM     46  H   ASH d   1      -1.169 -39.252  -0.542  0.00  0.00     0.076 H 
ATOM     47  H   ASH d   1      -0.713 -37.913  -2.243  0.00  0.00     0.067 H 
ATOM     48  H   ASH d   1      -1.600 -36.546  -1.387  0.00  0.00     0.067 H 
ENDBRANCH   2  35
TORSDOF 4
