REMARK  8 active torsions:
REMARK  status: ('A' for Active; 'I' for Inactive)
REMARK    1  A    between atoms: C08_8  and  C09_9 
REMARK    2  A    between atoms: C11_11  and  C12_12 
REMARK    3  A    between atoms: C12_12  and  N13_13 
REMARK    4  A    between atoms: N13_13  and  S14_14 
REMARK    5  A    between atoms: S14_14  and  C16_16 
REMARK    6  A    between atoms: C22_22  and  N23_23 
REMARK    7  A    between atoms: N23_23  and  C24_24 
REMARK    8  A    between atoms: C27_27  and  N28_28 
ROOT
ATOM      1 CL   A0H d   1       5.599 -28.566  -9.589  0.00  0.00    -0.101 Cl
ATOM      2  C02 A0H d   1       4.663 -29.916  -9.091  0.00  0.00     0.104 A 
ATOM      3  C03 A0H d   1       3.810 -30.880  -9.957  0.00  0.00     0.115 A 
ATOM      4  N04 A0H d   1       3.192 -31.844  -8.967  0.00  0.00    -0.048 N 
ATOM      5  C05 A0H d   1       3.678 -31.448  -7.589  0.00  0.00     0.210 A 
ATOM      6  N06 A0H d   1       4.521 -30.332  -7.750  0.00  0.00    -0.362 N 
ATOM      7  C07 A0H d   1       5.188 -29.664  -6.582  0.00  0.00     0.024 A 
ATOM      8  C08 A0H d   1       4.891 -30.200  -5.169  0.00  0.00     0.144 A 
ATOM      9  N21 A0H d   1       4.056 -31.382  -5.040  0.00  0.00    -0.041 N 
ATOM     10  C22 A0H d   1       3.431 -32.007  -6.216  0.00  0.00     0.211 A 
ATOM     11  H   A0H d   1       5.249 -29.193  -9.659  0.00  0.00     0.100 H 
ATOM     12  H   A0H d   1       4.413 -31.396 -10.704  0.00  0.00     0.080 H 
ATOM     13  H   A0H d   1       3.053 -30.347 -10.531  0.00  0.00     0.080 H 
ATOM     14  H   A0H d   1       3.466 -32.803  -9.182  0.00  0.00     0.279 HD
ATOM     15  H   A0H d   1       2.174 -31.802  -9.014  0.00  0.00     0.279 HD
ATOM     16  H   A0H d   1       3.128 -32.220  -7.051  0.00  0.00     0.124 H 
ATOM     17  H   A0H d   1       4.814 -28.640  -6.585  0.00  0.00     0.067 H 
ATOM     18  H   A0H d   1       6.256 -29.824  -6.731  0.00  0.00     0.067 H 
ATOM     19  H   A0H d   1       4.494 -29.186  -5.213  0.00  0.00     0.094 H 
ATOM     20  H   A0H d   1       3.264 -31.063  -4.481  0.00  0.00     0.280 HD
ATOM     21  H   A0H d   1       4.695 -32.097  -4.692  0.00  0.00     0.280 HD
ATOM     22  H   A0H d   1       3.597 -32.311  -7.250  0.00  0.00     0.124 H 
ENDROOT
BRANCH  10  23
ATOM     23  N23 A0H d   1       2.564 -33.111  -5.918  0.00  0.00    -0.360 N 
ATOM     24  H   A0H d   1       2.341 -33.557  -6.808  0.00  0.00     0.161 HD
BRANCH  23  25
ATOM     25  C24 A0H d   1       1.871 -33.861  -4.892  0.00  0.00     0.025 A 
ATOM     26  C25 A0H d   1       2.146 -33.442  -3.528  0.00  0.00    -0.075 A 
ATOM     27  C26 A0H d   1       1.510 -34.121  -2.421  0.00  0.00    -0.026 A 
ATOM     28  H   A0H d   1       2.832 -32.616  -3.339  0.00  0.00     0.080 H 
ATOM     29  C27 A0H d   1       0.522 -35.299  -2.724  0.00  0.00     0.027 A 
ATOM     30  H   A0H d   1       0.900 -33.359  -1.935  0.00  0.00     0.042 H 
ATOM     31  H   A0H d   1       2.328 -34.575  -1.861  0.00  0.00     0.042 H 
ATOM     32  C34 A0H d   1       0.223 -35.736  -4.163  0.00  0.00    -0.079 A 
ATOM     33  H   A0H d   1       0.976 -35.236  -3.713  0.00  0.00     0.079 H 
ATOM     34  C35 A0H d   1       0.825 -35.102  -5.212  0.00  0.00    -0.059 A 
ATOM     35  H   A0H d   1      -0.472 -36.555  -4.349  0.00  0.00     0.080 H 
ATOM     36  H   A0H d   1       0.621 -35.407  -6.238  0.00  0.00     0.086 H 
BRANCH  29  37
ATOM     37  N28 A0H d   1      -0.132 -35.988  -1.599  0.00  0.00    -0.401 N 
ATOM     38  C29 A0H d   1       0.029 -35.515  -0.199  0.00  0.00     0.011 C 
ATOM     39  C30 A0H d   1       0.042 -36.698   0.766  0.00  0.00     0.034 C 
ATOM     40  H   A0H d   1      -0.806 -34.861   0.053  0.00  0.00     0.066 H 
ATOM     41  H   A0H d   1       0.973 -34.977  -0.113  0.00  0.00     0.066 H 
ATOM     42  O31 A0H d   1       0.046 -37.993   0.107  0.00  0.00    -0.388 OA
ATOM     43  H   A0H d   1      -0.868 -36.640   1.363  0.00  0.00     0.076 H 
ATOM     44  H   A0H d   1       0.958 -36.629   1.352  0.00  0.00     0.076 H 
ATOM     45  C32 A0H d   1      -1.043 -38.192  -0.828  0.00  0.00     0.034 C 
ATOM     46  C33 A0H d   1      -1.060 -37.135  -1.923  0.00  0.00     0.011 C 
ATOM     47  H   A0H d   1      -1.981 -38.124  -0.276  0.00  0.00     0.076 H 
ATOM     48  H   A0H d   1      -0.912 -39.166  -1.299  0.00  0.00     0.076 H 
ATOM     49  H   A0H d   1      -0.728 -37.596  -2.853  0.00  0.00     0.066 H 
ATOM     50  H   A0H d   1      -2.074 -36.745  -2.011  0.00  0.00     0.066 H 
ENDBRANCH  29  37
ENDBRANCH  23  25
ENDBRANCH  10  23
BRANCH   8  51
ATOM     51  C09 A0H d   1       5.528 -29.677  -3.925  0.00  0.00    -0.025 A 
ATOM     52  C10 A0H d   1       5.250 -30.333  -2.729  0.00  0.00    -0.067 A 
ATOM     53  C11 A0H d   1       5.876 -29.873  -1.465  0.00  0.00    -0.039 A 
ATOM     54  H   A0H d   1       4.571 -31.186  -2.721  0.00  0.00     0.085 H 
ATOM     55  C18 A0H d   1       6.811 -28.690  -1.507  0.00  0.00    -0.075 A 
ATOM     56  C19 A0H d   1       7.108 -28.006  -2.761  0.00  0.00    -0.082 A 
ATOM     57  H   A0H d   1       7.273 -28.340  -0.584  0.00  0.00     0.084 H 
ATOM     58  C20 A0H d   1       6.516 -28.442  -3.959  0.00  0.00    -0.075 A 
ATOM     59  H   A0H d   1       7.790 -27.156  -2.769  0.00  0.00     0.083 H 
ATOM     60  H   A0H d   1       6.735 -27.936  -4.899  0.00  0.00     0.084 H 
BRANCH  53  61
ATOM     61  C12 A0H d   1       5.543 -30.556  -0.173  0.00  0.00     0.026 C 
ATOM     62  H   A0H d   1       4.454 -30.534  -0.131  0.00  0.00     0.072 H 
ATOM     63  H   A0H d   1       6.137 -30.026   0.571  0.00  0.00     0.072 H 
BRANCH  61  64
ATOM     64  N13 A0H d   1       5.887 -31.985   0.036  0.00  0.00    -0.316 N 
ATOM     65  H   A0H d   1       6.825 -32.378  -0.043  0.00  0.00     0.172 HD
BRANCH  64  66
ATOM     66  S14 A0H d   1       4.502 -32.862   0.423  0.00  0.00     0.223 S 
ATOM     67  O15 A0H d   1       4.354 -33.982  -0.499  0.00  0.00    -0.206 OA
ATOM     68  O17 A0H d   1       3.353 -31.979   0.346  0.00  0.00    -0.206 OA
BRANCH  66  69
ATOM     69  C16 A0H d   1       4.622 -33.445   2.064  0.00  0.00     0.032 C 
ATOM     70  H   A0H d   1       3.719 -34.000   2.318  0.00  0.00     0.051 H 
ATOM     71  H   A0H d   1       5.489 -34.099   2.153  0.00  0.00     0.051 H 
ATOM     72  H   A0H d   1       4.732 -32.599   2.742  0.00  0.00     0.051 H 
ENDBRANCH  66  69
ENDBRANCH  64  66
ENDBRANCH  61  64
ENDBRANCH  53  61
ENDBRANCH   8  51
TORSDOF 8
