REMARK  14 active torsions:
REMARK  status: ('A' for Active; 'I' for Inactive)
REMARK    1  A    between atoms: C03_3  and  C42_42 
REMARK    2  A    between atoms: C08_8  and  C09_9 
REMARK    3  A    between atoms: C08_8  and  C10_10 
REMARK    4  A    between atoms: C24_24  and  C25_25 
REMARK       I    between atoms: C25_25  and  N26_26 
REMARK    5  A    between atoms: N26_26  and  C27_27 
REMARK    6  A    between atoms: C27_27  and  B28_28 
REMARK    7  A    between atoms: C27_27  and  C31_31 
REMARK    8  A    between atoms: B28_28  and  O29_29 
REMARK    9  A    between atoms: B28_28  and  O30_30 
REMARK   10  A    between atoms: C31_31  and  C32_32 
REMARK   11  A    between atoms: C32_32  and  O33_33 
REMARK   12  A    between atoms: C42_42  and  C43_43 
REMARK   13  A    between atoms: C42_42  and  C44_44 
REMARK   14  A    between atoms: C42_42  and  C45_45 
ROOT
ATOM      1  N01 TR8 d   1       7.080  29.586  12.857  0.00  0.00    -0.334 N 
ATOM      2  C02 TR8 d   1       7.812  30.360  12.039  0.00  0.00     0.244 C 
ATOM      3  C03 TR8 d   1       7.140  31.339  11.030  0.00  0.00     0.098 C 
ATOM      4  N04 TR8 d   1       7.698  32.687  11.294  0.00  0.00    -0.323 N 
ATOM      5  C05 TR8 d   1       6.953  33.792  11.489  0.00  0.00     0.361 C 
ATOM      6  O06 TR8 d   1       7.678  34.919  11.681  0.00  0.00    -0.303 OA
ATOM      7  C07 TR8 d   1       7.884  35.301  13.037  0.00  0.00     0.037 C 
ATOM      8  C08 TR8 d   1       8.433  36.756  13.182  0.00  0.00    -0.025 C 
ATOM      9  C11 TR8 d   1       8.177  37.289  14.632  0.00  0.00    -0.057 C 
ATOM     10  C12 TR8 d   1       8.665  36.302  15.729  0.00  0.00    -0.064 C 
ATOM     11  C13 TR8 d   1       7.474  35.842  16.610  0.00  0.00    -0.061 C 
ATOM     12  C14 TR8 d   1       7.997  34.832  17.657  0.00  0.00    -0.040 C 
ATOM     13  C15 TR8 d   1       6.907  34.333  18.639  0.00  0.00    -0.050 A 
ATOM     14  C16 TR8 d   1       6.047  33.247  18.354  0.00  0.00    -0.026 A 
ATOM     15  C17 TR8 d   1       5.930  32.370  17.137  0.00  0.00     0.025 A 
ATOM     16  N18 TR8 d   1       4.848  31.402  17.390  0.00  0.00    -0.320 N 
ATOM     17  C19 TR8 d   1       4.517  30.467  16.449  0.00  0.00     0.363 C 
ATOM     18  O20 TR8 d   1       5.238  30.503  15.298  0.00  0.00    -0.297 OA
ATOM     19  C21 TR8 d   1       5.503  29.265  14.596  0.00  0.00     0.067 C 
ATOM     20  C22 TR8 d   1       5.611  29.508  13.095  0.00  0.00     0.023 C 
ATOM     21  C23 TR8 d   1       6.819  28.642  15.052  0.00  0.00    -0.011 C 
ATOM     22  C24 TR8 d   1       7.834  28.851  13.899  0.00  0.00     0.094 C 
ATOM     23  O35 TR8 d   1       3.645  29.668  16.628  0.00  0.00    -0.238 OA
ATOM     24  C36 TR8 d   1       4.280  31.653  18.746  0.00  0.00     0.024 A 
ATOM     25  C37 TR8 d   1       5.091  32.843  19.299  0.00  0.00    -0.032 A 
ATOM     26  C38 TR8 d   1       5.010  33.524  20.520  0.00  0.00    -0.075 A 
ATOM     27  C39 TR8 d   1       5.868  34.594  20.813  0.00  0.00    -0.082 A 
ATOM     28  C40 TR8 d   1       6.819  34.997  19.871  0.00  0.00    -0.076 A 
ATOM     29  O41 TR8 d   1       5.762  33.799  11.410  0.00  0.00    -0.239 OA
ATOM     30  O46 TR8 d   1       9.000  30.296  12.084  0.00  0.00    -0.271 OA
ATOM     31  H   TR8 d   1       6.062  31.319  11.193  0.00  0.00     0.088 H 
ATOM     32  H   TR8 d   1       8.713  32.784  11.330  0.00  0.00     0.165 HD
ATOM     33  H   TR8 d   1       8.622  34.623  13.466  0.00  0.00     0.076 H 
ATOM     34  H   TR8 d   1       6.921  35.256  13.545  0.00  0.00     0.076 H 
ATOM     35  H   TR8 d   1       7.102  37.421  14.755  0.00  0.00     0.034 H 
ATOM     36  H   TR8 d   1       8.732  38.220  14.749  0.00  0.00     0.034 H 
ATOM     37  H   TR8 d   1       9.399  36.805  16.358  0.00  0.00     0.033 H 
ATOM     38  H   TR8 d   1       9.110  35.430  15.250  0.00  0.00     0.033 H 
ATOM     39  H   TR8 d   1       6.712  35.371  15.988  0.00  0.00     0.033 H 
ATOM     40  H   TR8 d   1       7.030  36.701  17.113  0.00  0.00     0.033 H 
ATOM     41  H   TR8 d   1       8.760  35.340  18.247  0.00  0.00     0.040 H 
ATOM     42  H   TR8 d   1       8.370  33.963  17.114  0.00  0.00     0.040 H 
ATOM     43  H   TR8 d   1       6.870  31.851  16.950  0.00  0.00     0.071 H 
ATOM     44  H   TR8 d   1       5.706  32.970  16.255  0.00  0.00     0.071 H 
ATOM     45  H   TR8 d   1       4.673  28.594  14.818  0.00  0.00     0.086 H 
ATOM     46  H   TR8 d   1       5.135  28.721  12.510  0.00  0.00     0.068 H 
ATOM     47  H   TR8 d   1       5.089  30.412  12.781  0.00  0.00     0.068 H 
ATOM     48  H   TR8 d   1       6.692  27.582  15.270  0.00  0.00     0.040 H 
ATOM     49  H   TR8 d   1       7.173  29.110  15.970  0.00  0.00     0.040 H 
ATOM     50  H   TR8 d   1       8.717  29.397  14.232  0.00  0.00     0.088 H 
ATOM     51  H   TR8 d   1       4.359  30.775  19.388  0.00  0.00     0.071 H 
ATOM     52  H   TR8 d   1       3.213  31.873  18.705  0.00  0.00     0.071 H 
ATOM     53  H   TR8 d   1       4.267  33.217  21.256  0.00  0.00     0.084 H 
ATOM     54  H   TR8 d   1       5.794  35.109  21.771  0.00  0.00     0.083 H 
ATOM     55  H   TR8 d   1       7.491  35.826  20.094  0.00  0.00     0.084 H 
ENDROOT
BRANCH  22  56
ATOM     56  C25 TR8 d   1       8.350  27.506  13.355  0.00  0.00     0.240 C 
ATOM     57  N26 TR8 d   1       9.317  26.838  13.999  0.00  0.00    -0.358 N 
ATOM     58  H   TR8 d   1       9.709  27.231  14.855  0.00  0.00     0.162 HD
ATOM     59  O34 TR8 d   1       8.020  27.167  12.261  0.00  0.00    -0.271 OA
BRANCH  57  60
ATOM     60  C27 TR8 d   1       9.830  25.544  13.498  0.00  0.00     0.048 C 
ATOM     61  H   TR8 d   1       9.134  25.166  12.750  0.00  0.00     0.065 H 
BRANCH  60  62
ATOM     62  B28 TR8 d   1       9.923  24.463  14.692  0.00  0.00     0.515 B 
BRANCH  62  63
ATOM     63  O29 TR8 d   1       9.933  23.189  14.216  0.00  0.00    -0.436 OA
ATOM     64  H   TR8 d   1      10.013  22.575  14.950  0.00  0.00     0.184 HD
ENDBRANCH  62  63
BRANCH  62  65
ATOM     65  O30 TR8 d   1       8.872  24.614  15.529  0.00  0.00    -0.436 OA
ATOM     66  H   TR8 d   1       8.861  25.512  15.868  0.00  0.00     0.184 HD
ENDBRANCH  62  65
ENDBRANCH  60  62
BRANCH  60  67
ATOM     67  C31 TR8 d   1      11.228  25.739  12.832  0.00  0.00    -0.029 C 
ATOM     68  H   TR8 d   1      11.666  24.757  12.652  0.00  0.00     0.038 H 
ATOM     69  H   TR8 d   1      11.850  26.335  13.500  0.00  0.00     0.038 H 
BRANCH  67  70
ATOM     70  C32 TR8 d   1      11.110  26.482  11.475  0.00  0.00     0.018 C 
ATOM     71  H   TR8 d   1      10.309  26.036  10.886  0.00  0.00     0.074 H 
ATOM     72  H   TR8 d   1      12.052  26.398  10.933  0.00  0.00     0.074 H 
BRANCH  70  73
ATOM     73  O33 TR8 d   1      10.820  27.847  11.706  0.00  0.00    -0.401 OA
ATOM     74  H   TR8 d   1       9.991  27.920  12.184  0.00  0.00     0.209 HD
ENDBRANCH  70  73
ENDBRANCH  67  70
ENDBRANCH  60  67
ENDBRANCH  57  60
ENDBRANCH  22  56
BRANCH   3  75
ATOM     75  C42 TR8 d   1       7.276  30.923   9.519  0.00  0.00    -0.022 C 
BRANCH  75  76
ATOM     76  C43 TR8 d   1       6.824  32.077   8.569  0.00  0.00    -0.067 C 
ATOM     77  H   TR8 d   1       6.922  31.753   7.533  0.00  0.00     0.028 H 
ATOM     78  H   TR8 d   1       5.784  32.329   8.775  0.00  0.00     0.028 H 
ATOM     79  H   TR8 d   1       7.452  32.952   8.738  0.00  0.00     0.028 H 
ENDBRANCH  75  76
BRANCH  75  80
ATOM     80  C44 TR8 d   1       6.350  29.706   9.235  0.00  0.00    -0.067 C 
ATOM     81  H   TR8 d   1       5.315  29.984   9.434  0.00  0.00     0.028 H 
ATOM     82  H   TR8 d   1       6.454  29.408   8.192  0.00  0.00     0.028 H 
ATOM     83  H   TR8 d   1       6.635  28.876   9.881  0.00  0.00     0.028 H 
ENDBRANCH  75  80
BRANCH  75  84
ATOM     84  C45 TR8 d   1       8.737  30.535   9.143  0.00  0.00    -0.067 C 
ATOM     85  H   TR8 d   1       8.768  30.203   8.105  0.00  0.00     0.028 H 
ATOM     86  H   TR8 d   1       9.386  31.402   9.268  0.00  0.00     0.028 H 
ATOM     87  H   TR8 d   1       9.076  29.729   9.794  0.00  0.00     0.028 H 
ENDBRANCH  75  84
ENDBRANCH   3  75
BRANCH   8  88
ATOM     88  C09 TR8 d   1       7.712  37.674  12.159  0.00  0.00    -0.067 C 
ATOM     89  H   TR8 d   1       7.900  37.309  11.149  0.00  0.00     0.028 H 
ATOM     90  H   TR8 d   1       6.640  37.664  12.356  0.00  0.00     0.028 H 
ATOM     91  H   TR8 d   1       8.091  38.691  12.255  0.00  0.00     0.028 H 
ENDBRANCH   8  88
BRANCH   8  92
ATOM     92  C10 TR8 d   1       9.965  36.776  12.898  0.00  0.00    -0.067 C 
ATOM     93  H   TR8 d   1      10.474  36.127  13.610  0.00  0.00     0.028 H 
ATOM     94  H   TR8 d   1      10.150  36.421  11.884  0.00  0.00     0.028 H 
ATOM     95  H   TR8 d   1      10.339  37.794  13.001  0.00  0.00     0.028 H 
ENDBRANCH   8  92
TORSDOF 14
