REMARK  9 active torsions:
REMARK  status: ('A' for Active; 'I' for Inactive)
REMARK    1  A    between atoms: C01_1  and  C02_2 
REMARK    2  A    between atoms: C02_2  and  O03_3 
REMARK    3  A    between atoms: C02_2  and  C29_29 
REMARK    4  A    between atoms: O03_3  and  C04_4 
REMARK    5  A    between atoms: C13_13  and  O14_14 
REMARK    6  A    between atoms: O14_14  and  C15_15 
REMARK    7  A    between atoms: N18_18  and  C19_19 
REMARK    8  A    between atoms: C25_25  and  C26_26 
REMARK       I    between atoms: C26_26  and  N27_27 
REMARK    9  A    between atoms: C34_34  and  C35_35 
ROOT
ATOM      1  C04 WGZ d   1      24.500   9.234 -15.535  0.00  0.00     0.095 A 
ATOM      2  C05 WGZ d   1      25.380   8.895 -16.926  0.00  0.00    -0.016 A 
ATOM      3  C06 WGZ d   1      24.611   7.881 -17.708  0.00  0.00     0.085 A 
ATOM      4  N07 WGZ d   1      25.050   7.460 -18.910  0.00  0.00    -0.297 N 
ATOM      5  C08 WGZ d   1      24.880   6.215 -19.477  0.00  0.00     0.072 A 
ATOM      6  N09 WGZ d   1      25.478   6.281 -20.762  0.00  0.00    -0.241 NA
ATOM      7  C10 WGZ d   1      25.971   7.570 -20.976  0.00  0.00     0.085 A 
ATOM      8  C11 WGZ d   1      26.684   8.217 -22.101  0.00  0.00    -0.050 A 
ATOM      9  C12 WGZ d   1      27.085   9.638 -22.006  0.00  0.00    -0.048 A 
ATOM     10  C13 WGZ d   1      26.779  10.372 -20.837  0.00  0.00     0.071 A 
ATOM     11  C22 WGZ d   1      26.077   9.725 -19.717  0.00  0.00    -0.022 A 
ATOM     12  C23 WGZ d   1      25.684   8.312 -19.827  0.00  0.00     0.072 A 
ATOM     13  S24 WGZ d   1      23.183   7.488 -16.939  0.00  0.00    -0.064 SA
ATOM     14  C25 WGZ d   1      23.219   8.383 -15.580  0.00  0.00     0.107 A 
ATOM     15  H   WGZ d   1      26.337   9.335 -17.206  0.00  0.00     0.092 H 
ATOM     16  H   WGZ d   1      24.386   5.353 -19.028  0.00  0.00     0.144 H 
ATOM     17  H   WGZ d   1      26.914   7.646 -23.000  0.00  0.00     0.087 H 
ATOM     18  H   WGZ d   1      27.613  10.116 -22.831  0.00  0.00     0.087 H 
ATOM     19  H   WGZ d   1      25.850  10.289 -18.812  0.00  0.00     0.091 H 
ENDROOT
BRANCH   1  20
ATOM     20  O03 WGZ d   1      24.904  10.152 -14.552  0.00  0.00    -0.340 OA
BRANCH  20  21
ATOM     21  C02 WGZ d   1      26.053  10.931 -14.763  0.00  0.00     0.068 C 
ATOM     22  H   WGZ d   1      26.836  10.262 -15.121  0.00  0.00     0.091 H 
BRANCH  21  23
ATOM     23  C01 WGZ d   1      26.545  11.532 -13.487  0.00  0.00    -0.048 C 
ATOM     24  H   WGZ d   1      27.505  12.018 -13.662  0.00  0.00     0.031 H 
ATOM     25  H   WGZ d   1      25.823  12.268 -13.131  0.00  0.00     0.031 H 
ATOM     26  H   WGZ d   1      26.664  10.748 -12.740  0.00  0.00     0.031 H 
ENDBRANCH  21  23
BRANCH  21  27
ATOM     27  C29 WGZ d   1      25.859  11.966 -15.865  0.00  0.00    -0.014 A 
ATOM     28  C30 WGZ d   1      24.550  12.559 -15.998  0.00  0.00    -0.074 A 
ATOM     29  C31 WGZ d   1      24.284  13.577 -17.030  0.00  0.00    -0.082 A 
ATOM     30  H   WGZ d   1      23.748  12.250 -15.327  0.00  0.00     0.084 H 
ATOM     31  C32 WGZ d   1      25.357  13.990 -17.908  0.00  0.00    -0.082 A 
ATOM     32  H   WGZ d   1      23.290  14.014 -17.131  0.00  0.00     0.083 H 
ATOM     33  C33 WGZ d   1      26.675  13.406 -17.777  0.00  0.00    -0.068 A 
ATOM     34  H   WGZ d   1      25.172  14.745 -18.672  0.00  0.00     0.083 H 
ATOM     35  C34 WGZ d   1      26.945  12.385 -16.755  0.00  0.00     0.056 A 
ATOM     36  H   WGZ d   1      27.476  13.727 -18.443  0.00  0.00     0.084 H 
BRANCH  35  37
ATOM     37  C35 WGZ d   1      28.335  11.829 -16.662  0.00  0.00     0.418 C 
ATOM     38  F36 WGZ d   1      28.804  11.948 -15.415  0.00  0.00    -0.166 F 
ATOM     39  F37 WGZ d   1      29.133  12.514 -17.483  0.00  0.00    -0.166 F 
ATOM     40  F38 WGZ d   1      28.344  10.554 -17.041  0.00  0.00    -0.166 F 
ENDBRANCH  35  37
ENDBRANCH  21  27
ENDBRANCH  20  21
ENDBRANCH   1  20
BRANCH  14  41
ATOM     41  C26 WGZ d   1      22.183   8.382 -14.525  0.00  0.00     0.259 C 
ATOM     42  N27 WGZ d   1      22.415   9.142 -13.346  0.00  0.00    -0.365 N 
ATOM     43  H   WGZ d   1      21.799   9.035 -12.540  0.00  0.00     0.159 HD
ATOM     44  H   WGZ d   1      23.198   9.794 -13.306  0.00  0.00     0.159 HD
ATOM     45  O28 WGZ d   1      21.266   7.597 -14.615  0.00  0.00    -0.267 OA
ENDBRANCH  14  41
BRANCH  10  46
ATOM     46  O14 WGZ d   1      27.139  11.719 -20.652  0.00  0.00    -0.346 OA
BRANCH  46  47
ATOM     47  C15 WGZ d   1      27.685  12.295 -21.808  0.00  0.00     0.048 C 
ATOM     48  C16 WGZ d   1      29.215  12.282 -22.007  0.00  0.00    -0.015 C 
ATOM     49  C17 WGZ d   1      29.896  13.674 -22.038  0.00  0.00     0.115 C 
ATOM     50  H   WGZ d   1      29.398  11.826 -22.980  0.00  0.00     0.039 H 
ATOM     51  H   WGZ d   1      29.634  11.750 -21.153  0.00  0.00     0.039 H 
ATOM     52  N18 WGZ d   1      29.094  14.714 -22.712  0.00  0.00     0.084 N 
ATOM     53  H   WGZ d   1      30.827  13.569 -22.596  0.00  0.00     0.080 H 
ATOM     54  H   WGZ d   1      30.037  13.991 -21.005  0.00  0.00     0.080 H 
ATOM     55  C20 WGZ d   1      27.735  14.799 -22.151  0.00  0.00     0.115 C 
ATOM     56  C21 WGZ d   1      26.968  13.512 -22.386  0.00  0.00    -0.015 C 
ATOM     57  H   WGZ d   1      27.205  15.616 -22.641  0.00  0.00     0.080 H 
ATOM     58  H   WGZ d   1      27.810  14.970 -21.077  0.00  0.00     0.080 H 
ATOM     59  H   WGZ d   1      26.001  13.600 -21.892  0.00  0.00     0.039 H 
ATOM     60  H   WGZ d   1      26.872  13.368 -23.462  0.00  0.00     0.039 H 
ATOM     61  H   WGZ d   1      27.402  11.488 -22.484  0.00  0.00     0.084 H 
BRANCH  52  62
ATOM     62  C19 WGZ d   1      29.752  16.007 -22.822  0.00  0.00     0.095 C 
ATOM     63  H   WGZ d   1      29.984  16.381 -21.825  0.00  0.00     0.071 H 
ATOM     64  H   WGZ d   1      30.674  15.897 -23.393  0.00  0.00     0.071 H 
ATOM     65  H   WGZ d   1      29.090  16.708 -23.330  0.00  0.00     0.071 H 
ENDBRANCH  52  62
ENDBRANCH  46  47
ENDBRANCH  10  46
TORSDOF 9
