REMARK  7 active torsions:
REMARK  status: ('A' for Active; 'I' for Inactive)
REMARK    1  A    between atoms: C01_1  and  C02_2 
REMARK    2  A    between atoms: C02_2  and  O03_3 
REMARK    3  A    between atoms: C02_2  and  C21_21 
REMARK    4  A    between atoms: O03_3  and  C04_4 
REMARK    5  A    between atoms: C06_6  and  N07_7 
REMARK    6  A    between atoms: C17_17  and  C18_18 
REMARK       I    between atoms: C18_18  and  N19_19 
REMARK    7  A    between atoms: C26_26  and  C27_27 
ROOT
ATOM      1  C04 430 d   1      24.643   9.105 -15.007  0.00  0.00     0.095 A 
ATOM      2  C05 430 d   1      25.492   8.722 -16.412  0.00  0.00    -0.016 A 
ATOM      3  C06 430 d   1      24.712   7.687 -17.175  0.00  0.00     0.085 A 
ATOM      4  S16 430 d   1      23.311   7.358 -16.320  0.00  0.00    -0.064 SA
ATOM      5  C17 430 d   1      23.343   8.252 -14.989  0.00  0.00     0.107 A 
ATOM      6  H   430 d   1      26.445   9.152 -16.716  0.00  0.00     0.092 H 
ENDROOT
BRANCH   1   7
ATOM      7  O03 430 d   1      25.073  10.035 -14.054  0.00  0.00    -0.340 OA
BRANCH   7   8
ATOM      8  C02 430 d   1      26.015  11.044 -14.425  0.00  0.00     0.068 C 
ATOM      9  H   430 d   1      26.873  10.471 -14.806  0.00  0.00     0.091 H 
BRANCH   8  10
ATOM     10  C01 430 d   1      26.582  11.820 -13.253  0.00  0.00    -0.048 C 
ATOM     11  H   430 d   1      27.294  12.572 -13.622  0.00  0.00     0.031 H 
ATOM     12  H   430 d   1      27.099  11.129 -12.571  0.00  0.00     0.031 H 
ATOM     13  H   430 d   1      25.764  12.322 -12.715  0.00  0.00     0.031 H 
ENDBRANCH   8  10
BRANCH   8  14
ATOM     14  C21 430 d   1      25.616  11.919 -15.599  0.00  0.00    -0.014 A 
ATOM     15  C22 430 d   1      24.297  12.435 -15.687  0.00  0.00    -0.074 A 
ATOM     16  C23 430 d   1      23.877  13.304 -16.875  0.00  0.00    -0.082 A 
ATOM     17  H   430 d   1      23.580  12.212 -14.905  0.00  0.00     0.084 H 
ATOM     18  C24 430 d   1      24.784  13.595 -17.894  0.00  0.00    -0.082 A 
ATOM     19  H   430 d   1      22.868  13.696 -16.925  0.00  0.00     0.083 H 
ATOM     20  C25 430 d   1      26.231  13.028 -17.798  0.00  0.00    -0.068 A 
ATOM     21  H   430 d   1      24.486  14.206 -18.739  0.00  0.00     0.083 H 
ATOM     22  C26 430 d   1      26.620  12.241 -16.720  0.00  0.00     0.056 A 
ATOM     23  H   430 d   1      26.945  13.250 -18.583  0.00  0.00     0.084 H 
BRANCH  22  24
ATOM     24  C27 430 d   1      28.064  11.748 -16.662  0.00  0.00     0.418 C 
ATOM     25  F28 430 d   1      28.786  12.417 -17.550  0.00  0.00    -0.166 F 
ATOM     26  F29 430 d   1      28.089  10.429 -16.947  0.00  0.00    -0.166 F 
ATOM     27  F30 430 d   1      28.584  11.953 -15.452  0.00  0.00    -0.166 F 
ENDBRANCH  22  24
ENDBRANCH   8  14
ENDBRANCH   7   8
ENDBRANCH   1   7
BRANCH   5  28
ATOM     28  C18 430 d   1      22.260   8.288 -13.929  0.00  0.00     0.259 C 
ATOM     29  N19 430 d   1      22.215   7.332 -12.847  0.00  0.00    -0.365 N 
ATOM     30  H   430 d   1      21.486   7.384 -12.164  0.00  0.00     0.159 HD
ATOM     31  H   430 d   1      22.912   6.618 -12.781  0.00  0.00     0.159 HD
ATOM     32  O20 430 d   1      21.475   9.205 -13.924  0.00  0.00    -0.267 OA
ENDBRANCH   5  28
BRANCH   3  33
ATOM     33  N07 430 d   1      25.062   7.213 -18.421  0.00  0.00    -0.297 N 
ATOM     34  C08 430 d   1      24.770   5.962 -18.955  0.00  0.00     0.072 A 
ATOM     35  N09 430 d   1      25.216   5.960 -20.300  0.00  0.00    -0.241 NA
ATOM     36  H   430 d   1      24.287   5.136 -18.435  0.00  0.00     0.144 H 
ATOM     37  C10 430 d   1      25.728   7.225 -20.597  0.00  0.00     0.085 A 
ATOM     38  C11 430 d   1      26.316   7.801 -21.804  0.00  0.00    -0.053 A 
ATOM     39  C15 430 d   1      25.590   8.020 -19.454  0.00  0.00     0.070 A 
ATOM     40  C12 430 d   1      26.767   9.195 -21.836  0.00  0.00    -0.081 A 
ATOM     41  H   430 d   1      26.421   7.187 -22.691  0.00  0.00     0.087 H 
ATOM     42  C13 430 d   1      26.636   9.969 -20.712  0.00  0.00    -0.081 A 
ATOM     43  H   430 d   1      27.200   9.610 -22.739  0.00  0.00     0.083 H 
ATOM     44  C14 430 d   1      26.035   9.378 -19.481  0.00  0.00    -0.054 A 
ATOM     45  H   430 d   1      26.966  11.002 -20.718  0.00  0.00     0.083 H 
ATOM     46  H   430 d   1      25.934   9.989 -18.591  0.00  0.00     0.087 H 
ENDBRANCH   3  33
TORSDOF 7
