REMARK  13 active torsions:
REMARK  status: ('A' for Active; 'I' for Inactive)
REMARK    1  A    between atoms: N02_2  and  C01_1 
REMARK    2  A    between atoms: O06_6  and  C05_5 
REMARK    3  A    between atoms: C07_7  and  O06_6 
REMARK    4  A    between atoms: C14_14  and  N13_13 
REMARK    5  A    between atoms: C14_14  and  C15_15 
REMARK    6  A    between atoms: S33_33  and  C14_14 
REMARK    7  A    between atoms: C16_16  and  O17_17 
REMARK    8  A    between atoms: C29_29  and  C16_16 
REMARK    9  A    between atoms: O17_17  and  C18_18 
REMARK   10  A    between atoms: C18_18  and  C19_19 
REMARK   11  A    between atoms: C24_24  and  C25_25 
REMARK   12  A    between atoms: C29_29  and  C30_30 
REMARK   13  A    between atoms: C29_29  and  S33_33 
REMARK       I    between atoms: C30_30  and  N31_31 
ROOT
ATOM      1  C14 ED8 d   1     -24.578   7.194  17.323  0.00  0.00     0.059 C 
ATOM      2  H   ED8 d   1     -24.534   6.253  17.871  0.00  0.00     0.090 H 
ENDROOT
BRANCH   1   3
ATOM      3  N13 ED8 d   1     -25.093   6.779  18.514  0.00  0.00    -0.326 N 
ATOM      4  C12 ED8 d   1     -24.857   5.587  19.207  0.00  0.00     0.068 A 
ATOM      5  N11 ED8 d   1     -25.498   5.705  20.443  0.00  0.00    -0.242 NA
ATOM      6  H   ED8 d   1     -24.284   4.731  18.851  0.00  0.00     0.143 H 
ATOM      7  C10 ED8 d   1     -26.062   6.986  20.544  0.00  0.00     0.085 A 
ATOM      8  C09 ED8 d   1     -26.827   7.645  21.579  0.00  0.00    -0.050 A 
ATOM      9  C34 ED8 d   1     -25.765   7.655  19.360  0.00  0.00     0.068 A 
ATOM     10  C08 ED8 d   1     -27.284   9.035  21.389  0.00  0.00    -0.048 A 
ATOM     11  H   ED8 d   1     -27.066   7.114  22.500  0.00  0.00     0.087 H 
ATOM     12  C07 ED8 d   1     -26.972   9.697  20.197  0.00  0.00     0.071 A 
ATOM     13  H   ED8 d   1     -27.857   9.539  22.167  0.00  0.00     0.087 H 
ATOM     14  C35 ED8 d   1     -26.214   9.027  19.156  0.00  0.00    -0.022 A 
ATOM     15  H   ED8 d   1     -25.982   9.547  18.227  0.00  0.00     0.091 H 
BRANCH  12  16
ATOM     16  O06 ED8 d   1     -27.406  10.997  19.906  0.00  0.00    -0.346 OA
BRANCH  16  17
ATOM     17  C05 ED8 d   1     -27.672  11.777  21.051  0.00  0.00     0.048 C 
ATOM     18  C04 ED8 d   1     -26.884  13.077  21.267  0.00  0.00    -0.015 C 
ATOM     19  C03 ED8 d   1     -27.576  14.028  22.278  0.00  0.00     0.115 C 
ATOM     20  H   ED8 d   1     -25.905  12.815  21.667  0.00  0.00     0.039 H 
ATOM     21  H   ED8 d   1     -26.818  13.594  20.310  0.00  0.00     0.039 H 
ATOM     22  N02 ED8 d   1     -28.990  14.329  21.992  0.00  0.00     0.084 N 
ATOM     23  H   ED8 d   1     -27.553  13.526  23.245  0.00  0.00     0.080 H 
ATOM     24  H   ED8 d   1     -27.040  14.976  22.233  0.00  0.00     0.080 H 
ATOM     25  C37 ED8 d   1     -29.735  13.234  21.373  0.00  0.00     0.115 C 
ATOM     26  C36 ED8 d   1     -29.092  11.844  21.641  0.00  0.00    -0.015 C 
ATOM     27  H   ED8 d   1     -29.739  13.399  20.296  0.00  0.00     0.080 H 
ATOM     28  H   ED8 d   1     -30.737  13.227  21.801  0.00  0.00     0.080 H 
ATOM     29  H   ED8 d   1     -29.034  11.685  22.718  0.00  0.00     0.039 H 
ATOM     30  H   ED8 d   1     -29.705  11.076  21.170  0.00  0.00     0.039 H 
ATOM     31  H   ED8 d   1     -27.186  11.035  21.684  0.00  0.00     0.084 H 
BRANCH  22  32
ATOM     32  C01 ED8 d   1     -29.666  14.877  23.153  0.00  0.00     0.095 C 
ATOM     33  H   ED8 d   1     -30.642  15.261  22.856  0.00  0.00     0.071 H 
ATOM     34  H   ED8 d   1     -29.794  14.094  23.900  0.00  0.00     0.071 H 
ATOM     35  H   ED8 d   1     -29.068  15.686  23.572  0.00  0.00     0.071 H 
ENDBRANCH  22  32
ENDBRANCH  16  17
ENDBRANCH  12  16
ENDBRANCH   1   3
BRANCH   1  36
ATOM     36  C15 ED8 d   1     -25.341   8.330  16.519  0.00  0.00    -0.049 C 
ATOM     37  H   ED8 d   1     -24.705   9.213  16.448  0.00  0.00     0.031 H 
ATOM     38  H   ED8 d   1     -25.576   7.969  15.518  0.00  0.00     0.031 H 
ATOM     39  H   ED8 d   1     -26.263   8.586  17.041  0.00  0.00     0.031 H 
ENDBRANCH   1  36
BRANCH   1  40
ATOM     40  S33 ED8 d   1     -23.158   6.774  16.555  0.00  0.00    -0.127 SA
BRANCH  40  41
ATOM     41  C29 ED8 d   1     -23.140   7.791  15.094  0.00  0.00     0.090 C 
ATOM     42  H   ED8 d   1     -22.387   8.189  14.414  0.00  0.00     0.074 H 
BRANCH  41  43
ATOM     43  C16 ED8 d   1     -24.395   8.693  15.069  0.00  0.00     0.040 C 
ATOM     44  H   ED8 d   1     -25.150   7.940  14.841  0.00  0.00     0.076 H 
ATOM     45  H   ED8 d   1     -24.200   9.293  15.958  0.00  0.00     0.076 H 
BRANCH  43  46
ATOM     46  O17 ED8 d   1     -24.815   9.711  14.194  0.00  0.00    -0.385 OA
BRANCH  46  47
ATOM     47  C18 ED8 d   1     -25.947  10.464  14.558  0.00  0.00     0.044 C 
ATOM     48  H   ED8 d   1     -26.633   9.738  14.994  0.00  0.00     0.081 H 
ATOM     49  H   ED8 d   1     -26.232  10.993  13.648  0.00  0.00     0.081 H 
BRANCH  47  50
ATOM     50  C19 ED8 d   1     -25.815  11.557  15.616  0.00  0.00    -0.020 A 
ATOM     51  C20 ED8 d   1     -24.530  12.133  15.822  0.00  0.00    -0.074 A 
ATOM     52  C21 ED8 d   1     -24.304  13.166  16.815  0.00  0.00    -0.082 A 
ATOM     53  H   ED8 d   1     -23.692  11.788  15.216  0.00  0.00     0.084 H 
ATOM     54  C22 ED8 d   1     -25.469  13.645  17.644  0.00  0.00    -0.082 A 
ATOM     55  H   ED8 d   1     -23.310  13.588  16.959  0.00  0.00     0.083 H 
ATOM     56  C23 ED8 d   1     -26.749  13.090  17.452  0.00  0.00    -0.068 A 
ATOM     57  H   ED8 d   1     -25.320  14.422  18.393  0.00  0.00     0.083 H 
ATOM     58  C24 ED8 d   1     -26.984  12.050  16.450  0.00  0.00     0.056 A 
ATOM     59  H   ED8 d   1     -27.581  13.442  18.062  0.00  0.00     0.084 H 
BRANCH  58  60
ATOM     60  C25 ED8 d   1     -28.387  11.531  16.328  0.00  0.00     0.418 C 
ATOM     61  F26 ED8 d   1     -28.437  10.297  16.838  0.00  0.00    -0.166 F 
ATOM     62  F27 ED8 d   1     -29.227  12.302  17.029  0.00  0.00    -0.166 F 
ATOM     63  F28 ED8 d   1     -28.811  11.519  15.064  0.00  0.00    -0.166 F 
ENDBRANCH  58  60
ENDBRANCH  47  50
ENDBRANCH  46  47
ENDBRANCH  43  46
ENDBRANCH  41  43
BRANCH  41  64
ATOM     64  C30 ED8 d   1     -22.071   7.682  14.035  0.00  0.00     0.231 C 
ATOM     65  N31 ED8 d   1     -22.258   8.339  12.776  0.00  0.00    -0.369 N 
ATOM     66  H   ED8 d   1     -21.682   8.080  11.975  0.00  0.00     0.159 HD
ATOM     67  H   ED8 d   1     -22.968   9.066  12.680  0.00  0.00     0.159 HD
ATOM     68  O32 ED8 d   1     -21.220   6.811  14.149  0.00  0.00    -0.272 OA
ENDBRANCH  41  64
ENDBRANCH  40  41
ENDBRANCH   1  40
TORSDOF 13
