REMARK  9 active torsions:
REMARK  status: ('A' for Active; 'I' for Inactive)
REMARK    1  A    between atoms: C02_2  and  C01_1 
REMARK    2  A    between atoms: O03_3  and  C02_2 
REMARK    3  A    between atoms: C02_2  and  C30_30 
REMARK    4  A    between atoms: C04_4  and  O03_3 
REMARK    5  A    between atoms: C12_13  and  O13_14 
REMARK    6  A    between atoms: O13_14  and  C14_15 
REMARK    7  A    between atoms: N17_18  and  C18_19 
REMARK    8  A    between atoms: C26_26  and  C27_27 
REMARK       I    between atoms: C27_27  and  N28_28 
REMARK    9  A    between atoms: C35_35  and  C36_36 
ROOT
ATOM      1  C04 WCX d   1     -24.563  -3.405  15.623  0.00  0.00     0.087 A 
ATOM      2  C05 WCX d   1     -25.316  -3.706  16.875  0.00  0.00    -0.024 A 
ATOM      3  C06 WCX d   1     -24.699  -4.634  17.867  0.00  0.00     0.043 A 
ATOM      4  N09 WCX d   1     -26.041  -6.028  20.839  0.00  0.00    -0.241 NA
ATOM      5  C08 WCX d   1     -25.347  -6.162  19.596  0.00  0.00     0.072 A 
ATOM      6  N07 WCX d   1     -25.309  -4.902  19.031  0.00  0.00    -0.304 N 
ATOM      7  C23 WCX d   1     -25.962  -3.974  19.869  0.00  0.00     0.069 A 
ATOM      8  C22 WCX d   1     -26.219  -2.510  19.745  0.00  0.00    -0.052 A 
ATOM      9  C21 WCX d   1     -26.936  -1.818  20.804  0.00  0.00    -0.049 A 
ATOM     10  C12 WCX d   1     -27.388  -2.592  21.942  0.00  0.00     0.071 A 
ATOM     11  C11 WCX d   1     -27.143  -4.020  22.061  0.00  0.00    -0.021 A 
ATOM     12  C10 WCX d   1     -26.427  -4.707  20.976  0.00  0.00     0.088 A 
ATOM     13  C24 WCX d   1     -23.402  -5.264  17.624  0.00  0.00    -0.056 A 
ATOM     14  C25 WCX d   1     -22.672  -4.971  16.360  0.00  0.00    -0.063 A 
ATOM     15  C26 WCX d   1     -23.252  -4.038  15.366  0.00  0.00     0.065 A 
ATOM     16  H   WCX d   1     -26.293  -3.259  17.061  0.00  0.00     0.091 H 
ATOM     17  H   WCX d   1     -24.930  -7.078  19.177  0.00  0.00     0.144 H 
ATOM     18  H   WCX d   1     -25.872  -1.964  18.868  0.00  0.00     0.087 H 
ATOM     19  H   WCX d   1     -27.128  -0.747  20.743  0.00  0.00     0.087 H 
ATOM     20  H   WCX d   1     -27.484  -4.571  22.938  0.00  0.00     0.091 H 
ATOM     21  H   WCX d   1     -22.973  -5.942  18.362  0.00  0.00     0.087 H 
ATOM     22  H   WCX d   1     -21.709  -5.444  16.166  0.00  0.00     0.085 H 
ENDROOT
BRANCH   1  23
ATOM     23  O03 WCX d   1     -25.088  -2.487  14.688  0.00  0.00    -0.341 OA
BRANCH  23  24
ATOM     24  C02 WCX d   1     -26.311  -1.848  14.974  0.00  0.00     0.068 C 
ATOM     25  H   WCX d   1     -27.046  -2.539  15.386  0.00  0.00     0.091 H 
BRANCH  24  26
ATOM     26  C01 WCX d   1     -26.838  -1.251  13.649  0.00  0.00    -0.048 C 
ATOM     27  H   WCX d   1     -27.769  -0.717  13.838  0.00  0.00     0.031 H 
ATOM     28  H   WCX d   1     -26.098  -0.561  13.243  0.00  0.00     0.031 H 
ATOM     29  H   WCX d   1     -27.017  -2.055  12.935  0.00  0.00     0.031 H 
ENDBRANCH  24  26
BRANCH  24  30
ATOM     30  C30 WCX d   1     -26.046  -0.724  16.012  0.00  0.00    -0.014 A 
ATOM     31  C31 WCX d   1     -24.743  -0.060  16.046  0.00  0.00    -0.074 A 
ATOM     32  C32 WCX d   1     -24.516   1.009  17.007  0.00  0.00    -0.082 A 
ATOM     33  H   WCX d   1     -23.952  -0.362  15.360  0.00  0.00     0.084 H 
ATOM     34  C33 WCX d   1     -25.593   1.416  17.945  0.00  0.00    -0.082 A 
ATOM     35  H   WCX d   1     -23.550   1.514  17.038  0.00  0.00     0.083 H 
ATOM     36  C34 WCX d   1     -26.924   0.748  17.905  0.00  0.00    -0.068 A 
ATOM     37  H   WCX d   1     -25.408   2.210  18.669  0.00  0.00     0.083 H 
ATOM     38  C35 WCX d   1     -27.146  -0.294  16.954  0.00  0.00     0.056 A 
ATOM     39  H   WCX d   1     -27.716   1.050  18.591  0.00  0.00     0.084 H 
BRANCH  38  40
ATOM     40  C36 WCX d   1     -28.536  -0.997  16.911  0.00  0.00     0.418 C 
ATOM     41  F39 WCX d   1     -29.335  -0.383  17.809  0.00  0.00    -0.166 F 
ATOM     42  F38 WCX d   1     -28.399  -2.304  17.272  0.00  0.00    -0.166 F 
ATOM     43  F37 WCX d   1     -29.113  -0.909  15.658  0.00  0.00    -0.166 F 
ENDBRANCH  38  40
ENDBRANCH  24  30
ENDBRANCH  23  24
ENDBRANCH   1  23
BRANCH  15  44
ATOM     44  C27 WCX d   1     -22.435  -3.767  14.076  0.00  0.00     0.252 C 
ATOM     45  N28 WCX d   1     -22.950  -2.895  13.017  0.00  0.00    -0.366 N 
ATOM     46  H   WCX d   1     -22.407  -2.751  12.166  0.00  0.00     0.159 HD
ATOM     47  H   WCX d   1     -23.852  -2.433  13.131  0.00  0.00     0.159 HD
ATOM     48  O29 WCX d   1     -21.393  -4.308  13.957  0.00  0.00    -0.268 OA
ENDBRANCH  15  44
BRANCH  10  49
ATOM     49  O13 WCX d   1     -28.081  -1.969  23.003  0.00  0.00    -0.346 OA
BRANCH  49  50
ATOM     50  C14 WCX d   1     -29.085  -2.844  23.523  0.00  0.00     0.048 C 
ATOM     51  C15 WCX d   1     -30.422  -2.105  23.774  0.00  0.00    -0.015 C 
ATOM     52  C16 WCX d   1     -30.189  -0.755  24.493  0.00  0.00     0.115 C 
ATOM     53  H   WCX d   1     -31.052  -2.731  24.405  0.00  0.00     0.039 H 
ATOM     54  H   WCX d   1     -30.897  -1.910  22.813  0.00  0.00     0.039 H 
ATOM     55  N17 WCX d   1     -29.336  -0.850  25.692  0.00  0.00     0.084 N 
ATOM     56  H   WCX d   1     -31.163  -0.391  24.819  0.00  0.00     0.080 H 
ATOM     57  H   WCX d   1     -29.681  -0.098  23.787  0.00  0.00     0.080 H 
ATOM     58  C19 WCX d   1     -28.069  -1.613  25.485  0.00  0.00     0.115 C 
ATOM     59  C20 WCX d   1     -28.315  -3.017  24.853  0.00  0.00    -0.015 C 
ATOM     60  H   WCX d   1     -27.601  -1.759  26.459  0.00  0.00     0.080 H 
ATOM     61  H   WCX d   1     -27.440  -1.042  24.802  0.00  0.00     0.080 H 
ATOM     62  H   WCX d   1     -27.360  -3.507  24.663  0.00  0.00     0.039 H 
ATOM     63  H   WCX d   1     -28.899  -3.631  25.538  0.00  0.00     0.039 H 
ATOM     64  H   WCX d   1     -29.384  -3.713  22.938  0.00  0.00     0.084 H 
BRANCH  55  65
ATOM     65  C18 WCX d   1     -29.085   0.406  26.442  0.00  0.00     0.095 C 
ATOM     66  H   WCX d   1     -28.593   1.126  25.788  0.00  0.00     0.071 H 
ATOM     67  H   WCX d   1     -30.034   0.817  26.788  0.00  0.00     0.071 H 
ATOM     68  H   WCX d   1     -28.445   0.195  27.299  0.00  0.00     0.071 H 
ENDBRANCH  55  65
ENDBRANCH  49  50
ENDBRANCH  10  49
TORSDOF 9
