REMARK  2 active torsions:
REMARK  status: ('A' for Active; 'I' for Inactive)
REMARK    1  A    between atoms: CD1_3  and  CG_2 
REMARK    2  A    between atoms: CR_6  and  O_7 
ROOT
ATOM      1  CH  H70 d   1      66.889  48.156 -49.941  0.00  0.00     0.069 A 
ATOM      2  CG  H70 d   1      67.457  47.383 -47.633  0.00  0.00     0.029 A 
ATOM      3  CD2 H70 d   1      66.072  47.267 -47.346  0.00  0.00    -0.047 A 
ATOM      4  CE2 H70 d   1      65.107  47.582 -48.312  0.00  0.00     0.036 A 
ATOM      5  CR  H70 d   1      67.890  47.832 -48.938  0.00  0.00     0.100 A 
ATOM      6  C3  H70 d   1      65.498  48.029 -49.620  0.00  0.00    -0.038 A 
ATOM      7 CL1  H70 d   1      63.473  47.412 -47.891  0.00  0.00    -0.084 Cl
ATOM      8 CL2  H70 d   1      67.321  48.685 -51.495  0.00  0.00    -0.081 Cl
ATOM      9  H1  H70 d   1      65.756  46.930 -46.365  0.00  0.00     0.087 H 
ATOM     10  H3  H70 d   1      64.744  48.269 -50.361  0.00  0.00     0.088 H 
ENDROOT
BRANCH   2  11
ATOM     11  CD1 H70 d   1      68.400  47.032 -46.579  0.00  0.00     0.065 A 
ATOM     12  C9  H70 d   1      69.802  46.864 -46.635  0.00  0.00     0.058 A 
ATOM     13  C8  H70 d   1      70.224  46.515 -45.292  0.00  0.00     0.064 A 
ATOM     14 BR1  H70 d   1      70.889  47.048 -48.122  0.00  0.00    -0.047 Br
ATOM     15  C7  H70 d   1      69.062  46.484 -44.484  0.00  0.00     0.099 A 
ATOM     16 BR2  H70 d   1      71.926  46.172 -44.720  0.00  0.00    -0.047 Br
ATOM     17  N11 H70 d   1      67.979  46.798 -45.275  0.00  0.00    -0.347 N 
ATOM     18 BR3  H70 d   1      68.913  46.100 -42.678  0.00  0.00    -0.030 Br
ATOM     19  H4  H70 d   1      67.003  46.851 -44.949  0.00  0.00     0.166 HD
ENDBRANCH   2  11
BRANCH   5  20
ATOM     20  O   H70 d   1      69.222  47.965 -49.282  0.00  0.00    -0.358 OA
ATOM     21  H2  H70 d   1      69.287  48.271 -50.179  0.00  0.00     0.217 HD
ENDBRANCH   5  20
TORSDOF 2
