REMARK  13 active torsions:
REMARK  status: ('A' for Active; 'I' for Inactive)
REMARK    1  A    between atoms: C1B_2  and  N9A_38 
REMARK    2  A    between atoms: C1C_3  and  N1D_4 
REMARK    3  A    between atoms: C1S_5  and  C3C_17 
REMARK    4  A    between atoms: SAS_39  and  C1S_5 
REMARK    5  A    between atoms: C2B_8  and  O2B_9 
REMARK    6  A    between atoms: C3B_15  and  O3B_16 
REMARK    7  A    between atoms: C5B_28  and  N3S_19 
REMARK    8  A    between atoms: N3S_19  and  SAS_39 
REMARK    9  A    between atoms: C4B_21  and  C5B_28 
REMARK   10  A    between atoms: C4C_23  and  C5C_30 
REMARK   11  A    between atoms: C5B_28  and  O5B_29 
REMARK   12  A    between atoms: C5C_30  and  O5C_31 
REMARK   13  A    between atoms: C6A_33  and  N6A_34 
ROOT
ATOM      1  N3S SFB d   1      40.459   2.933  16.510  0.00  0.00    -0.290 N 
ATOM      2  H14 SFB d   1      40.407   2.924  17.509  0.00  0.00     0.174 HD
ENDROOT
BRANCH   1   3
ATOM      3  C5B SFB d   1      40.705   4.193  15.820  0.00  0.00     0.137 C 
ATOM      4  H17 SFB d   1      40.146   4.230  14.873  0.00  0.00     0.122 H 
BRANCH   3   5
ATOM      5  C4B SFB d   1      40.206   5.279  16.771  0.00  0.00     0.110 C 
ATOM      6  C3B SFB d   1      41.209   5.652  17.859  0.00  0.00     0.093 C 
ATOM      7  C2B SFB d   1      40.369   5.878  19.102  0.00  0.00     0.105 C 
ATOM      8  H10 SFB d   1      41.923   4.832  18.023  0.00  0.00     0.091 H 
ATOM      9  C1B SFB d   1      38.935   5.586  18.682  0.00  0.00     0.140 C 
ATOM     10  H6  SFB d   1      40.686   5.197  19.905  0.00  0.00     0.093 H 
ATOM     11  O4B SFB d   1      39.013   4.864  17.452  0.00  0.00    -0.351 OA
ATOM     12  H1  SFB d   1      38.401   6.531  18.503  0.00  0.00     0.122 H 
ATOM     13  H15 SFB d   1      39.987   6.175  16.171  0.00  0.00     0.094 H 
BRANCH   6  14
ATOM     14  O3B SFB d   1      41.925   6.836  17.493  0.00  0.00    -0.390 OA
ATOM     15  H11 SFB d   1      41.308   7.537  17.318  0.00  0.00     0.210 HD
ENDBRANCH   6  14
BRANCH   7  16
ATOM     16  O2B SFB d   1      40.460   7.229  19.557  0.00  0.00    -0.388 OA
ATOM     17  H7  SFB d   1      40.207   7.816  18.854  0.00  0.00     0.210 HD
ENDBRANCH   7  16
BRANCH   9  18
ATOM     18  N9A SFB d   1      38.238   4.860  19.776  0.00  0.00    -0.294 N 
ATOM     19  C4A SFB d   1      37.294   5.399  20.554  0.00  0.00     0.167 A 
ATOM     20  N3A SFB d   1      36.718   6.630  20.587  0.00  0.00    -0.222 NA
ATOM     21  C5A SFB d   1      36.895   4.432  21.464  0.00  0.00     0.149 A 
ATOM     22  C2A SFB d   1      35.766   6.915  21.492  0.00  0.00     0.091 A 
ATOM     23  N1A SFB d   1      35.362   5.994  22.383  0.00  0.00    -0.222 NA
ATOM     24  H5  SFB d   1      35.318   7.902  21.503  0.00  0.00     0.146 H 
ATOM     25  C6A SFB d   1      35.908   4.753  22.393  0.00  0.00     0.155 A 
ATOM     26  N7A SFB d   1      37.616   3.321  21.212  0.00  0.00    -0.236 NA
ATOM     27  C8A SFB d   1      38.443   3.594  20.174  0.00  0.00     0.071 A 
ATOM     28  H26 SFB d   1      39.157   2.900  19.734  0.00  0.00     0.144 H 
BRANCH  25  29
ATOM     29  N6A SFB d   1      35.494   3.833  23.295  0.00  0.00    -0.382 N 
ATOM     30  H23 SFB d   1      35.912   2.891  23.299  0.00  0.00     0.157 HD
ATOM     31  H24 SFB d   1      34.761   4.074  23.977  0.00  0.00     0.157 HD
ENDBRANCH  25  29
ENDBRANCH   9  18
ENDBRANCH   3   5
BRANCH   3  32
ATOM     32  O5B SFB d   1      42.107   4.338  15.550  0.00  0.00    -0.373 OA
ATOM     33  H18 SFB d   1      42.258   5.161  15.101  0.00  0.00     0.212 HD
ENDBRANCH   3  32
ENDBRANCH   1   3
BRANCH   1  34
ATOM     34  SAS SFB d   1      40.280   1.632  15.743  0.00  0.00     0.229 S 
ATOM     35  O1S SFB d   1      39.690   0.635  16.670  0.00  0.00    -0.206 OA
ATOM     36  O2S SFB d   1      41.610   1.155  15.297  0.00  0.00    -0.206 OA
BRANCH  34  37
ATOM     37  C1S SFB d   1      39.285   1.851  14.421  0.00  0.00     0.052 C 
ATOM     38  H3  SFB d   1      38.400   2.431  14.723  0.00  0.00     0.059 H 
ATOM     39  H4  SFB d   1      39.833   2.397  13.639  0.00  0.00     0.059 H 
BRANCH  37  40
ATOM     40  C3C SFB d   1      38.841   0.499  13.876  0.00  0.00    -0.009 C 
ATOM     41  C2C SFB d   1      37.398   0.545  13.402  0.00  0.00    -0.017 C 
ATOM     42  C1C SFB d   1      37.386  -0.251  12.099  0.00  0.00     0.114 C 
ATOM     43  H8  SFB d   1      36.732   0.082  14.145  0.00  0.00     0.040 H 
ATOM     44  H9  SFB d   1      37.082   1.583  13.224  0.00  0.00     0.040 H 
ATOM     45  O4C SFB d   1      38.746  -0.544  11.747  0.00  0.00    -0.358 OA
ATOM     46  H2  SFB d   1      36.935   0.365  11.308  0.00  0.00     0.118 H 
ATOM     47  C4C SFB d   1      39.662   0.036  12.680  0.00  0.00     0.066 C 
ATOM     48  H16 SFB d   1      40.154   0.907  12.223  0.00  0.00     0.087 H 
ATOM     49  H12 SFB d   1      38.937  -0.241  14.684  0.00  0.00     0.045 H 
BRANCH  42  50
ATOM     50  N1D SFB d   1      36.596  -1.492  12.230  0.00  0.00    -0.282 N 
ATOM     51  C2D SFB d   1      35.447  -1.689  11.424  0.00  0.00     0.331 A 
ATOM     52  O2D SFB d   1      35.092  -0.816  10.604  0.00  0.00    -0.246 OA
ATOM     53  N3D SFB d   1      34.725  -2.816  11.535  0.00  0.00    -0.275 N 
ATOM     54  C4D SFB d   1      35.071  -3.778  12.406  0.00  0.00     0.250 A 
ATOM     55  H13 SFB d   1      33.917  -2.941  10.960  0.00  0.00     0.173 HD
ATOM     56  O4D SFB d   1      34.385  -4.820  12.495  0.00  0.00    -0.268 OA
ATOM     57  C5D SFB d   1      36.196  -3.618  13.211  0.00  0.00    -0.002 A 
ATOM     58  C6D SFB d   1      36.952  -2.453  13.102  0.00  0.00    -0.008 A 
ATOM     59  H22 SFB d   1      36.482  -4.395  13.918  0.00  0.00     0.094 H 
ATOM     60  H25 SFB d   1      37.835  -2.319  13.725  0.00  0.00     0.112 H 
ENDBRANCH  42  50
BRANCH  47  61
ATOM     61  C5C SFB d   1      40.735  -0.983  13.058  0.00  0.00     0.041 C 
ATOM     62  H19 SFB d   1      41.434  -0.522  13.772  0.00  0.00     0.077 H 
ATOM     63  H20 SFB d   1      41.282  -1.284  12.152  0.00  0.00     0.077 H 
BRANCH  61  64
ATOM     64  O5C SFB d   1      40.147  -2.144  13.659  0.00  0.00    -0.398 OA
ATOM     65  H21 SFB d   1      39.545  -2.547  13.044  0.00  0.00     0.209 HD
ENDBRANCH  61  64
ENDBRANCH  47  61
ENDBRANCH  37  40
ENDBRANCH  34  37
ENDBRANCH   1  34
TORSDOF 13
