REMARK  6 active torsions:
REMARK  status: ('A' for Active; 'I' for Inactive)
REMARK    1  A    between atoms: C1_2  and  C2_3 
REMARK    2  A    between atoms: C4_5  and  N1_6 
REMARK    3  A    between atoms: C7_9  and  C8_10 
REMARK    4  A    between atoms: C8_10  and  C9_11 
REMARK    5  A    between atoms: C9_11  and  O3_13 
REMARK    6  A    between atoms: O3_13  and  C10_14 
ROOT
ATOM      1  C2  ISM d   1      14.696  -9.222  49.310  0.00  0.00     0.010 A 
ATOM      2  C3  ISM d   1      15.212 -10.493  49.581  0.00  0.00    -0.044 A 
ATOM      3  C4  ISM d   1      16.094 -10.694  50.644  0.00  0.00     0.026 A 
ATOM      4  C5  ISM d   1      16.505  -9.626  51.419  0.00  0.00    -0.057 A 
ATOM      5  C6  ISM d   1      16.008  -8.360  51.139  0.00  0.00    -0.073 A 
ATOM      6  C7  ISM d   1      15.137  -8.133  50.076  0.00  0.00    -0.035 A 
ATOM      7  H   ISM d   1      14.922 -11.337  48.955  0.00  0.00     0.088 H 
ATOM      8  H   ISM d   1      17.209  -9.775  52.238  0.00  0.00     0.086 H 
ATOM      9  H   ISM d   1      16.307  -7.521  51.768  0.00  0.00     0.084 H 
ENDROOT
BRANCH   6  10
ATOM     10  C8  ISM d   1      14.706  -6.788  49.911  0.00  0.00     0.041 C 
ATOM     11  H   ISM d   1      15.473  -6.320  49.294  0.00  0.00     0.055 H 
ATOM     12  H   ISM d   1      14.546  -6.417  50.923  0.00  0.00     0.055 H 
BRANCH  10  13
ATOM     13  C9  ISM d   1      13.375  -6.515  49.170  0.00  0.00     0.262 C 
ATOM     14  O2  ISM d   1      12.396  -7.247  49.300  0.00  0.00    -0.265 OA
BRANCH  13  15
ATOM     15  O3  ISM d   1      13.351  -5.383  48.395  0.00  0.00    -0.326 OA
BRANCH  15  16
ATOM     16  C10 ISM d   1      12.088  -5.260  47.734  0.00  0.00     0.013 C 
ATOM     17  H   ISM d   1      11.926  -6.130  47.098  0.00  0.00     0.067 H 
ATOM     18  H   ISM d   1      11.294  -5.199  48.478  0.00  0.00     0.067 H 
ATOM     19  H   ISM d   1      12.085  -4.357  47.123  0.00  0.00     0.067 H 
ENDBRANCH  15  16
ENDBRANCH  13  15
ENDBRANCH  10  13
ENDBRANCH   6  10
BRANCH   1  20
ATOM     20  C1  ISM d   1      13.824  -9.026  48.235  0.00  0.00     0.119 C 
ATOM     21  O1  ISM d   1      13.286  -9.934  47.623  0.00  0.00    -0.301 OA
ATOM     22  H   ISM d   1      13.613  -8.002  47.926  0.00  0.00     0.151 H 
ENDBRANCH   1  20
BRANCH   3  23
ATOM     23  N1  ISM d   1      16.565 -11.900  50.915  0.00  0.00    -0.399 N 
ATOM     24  H   ISM d   1      17.221 -12.030  51.685  0.00  0.00     0.156 HD
ATOM     25  H   ISM d   1      16.273 -12.700  50.353  0.00  0.00     0.156 HD
ENDBRANCH   3  23
TORSDOF 6
