REMARK  7 active torsions:
REMARK  status: ('A' for Active; 'I' for Inactive)
REMARK    1  A    between atoms: C17_7  and  C21_10 
REMARK    2  A    between atoms: C21_10  and  C1_11 
REMARK    3  A    between atoms: C21_10  and  O27_12 
REMARK    4  A    between atoms: O27_12  and  C15_13 
REMARK    5  A    between atoms: C19_15  and  N22_16 
REMARK    6  A    between atoms: C14_19  and  C16_20 
REMARK    7  A    between atoms: N26_23  and  C20_25 
ROOT
ATOM      1  C15 VGH d   1      29.790  44.510   9.126  0.00  0.00     0.116 A 
ATOM      2  C4  VGH d   1      29.684  45.747   8.392  0.00  0.00    -0.035 A 
ATOM      3  C19 VGH d   1      28.761  44.267  10.099  0.00  0.00     0.154 A 
ATOM      4  N23 VGH d   1      27.732  45.115  10.350  0.00  0.00    -0.240 NA
ATOM      5  C5  VGH d   1      27.660  46.278   9.640  0.00  0.00     0.015 A 
ATOM      6  C14 VGH d   1      28.609  46.661   8.641  0.00  0.00    -0.003 A 
ATOM      7  H   VGH d   1      30.432  45.990   7.637  0.00  0.00     0.089 H 
ATOM      8  H   VGH d   1      26.831  46.955   9.846  0.00  0.00     0.116 H 
ENDROOT
BRANCH   6   9
ATOM      9  C16 VGH d   1      28.498  47.968   7.866  0.00  0.00     0.012 A 
ATOM     10  C6  VGH d   1      29.544  48.638   7.090  0.00  0.00     0.034 A 
ATOM     11  N24 VGH d   1      29.063  49.720   6.583  0.00  0.00    -0.184 NA
ATOM     12  H   VGH d   1      30.565  48.279   6.962  0.00  0.00     0.118 H 
ATOM     13  N26 VGH d   1      27.829  49.854   6.923  0.00  0.00    -0.276 N 
ATOM     14  C7  VGH d   1      27.380  48.793   7.737  0.00  0.00     0.011 A 
ATOM     15  H   VGH d   1      26.388  48.650   8.166  0.00  0.00     0.115 H 
BRANCH  13  16
ATOM     16  C20 VGH d   1      27.017  51.017   6.477  0.00  0.00     0.037 C 
ATOM     17  C8  VGH d   1      26.819  52.017   7.637  0.00  0.00    -0.022 C 
ATOM     18  C10 VGH d   1      25.975  53.218   7.146  0.00  0.00     0.084 C 
ATOM     19  H   VGH d   1      27.791  52.372   7.980  0.00  0.00     0.038 H 
ATOM     20  H   VGH d   1      26.302  51.522   8.459  0.00  0.00     0.038 H 
ATOM     21  N25 VGH d   1      24.673  52.790   6.555  0.00  0.00    -0.075 N 
ATOM     22  H   VGH d   1      26.543  53.738   6.374  0.00  0.00     0.075 H 
ATOM     23  H   VGH d   1      25.764  53.857   8.004  0.00  0.00     0.075 H 
ATOM     24  C11 VGH d   1      24.836  51.791   5.460  0.00  0.00     0.084 C 
ATOM     25  H   VGH d   1      24.223  53.616   6.160  0.00  0.00     0.277 HD
ATOM     26  H   VGH d   1      24.122  52.355   7.295  0.00  0.00     0.277 HD
ATOM     27  C9  VGH d   1      25.648  50.556   5.913  0.00  0.00    -0.022 C 
ATOM     28  H   VGH d   1      25.374  52.269   4.642  0.00  0.00     0.075 H 
ATOM     29  H   VGH d   1      23.845  51.453   5.159  0.00  0.00     0.075 H 
ATOM     30  H   VGH d   1      25.097  50.022   6.687  0.00  0.00     0.038 H 
ATOM     31  H   VGH d   1      25.809  49.895   5.062  0.00  0.00     0.038 H 
ATOM     32  H   VGH d   1      27.559  51.520   5.676  0.00  0.00     0.076 H 
ENDBRANCH  13  16
ENDBRANCH   6   9
BRANCH   1  33
ATOM     33  O27 VGH d   1      30.790  43.541   8.950  0.00  0.00    -0.338 OA
BRANCH  33  34
ATOM     34  C21 VGH d   1      32.095  43.750   8.308  0.00  0.00     0.070 C 
ATOM     35  H   VGH d   1      31.946  44.156   7.308  0.00  0.00     0.091 H 
BRANCH  34  36
ATOM     36  C17 VGH d   1      32.995  44.825   9.012  0.00  0.00     0.017 A 
ATOM     37  C13 VGH d   1      33.402  46.018   8.273  0.00  0.00     0.044 A 
ATOM     38 CL   VGH d   1      32.937  46.331   6.622  0.00  0.00    -0.084 Cl
ATOM     39  C3  VGH d   1      34.222  47.002   8.900  0.00  0.00    -0.058 A 
ATOM     40  C2  VGH d   1      34.656  46.847  10.241  0.00  0.00    -0.042 A 
ATOM     41  H   VGH d   1      34.520  47.888   8.339  0.00  0.00     0.086 H 
ATOM     42  C12 VGH d   1      34.285  45.703  10.998  0.00  0.00     0.138 A 
ATOM     43  H   VGH d   1      35.282  47.614  10.697  0.00  0.00     0.088 H 
ATOM     44  F   VGH d   1      34.722  45.601  12.265  0.00  0.00    -0.204 F 
ATOM     45  C18 VGH d   1      33.455  44.680  10.405  0.00  0.00     0.083 A 
ATOM     46 CL2  VGH d   1      33.042  43.300  11.414  0.00  0.00    -0.080 Cl
ENDBRANCH  34  36
BRANCH  34  47
ATOM     47  C1  VGH d   1      32.779  42.370   8.283  0.00  0.00    -0.048 C 
ATOM     48  H   VGH d   1      32.895  42.005   9.303  0.00  0.00     0.031 H 
ATOM     49  H   VGH d   1      32.166  41.672   7.713  0.00  0.00     0.031 H 
ATOM     50  H   VGH d   1      33.759  42.460   7.815  0.00  0.00     0.031 H 
ENDBRANCH  34  47
ENDBRANCH  33  34
ENDBRANCH   1  33
BRANCH   3  51
ATOM     51  N22 VGH d   1      28.798  43.076  10.850  0.00  0.00    -0.382 N 
ATOM     52  H   VGH d   1      28.073  42.887  11.542  0.00  0.00     0.157 HD
ATOM     53  H   VGH d   1      29.550  42.403  10.702  0.00  0.00     0.157 HD
ENDBRANCH   3  51
TORSDOF 7
