REMARK  2 active torsions:
REMARK  status: ('A' for Active; 'I' for Inactive)
REMARK    1  A    between atoms: C12_2  and  C10_4 
REMARK    2  A    between atoms: C7_7  and  C6_9 
ROOT
ATOM      1  C6  G14 d   1     -34.009  25.107  24.958  0.00  0.00     0.010 A 
ATOM      2  C1  G14 d   1     -33.400  24.821  23.731  0.00  0.00    -0.069 A 
ATOM      3  C2  G14 d   1     -32.204  24.069  23.692  0.00  0.00    -0.082 A 
ATOM      4  C3  G14 d   1     -31.592  23.685  24.906  0.00  0.00    -0.083 A 
ATOM      5  C4  G14 d   1     -32.184  24.012  26.146  0.00  0.00    -0.082 A 
ATOM      6  C5  G14 d   1     -33.409  24.717  26.175  0.00  0.00    -0.069 A 
ATOM      7  H3  G14 d   1     -33.846  25.177  22.809  0.00  0.00     0.085 H 
ATOM      8  H4  G14 d   1     -31.762  23.790  22.742  0.00  0.00     0.083 H 
ATOM      9  H5  G14 d   1     -30.659  23.134  24.886  0.00  0.00     0.083 H 
ATOM     10  H6  G14 d   1     -31.701  23.723  27.072  0.00  0.00     0.083 H 
ATOM     11  H7  G14 d   1     -33.882  24.955  27.121  0.00  0.00     0.085 H 
ENDROOT
BRANCH   1  12
ATOM     12  C7  G14 d   1     -35.199  25.818  24.958  0.00  0.00     0.138 A 
ATOM     13  N8  G14 d   1     -36.091  25.804  23.948  0.00  0.00    -0.240 NA
ATOM     14  C9  G14 d   1     -37.127  26.582  24.241  0.00  0.00     0.037 A 
ATOM     15  C10 G14 d   1     -36.867  27.021  25.503  0.00  0.00     0.129 A 
ATOM     16  H1  G14 d   1     -37.987  26.815  23.615  0.00  0.00     0.118 H 
ATOM     17  N11 G14 d   1     -35.666  26.629  25.947  0.00  0.00    -0.334 N 
ATOM     18  H2  G14 d   1     -35.203  26.882  26.831  0.00  0.00     0.168 HD
BRANCH  15  19
ATOM     19  C12 G14 d   1     -37.774  28.039  26.279  0.00  0.00     0.228 C 
ATOM     20  O14 G14 d   1     -38.661  28.581  25.662  0.00  0.00    -0.643 OA
ATOM     21  O13 G14 d   1     -37.626  28.296  27.492  0.00  0.00    -0.643 OA
ENDBRANCH  15  19
ENDBRANCH   1  12
TORSDOF 2
