REMARK  3 active torsions:
REMARK  status: ('A' for Active; 'I' for Inactive)
REMARK    1  A    between atoms: C12_2  and  C10_4 
REMARK    2  A    between atoms: C9_5  and  C15_15 
REMARK    3  A    between atoms: C7_7  and  C6_9 
ROOT
ATOM      1  C10 4FF d   1     -36.850  27.173  25.339  0.00  0.00     0.157 A 
ATOM      2  C9  4FF d   1     -37.134  26.709  24.046  0.00  0.00     0.043 A 
ATOM      3  N8  4FF d   1     -36.119  25.898  23.680  0.00  0.00    -0.342 N 
ATOM      4  C7  4FF d   1     -35.225  25.850  24.724  0.00  0.00     0.139 A 
ATOM      5  N11 4FF d   1     -35.690  26.657  25.708  0.00  0.00    -0.222 NA
ATOM      6  H1  4FF d   1     -36.030  25.404  22.781  0.00  0.00     0.167 HD
ENDROOT
BRANCH   4   7
ATOM      7  C6  4FF d   1     -34.010  25.143  24.795  0.00  0.00     0.010 A 
ATOM      8  C1  4FF d   1     -33.337  24.761  23.617  0.00  0.00    -0.069 A 
ATOM      9  C2  4FF d   1     -32.115  24.054  23.647  0.00  0.00    -0.082 A 
ATOM     10  H2  4FF d   1     -33.771  25.018  22.658  0.00  0.00     0.085 H 
ATOM     11  C3  4FF d   1     -31.552  23.745  24.899  0.00  0.00    -0.083 A 
ATOM     12  H3  4FF d   1     -31.623  23.757  22.728  0.00  0.00     0.083 H 
ATOM     13  C4  4FF d   1     -32.183  24.148  26.095  0.00  0.00    -0.082 A 
ATOM     14  H4  4FF d   1     -30.622  23.190  24.945  0.00  0.00     0.083 H 
ATOM     15  C5  4FF d   1     -33.420  24.835  26.028  0.00  0.00    -0.069 A 
ATOM     16  H5  4FF d   1     -31.726  23.934  27.055  0.00  0.00     0.083 H 
ATOM     17  H6  4FF d   1     -33.918  25.127  26.945  0.00  0.00     0.085 H 
ENDBRANCH   4   7
BRANCH   2  18
ATOM     18  C15 4FF d   1     -38.378  27.081  23.158  0.00  0.00    -0.035 C 
ATOM     19  H7  4FF d   1     -39.039  27.759  23.718  0.00  0.00     0.035 H 
ATOM     20  H8  4FF d   1     -38.929  26.165  22.896  0.00  0.00     0.035 H 
ATOM     21  H9  4FF d   1     -38.036  27.579  22.239  0.00  0.00     0.035 H 
ENDBRANCH   2  18
BRANCH   1  22
ATOM     22  C12 4FF d   1     -37.738  28.151  26.199  0.00  0.00     0.231 C 
ATOM     23  O14 4FF d   1     -37.485  28.441  27.390  0.00  0.00    -0.643 OA
ATOM     24  O13 4FF d   1     -38.768  28.583  25.682  0.00  0.00    -0.643 OA
ENDBRANCH   1  22
TORSDOF 3
