REMARK  3 active torsions:
REMARK  status: ('A' for Active; 'I' for Inactive)
REMARK    1  A    between atoms: C12_2  and  C10_4 
REMARK    2  A    between atoms: C9_5  and  C15_16 
REMARK    3  A    between atoms: C7_7  and  C6_9 
ROOT
ATOM      1  C10 4G2 d   1     -37.213  27.177  25.638  0.00  0.00     0.136 A 
ATOM      2  C9  4G2 d   1     -37.405  26.684  24.347  0.00  0.00     0.066 A 
ATOM      3  N8  4G2 d   1     -36.363  25.902  24.097  0.00  0.00    -0.233 NA
ATOM      4  C7  4G2 d   1     -35.523  25.925  25.147  0.00  0.00     0.139 A 
ATOM      5  N11 4G2 d   1     -36.025  26.720  26.102  0.00  0.00    -0.333 N 
ATOM      6  H1  4G2 d   1     -35.593  26.940  27.011  0.00  0.00     0.168 HD
ENDROOT
BRANCH   4   7
ATOM      7  C6  4G2 d   1     -34.321  25.257  25.212  0.00  0.00     0.011 A 
ATOM      8  C1  4G2 d   1     -33.676  25.190  26.418  0.00  0.00    -0.048 A 
ATOM      9  C2  4G2 d   1     -32.426  24.520  26.471  0.00  0.00     0.035 A 
ATOM     10  H2  4G2 d   1     -34.108  25.636  27.307  0.00  0.00     0.087 H 
ATOM     11  C3  4G2 d   1     -31.852  23.935  25.321  0.00  0.00    -0.062 A 
ATOM     12 CL1  4G2 d   1     -31.594  24.412  27.989  0.00  0.00    -0.084 Cl
ATOM     13  C4  4G2 d   1     -32.500  24.056  24.085  0.00  0.00    -0.080 A 
ATOM     14  H3  4G2 d   1     -30.915  23.395  25.394  0.00  0.00     0.086 H 
ATOM     15  C5  4G2 d   1     -33.741  24.726  24.051  0.00  0.00    -0.069 A 
ATOM     16  H4  4G2 d   1     -32.061  23.647  23.182  0.00  0.00     0.083 H 
ATOM     17  H5  4G2 d   1     -34.259  24.833  23.105  0.00  0.00     0.085 H 
ENDBRANCH   4   7
BRANCH   2  18
ATOM     18  C15 4G2 d   1     -38.578  26.925  23.370  0.00  0.00    -0.033 C 
ATOM     19  H6  4G2 d   1     -38.395  26.375  22.435  0.00  0.00     0.035 H 
ATOM     20  H7  4G2 d   1     -38.660  28.000  23.153  0.00  0.00     0.035 H 
ATOM     21  H8  4G2 d   1     -39.514  26.571  23.826  0.00  0.00     0.035 H 
ENDBRANCH   2  18
BRANCH   1  22
ATOM     22  C12 4G2 d   1     -38.106  28.152  26.436  0.00  0.00     0.229 C 
ATOM     23  O14 4G2 d   1     -37.853  28.363  27.620  0.00  0.00    -0.643 OA
ATOM     24  O13 4G2 d   1     -39.027  28.782  25.919  0.00  0.00    -0.643 OA
ENDBRANCH   1  22
TORSDOF 3
