REMARK  3 active torsions:
REMARK  status: ('A' for Active; 'I' for Inactive)
REMARK    1  A    between atoms: C9_8  and  C12_7 
REMARK    2  A    between atoms: C7_11  and  C20_12 
REMARK    3  A    between atoms: C18_16  and  C11_15 
REMARK       I    between atoms: N3_18  and  C18_16 
ROOT
ATOM      1  C9  4FY d   1     -34.902  25.988  24.382  0.00  0.00     0.139 A 
ATOM      2  N10 4FY d   1     -35.135  26.823  25.373  0.00  0.00    -0.222 NA
ATOM      3  N8  4FY d   1     -35.855  26.100  23.425  0.00  0.00    -0.333 N 
ATOM      4  C7  4FY d   1     -36.716  27.009  23.863  0.00  0.00     0.146 A 
ATOM      5  C11 4FY d   1     -36.263  27.462  25.097  0.00  0.00     0.160 A 
ATOM      6  H   4FY d   1     -35.901  25.588  22.544  0.00  0.00     0.168 HD
ENDROOT
BRANCH   5   7
ATOM      7  C18 4FY d   1     -36.831  28.509  26.089  0.00  0.00     0.275 C 
ATOM      8  O19 4FY d   1     -37.941  28.375  26.622  0.00  0.00    -0.266 OA
ATOM      9  N3  4FY d   1     -36.026  29.551  26.414  0.00  0.00    -0.343 N 
ATOM     10  C1  4FY d   1     -34.637  29.687  25.862  0.00  0.00     0.018 C 
ATOM     11  C5  4FY d   1     -36.396  30.515  27.470  0.00  0.00     0.018 C 
ATOM     12  C2  4FY d   1     -33.623  29.483  27.016  0.00  0.00     0.034 C 
ATOM     13  H   4FY d   1     -34.471  28.939  25.087  0.00  0.00     0.067 H 
ATOM     14  H   4FY d   1     -34.507  30.677  25.425  0.00  0.00     0.067 H 
ATOM     15  O4  4FY d   1     -34.368  29.222  28.278  0.00  0.00    -0.388 OA
ATOM     16  H   4FY d   1     -33.011  30.378  27.130  0.00  0.00     0.076 H 
ATOM     17  H   4FY d   1     -32.976  28.636  26.790  0.00  0.00     0.076 H 
ATOM     18  C6  4FY d   1     -35.369  30.290  28.616  0.00  0.00     0.034 C 
ATOM     19  H   4FY d   1     -35.916  29.974  29.505  0.00  0.00     0.076 H 
ATOM     20  H   4FY d   1     -34.829  31.223  28.776  0.00  0.00     0.076 H 
ATOM     21  H   4FY d   1     -37.419  30.358  27.814  0.00  0.00     0.067 H 
ATOM     22  H   4FY d   1     -36.366  31.541  27.103  0.00  0.00     0.067 H 
ENDBRANCH   5   7
BRANCH   4  23
ATOM     23  C20 4FY d   1     -37.946  27.471  23.090  0.00  0.00     0.229 C 
ATOM     24  O22 4FY d   1     -37.982  27.257  21.875  0.00  0.00    -0.643 OA
ATOM     25  O21 4FY d   1     -38.835  28.145  23.623  0.00  0.00    -0.643 OA
ENDBRANCH   4  23
BRANCH   1  26
ATOM     26  C12 4FY d   1     -33.742  25.236  24.362  0.00  0.00     0.010 A 
ATOM     27  C13 4FY d   1     -33.144  24.996  23.116  0.00  0.00    -0.069 A 
ATOM     28  C14 4FY d   1     -31.950  24.285  23.009  0.00  0.00    -0.082 A 
ATOM     29  H   4FY d   1     -33.623  25.373  22.213  0.00  0.00     0.085 H 
ATOM     30  C15 4FY d   1     -31.341  23.865  24.177  0.00  0.00    -0.083 A 
ATOM     31  H   4FY d   1     -31.510  24.067  22.036  0.00  0.00     0.083 H 
ATOM     32  C16 4FY d   1     -31.919  24.153  25.423  0.00  0.00    -0.082 A 
ATOM     33  H   4FY d   1     -30.406  23.307  24.130  0.00  0.00     0.083 H 
ATOM     34  C17 4FY d   1     -33.121  24.843  25.533  0.00  0.00    -0.069 A 
ATOM     35  H   4FY d   1     -31.411  23.826  26.330  0.00  0.00     0.083 H 
ATOM     36  H   4FY d   1     -33.558  25.066  26.506  0.00  0.00     0.085 H 
ENDBRANCH   1  26
TORSDOF 3
