REMARK  6 active torsions:
REMARK  status: ('A' for Active; 'I' for Inactive)
REMARK    1  A    between atoms: C9_6  and  C5_7 
REMARK    2  A    between atoms: C3_10  and  C15_11 
REMARK    3  A    between atoms: C2_14  and  C6_15 
REMARK       I    between atoms: C6_15  and  N7_17 
REMARK    4  A    between atoms: N7_17  and  C22_18 
REMARK    5  A    between atoms: N7_17  and  C18_19 
REMARK    6  A    between atoms: C18_19  and  C19_20 
REMARK       I    between atoms: C19_20  and  N20_22 
ROOT
ATOM      1  C5  4G5 d   1      39.040 -15.700  11.342  0.00  0.00     0.139 A 
ATOM      2  N1  4G5 d   1      39.608 -14.995  12.324  0.00  0.00    -0.222 NA
ATOM      3  N4  4G5 d   1      38.675 -14.852  10.340  0.00  0.00    -0.333 N 
ATOM      4  C3  4G5 d   1      39.011 -13.604  10.733  0.00  0.00     0.146 A 
ATOM      5  C2  4G5 d   1      39.614 -13.711  11.993  0.00  0.00     0.160 A 
ATOM      6  H6  4G5 d   1      38.227 -15.113   9.450  0.00  0.00     0.168 HD
ENDROOT
BRANCH   5   7
ATOM      7  C6  4G5 d   1      40.225 -12.680  12.980  0.00  0.00     0.275 C 
ATOM      8  O8  4G5 d   1      39.483 -11.921  13.597  0.00  0.00    -0.266 OA
ATOM      9  N7  4G5 d   1      41.565 -12.772  13.215  0.00  0.00    -0.342 N 
BRANCH   9  10
ATOM     10  C22 4G5 d   1      42.373 -13.743  12.411  0.00  0.00    -0.015 C 
ATOM     11  H7  4G5 d   1      43.426 -13.691  12.724  0.00  0.00     0.056 H 
ATOM     12  H8  4G5 d   1      42.295 -13.490  11.344  0.00  0.00     0.056 H 
ATOM     13  H9  4G5 d   1      41.992 -14.762  12.575  0.00  0.00     0.056 H 
ENDBRANCH   9  10
BRANCH   9  14
ATOM     14  C18 4G5 d   1      42.200 -11.907  14.240  0.00  0.00     0.071 C 
ATOM     15  H10 4G5 d   1      41.476 -11.152  14.580  0.00  0.00     0.078 H 
ATOM     16  H11 4G5 d   1      43.075 -11.405  13.802  0.00  0.00     0.078 H 
BRANCH  14  17
ATOM     17  C19 4G5 d   1      42.660 -12.783  15.470  0.00  0.00     0.233 C 
ATOM     18  O21 4G5 d   1      42.021 -13.766  15.886  0.00  0.00    -0.272 OA
ATOM     19  N20 4G5 d   1      43.808 -12.378  16.035  0.00  0.00    -0.369 N 
ATOM     20  H12 4G5 d   1      44.179 -12.871  16.822  0.00  0.00     0.159 HD
ATOM     21  H13 4G5 d   1      44.292 -11.583  15.669  0.00  0.00     0.159 HD
ENDBRANCH  14  17
ENDBRANCH   9  14
ENDBRANCH   5   7
BRANCH   4  22
ATOM     22  C15 4G5 d   1      38.802 -12.297   9.931  0.00  0.00     0.229 C 
ATOM     23  O17 4G5 d   1      38.533 -12.328   8.711  0.00  0.00    -0.643 OA
ATOM     24  O16 4G5 d   1      38.985 -11.215  10.515  0.00  0.00    -0.643 OA
ENDBRANCH   4  22
BRANCH   1  25
ATOM     25  C9  4G5 d   1      38.955 -17.092  11.420  0.00  0.00     0.010 A 
ATOM     26  C10 4G5 d   1      39.011 -17.867  10.252  0.00  0.00    -0.069 A 
ATOM     27  C11 4G5 d   1      38.963 -19.259  10.340  0.00  0.00    -0.082 A 
ATOM     28  H1  4G5 d   1      39.091 -17.386   9.284  0.00  0.00     0.085 H 
ATOM     29  C12 4G5 d   1      38.908 -19.896  11.587  0.00  0.00    -0.083 A 
ATOM     30  H2  4G5 d   1      38.968 -19.854   9.434  0.00  0.00     0.083 H 
ATOM     31  C13 4G5 d   1      38.901 -19.120  12.748  0.00  0.00    -0.082 A 
ATOM     32  H3  4G5 d   1      38.871 -20.978  11.650  0.00  0.00     0.083 H 
ATOM     33  C14 4G5 d   1      38.931 -17.718  12.666  0.00  0.00    -0.069 A 
ATOM     34  H4  4G5 d   1      38.872 -19.602  13.718  0.00  0.00     0.083 H 
ATOM     35  H5  4G5 d   1      38.935 -17.122  13.572  0.00  0.00     0.085 H 
ENDBRANCH   1  25
TORSDOF 6
