REMARK  6 active torsions:
REMARK  status: ('A' for Active; 'I' for Inactive)
REMARK    1  A    between atoms: C4_7  and  C7_8 
REMARK    2  A    between atoms: C10_11  and  C13_12 
REMARK    3  A    between atoms: C9_15  and  C16_16 
REMARK       I    between atoms: C16_16  and  N17_18 
REMARK    4  A    between atoms: N17_18  and  C21_19 
REMARK    5  A    between atoms: N17_18  and  C19_20 
REMARK    6  A    between atoms: C19_20  and  C20_21 
ROOT
ATOM      1  C16 4GE d   1      40.311 -12.747  13.135  0.00  0.00     0.275 C 
ATOM      2  O18 4GE d   1      39.550 -12.073  13.825  0.00  0.00    -0.266 OA
ATOM      3  N17 4GE d   1      41.654 -12.715  13.311  0.00  0.00    -0.347 N 
ENDROOT
BRANCH   1   4
ATOM      4  C9  4GE d   1      39.739 -13.814  12.138  0.00  0.00     0.160 A 
ATOM      5  N8  4GE d   1      39.783 -15.115  12.482  0.00  0.00    -0.222 NA
ATOM      6  C7  4GE d   1      39.248 -15.842  11.488  0.00  0.00     0.139 A 
ATOM      7  N11 4GE d   1      38.834 -14.997  10.489  0.00  0.00    -0.333 N 
ATOM      8  C10 4GE d   1      39.144 -13.738  10.864  0.00  0.00     0.146 A 
ATOM      9  H5  4GE d   1      38.370 -15.274   9.612  0.00  0.00     0.168 HD
BRANCH   6  10
ATOM     10  C4  4GE d   1      39.176 -17.224  11.563  0.00  0.00     0.011 A 
ATOM     11  C5  4GE d   1      39.407 -17.847  12.785  0.00  0.00    -0.048 A 
ATOM     12  C6  4GE d   1      39.347 -19.238  12.910  0.00  0.00     0.035 A 
ATOM     13  H1  4GE d   1      39.638 -17.243  13.655  0.00  0.00     0.087 H 
ATOM     14 CL1  4GE d   1      39.656 -20.007  14.454  0.00  0.00    -0.084 Cl
ATOM     15  C1  4GE d   1      39.091 -20.012  11.775  0.00  0.00    -0.062 A 
ATOM     16  C2  4GE d   1      38.892 -19.397  10.526  0.00  0.00    -0.080 A 
ATOM     17  H2  4GE d   1      39.046 -21.092  11.858  0.00  0.00     0.086 H 
ATOM     18  C3  4GE d   1      38.951 -18.002  10.438  0.00  0.00    -0.069 A 
ATOM     19  H3  4GE d   1      38.696 -19.995   9.644  0.00  0.00     0.083 H 
ATOM     20  H4  4GE d   1      38.819 -17.522   9.475  0.00  0.00     0.085 H 
ENDBRANCH   6  10
BRANCH   8  21
ATOM     21  C13 4GE d   1      38.866 -12.465   9.988  0.00  0.00     0.229 C 
ATOM     22  O15 4GE d   1      38.426 -12.599   8.830  0.00  0.00    -0.643 OA
ATOM     23  O14 4GE d   1      39.070 -11.320  10.450  0.00  0.00    -0.643 OA
ENDBRANCH   8  21
ENDBRANCH   1   4
BRANCH   3  24
ATOM     24  C21 4GE d   1      42.521 -13.596  12.453  0.00  0.00    -0.015 C 
ATOM     25  H6  4GE d   1      43.577 -13.447  12.724  0.00  0.00     0.056 H 
ATOM     26  H7  4GE d   1      42.374 -13.336  11.394  0.00  0.00     0.056 H 
ATOM     27  H8  4GE d   1      42.246 -14.649  12.613  0.00  0.00     0.056 H 
ENDBRANCH   3  24
BRANCH   3  28
ATOM     28  C19 4GE d   1      42.228 -11.812  14.356  0.00  0.00     0.021 C 
ATOM     29  H9  4GE d   1      41.423 -11.250  14.852  0.00  0.00     0.071 H 
ATOM     30  H10 4GE d   1      42.939 -11.108  13.898  0.00  0.00     0.071 H 
BRANCH  28  31
ATOM     31  C20 4GE d   1      42.965 -12.719  15.392  0.00  0.00    -0.040 A 
ATOM     32  C22 4GE d   1      42.270 -13.717  16.098  0.00  0.00    -0.075 A 
ATOM     33  C23 4GE d   1      42.929 -14.540  17.023  0.00  0.00    -0.082 A 
ATOM     34  H11 4GE d   1      41.209 -13.852  15.925  0.00  0.00     0.084 H 
ATOM     35  C24 4GE d   1      44.301 -14.407  17.249  0.00  0.00    -0.083 A 
ATOM     36  H12 4GE d   1      42.367 -15.289  17.569  0.00  0.00     0.083 H 
ATOM     37  C25 4GE d   1      45.013 -13.418  16.539  0.00  0.00    -0.082 A 
ATOM     38  H13 4GE d   1      44.809 -15.052  17.957  0.00  0.00     0.083 H 
ATOM     39  C26 4GE d   1      44.346 -12.582  15.617  0.00  0.00    -0.075 A 
ATOM     40  H14 4GE d   1      46.078 -13.299  16.702  0.00  0.00     0.083 H 
ATOM     41  H15 4GE d   1      44.905 -11.826  15.077  0.00  0.00     0.084 H 
ENDBRANCH  28  31
ENDBRANCH   3  28
TORSDOF 6
