REMARK  8 active torsions:
REMARK  status: ('A' for Active; 'I' for Inactive)
REMARK    1  A    between atoms: C24_9  and  C23_10 
REMARK    2  A    between atoms: C23_10  and  O22_11 
REMARK    3  A    between atoms: O22_11  and  C20_12 
REMARK    4  A    between atoms: C12_21  and  S11_22 
REMARK    5  A    between atoms: S11_22  and  N_25 
REMARK    6  A    between atoms: N_25  and  C1_26 
REMARK    7  A    between atoms: C4_29  and  C8_30 
REMARK    8  A    between atoms: C2_34  and  C7_35 
ROOT
ATOM      1  N30 051 d   1      21.662  34.452  46.659  0.00  0.00    -0.191 NA
ATOM      2  C30 051 d   1      20.570  34.434  47.045  0.00  0.00     0.099 C 
ATOM      3  C27 051 d   1      19.377  34.390  47.545  0.00  0.00     0.047 A 
ATOM      4  C26 051 d   1      18.294  34.857  46.804  0.00  0.00    -0.025 A 
ATOM      5  C25 051 d   1      17.019  34.821  47.346  0.00  0.00     0.126 A 
ATOM      6  F25 051 d   1      15.953  35.262  46.642  0.00  0.00    -0.205 F 
ATOM      7  C28 051 d   1      19.184  33.897  48.830  0.00  0.00    -0.062 A 
ATOM      8  C29 051 d   1      17.906  33.868  49.377  0.00  0.00    -0.070 A 
ATOM      9  C24 051 d   1      16.838  34.338  48.627  0.00  0.00     0.005 A 
ATOM     10  H1  051 d   1      18.448  35.248  45.805  0.00  0.00     0.090 H 
ATOM     11  H2  051 d   1      20.029  33.535  49.405  0.00  0.00     0.085 H 
ATOM     12  H3  051 d   1      17.746  33.483  50.377  0.00  0.00     0.084 H 
ENDROOT
BRANCH   9  13
ATOM     13  C23 051 d   1      15.491  34.348  49.236  0.00  0.00     0.053 C 
ATOM     14  H4  051 d   1      14.819  33.828  48.537  0.00  0.00     0.082 H 
ATOM     15  H5  051 d   1      15.186  35.401  49.323  0.00  0.00     0.082 H 
BRANCH  13  16
ATOM     16  O22 051 d   1      15.296  33.741  50.543  0.00  0.00    -0.347 OA
BRANCH  16  17
ATOM     17  C20 051 d   1      14.559  32.601  50.246  0.00  0.00     0.070 A 
ATOM     18  C21 051 d   1      13.996  32.454  48.967  0.00  0.00    -0.040 A 
ATOM     19  C15 051 d   1      13.154  31.364  48.668  0.00  0.00    -0.023 A 
ATOM     20  H6  051 d   1      14.212  33.189  48.200  0.00  0.00     0.089 H 
ATOM     21  C14 051 d   1      12.600  31.217  47.391  0.00  0.00    -0.071 A 
ATOM     22  C16 051 d   1      12.892  30.391  49.664  0.00  0.00    -0.024 A 
ATOM     23  C13 051 d   1      11.745  30.140  47.111  0.00  0.00    -0.059 A 
ATOM     24  H7  051 d   1      12.832  31.938  46.615  0.00  0.00     0.084 H 
ATOM     25  C12 051 d   1      11.491  29.156  48.077  0.00  0.00     0.080 A 
ATOM     26  H8  051 d   1      11.275  30.068  46.137  0.00  0.00     0.085 H 
ATOM     27  C17 051 d   1      12.087  29.285  49.345  0.00  0.00    -0.050 A 
ATOM     28  H11 051 d   1      11.922  28.516  50.090  0.00  0.00     0.087 H 
ATOM     29  C18 051 d   1      13.482  30.535  50.910  0.00  0.00    -0.070 A 
ATOM     30  C19 051 d   1      14.312  31.630  51.217  0.00  0.00    -0.050 A 
ATOM     31  H10 051 d   1      13.299  29.783  51.669  0.00  0.00     0.085 H 
ATOM     32  H9  051 d   1      14.756  31.718  52.202  0.00  0.00     0.087 H 
BRANCH  25  33
ATOM     33  S11 051 d   1      10.433  27.973  47.660  0.00  0.00     0.259 S 
ATOM     34  O32 051 d   1      10.527  27.551  46.255  0.00  0.00    -0.201 OA
ATOM     35  O33 051 d   1      10.478  26.876  48.656  0.00  0.00    -0.201 OA
BRANCH  33  36
ATOM     36  N   051 d   1       9.053  28.686  47.760  0.00  0.00    -0.310 N 
ATOM     37  H12 051 d   1       8.595  28.956  46.913  0.00  0.00     0.172 HD
BRANCH  36  38
ATOM     38  C1  051 d   1       8.388  28.983  49.040  0.00  0.00     0.033 C 
ATOM     39  C3  051 d   1       8.676  30.344  49.683  0.00  0.00    -0.044 C 
ATOM     40  C6  051 d   1       7.824  31.370  48.923  0.00  0.00    -0.051 C 
ATOM     41  H14 051 d   1       9.744  30.591  49.589  0.00  0.00     0.036 H 
ATOM     42  H15 051 d   1       8.396  30.329  50.746  0.00  0.00     0.036 H 
ATOM     43  C4  051 d   1       6.361  30.951  49.142  0.00  0.00     0.031 C 
ATOM     44  H16 051 d   1       8.070  31.352  47.851  0.00  0.00     0.034 H 
ATOM     45  H17 051 d   1       7.996  32.380  49.322  0.00  0.00     0.034 H 
ATOM     46  C5  051 d   1       6.034  29.555  48.577  0.00  0.00    -0.038 C 
ATOM     47  H18 051 d   1       6.198  30.902  50.229  0.00  0.00     0.056 H 
ATOM     48  C2  051 d   1       6.994  28.543  49.202  0.00  0.00     0.051 C 
ATOM     49  H19 051 d   1       6.158  29.558  47.484  0.00  0.00     0.035 H 
ATOM     50  H20 051 d   1       4.997  29.287  48.828  0.00  0.00     0.035 H 
ATOM     51  H21 051 d   1       6.789  28.563  50.283  0.00  0.00     0.059 H 
ATOM     52  H13 051 d   1       8.919  28.297  49.717  0.00  0.00     0.074 H 
BRANCH  43  53
ATOM     53  C8  051 d   1       5.435  31.990  48.596  0.00  0.00     0.177 C 
ATOM     54  O4  051 d   1       5.282  33.019  49.307  0.00  0.00    -0.648 OA
ATOM     55  O3  051 d   1       4.872  31.769  47.496  0.00  0.00    -0.648 OA
ENDBRANCH  43  53
BRANCH  48  56
ATOM     56  C7  051 d   1       6.795  27.252  48.822  0.00  0.00     0.179 C 
ATOM     57  O1  051 d   1       7.087  26.314  49.611  0.00  0.00    -0.648 OA
ATOM     58  O2  051 d   1       6.351  27.052  47.688  0.00  0.00    -0.648 OA
ENDBRANCH  48  56
ENDBRANCH  36  38
ENDBRANCH  33  36
ENDBRANCH  25  33
ENDBRANCH  16  17
ENDBRANCH  13  16
ENDBRANCH   9  13
TORSDOF 8
