REMARK WARNING: 32 MAX_TORS EXCEEDED!!!
REMARK  33 active torsions:
REMARK  status: ('A' for Active; 'I' for Inactive)
REMARK    1  A    between atoms: C1A_1  and  C2A_2 
REMARK       I    between atoms: C1A_1  and  N_4 
REMARK    2  A    between atoms: N_4  and  CA_5 
REMARK    3  A    between atoms: CA_5  and  C_6 
REMARK    4  A    between atoms: CA_5  and  CB_8 
REMARK       I    between atoms: C_6  and  N_10 
REMARK    5  A    between atoms: CB_8  and  OG_9 
REMARK    6  A    between atoms: N_10  and  CA_11 
REMARK    7  A    between atoms: CA_11  and  C_12 
REMARK    8  A    between atoms: CA_11  and  CB_14 
REMARK       I    between atoms: C_12  and  N_21 
REMARK    9  A    between atoms: CB_14  and  CG_15 
REMARK   10  A    between atoms: CG_15  and  CD_16 
REMARK   11  A    between atoms: CD_16  and  NE_17 
REMARK       I    between atoms: NE_17  and  CZ_18 
REMARK       I    between atoms: CZ_18  and  NH1_19 
REMARK   12  A    between atoms: N_21  and  CA_22 
REMARK   13  A    between atoms: CA_22  and  C_23 
REMARK       I    between atoms: C_23  and  N_25 
REMARK   14  A    between atoms: N_25  and  CA_26 
REMARK   15  A    between atoms: CA_26  and  C_27 
REMARK   16  A    between atoms: CA_26  and  CB_29 
REMARK       I    between atoms: C_27  and  N_32 
REMARK   17  A    between atoms: CB_29  and  OG1_30 
REMARK   18  A    between atoms: CB_29  and  CG2_31 
REMARK   19  A    between atoms: N_32  and  CA_33 
REMARK   20  A    between atoms: CA_33  and  C_34 
REMARK   21  A    between atoms: CA_33  and  CB_36 
REMARK       I    between atoms: C_34  and  N_41 
REMARK   22  A    between atoms: CB_36  and  CG_37 
REMARK   23  A    between atoms: CG_37  and  CD_38 
REMARK       I    between atoms: CD_38  and  NE2_40 
REMARK   24  A    between atoms: N_41  and  CA_42 
REMARK   25  A    between atoms: CA_42  and  C_43 
REMARK   26  A    between atoms: CA_42  and  CB_45 
REMARK       I    between atoms: C_43  and  N_48 
REMARK   27  A    between atoms: CB_45  and  OG1_46 
REMARK   28  A    between atoms: CB_45  and  CG2_47 
REMARK   29  A    between atoms: N_48  and  CA_49 
REMARK   30  A    between atoms: CA_49  and  C_50 
REMARK   31  A    between atoms: CA_49  and  CB_52 
REMARK   32  A    between atoms: CB_52  and  CG_53 
REMARK   33  A    between atoms: CG_53  and  CD_54 
ROOT
ATOM      1  CA  THR d   1      29.806  33.180  21.329  0.00  0.00     0.113 C 
ATOM      2  H   THR d   1      29.571  32.217  20.876  0.00  0.00     0.091 H 
ENDROOT
BRANCH   1   3
ATOM      3  N   THR d   1      31.063  33.649  20.755  0.00  0.00    -0.344 N 
ATOM      4  C   GLY d   1      31.893  32.858  20.114  0.00  0.00     0.236 C 
ATOM      5  O   GLY d   1      31.735  31.644  19.955  0.00  0.00    -0.272 OA
ATOM      6  H   THR d   1      31.308  34.634  20.856  0.00  0.00     0.163 HD
BRANCH   4   7
ATOM      7  CA  GLY d   1      33.091  33.568  19.507  0.00  0.00     0.069 C 
ATOM      8  H   GLY d   1      32.765  34.045  18.583  0.00  0.00     0.078 H 
ATOM      9  H   GLY d   1      33.464  34.284  20.240  0.00  0.00     0.078 H 
BRANCH   7  10
ATOM     10  N   GLY d   1      34.152  32.676  19.188  0.00  0.00    -0.351 N 
ATOM     11  C   ARG d   1      35.386  32.845  19.628  0.00  0.00     0.240 C 
ATOM     12  O   ARG d   1      35.740  33.722  20.415  0.00  0.00    -0.271 OA
ATOM     13  H   GLY d   1      33.951  31.871  18.594  0.00  0.00     0.163 HD
BRANCH  11  14
ATOM     14  CA  ARG d   1      36.379  31.904  19.001  0.00  0.00     0.089 C 
ATOM     15  H   ARG d   1      36.203  31.854  17.927  0.00  0.00     0.087 H 
BRANCH  14  16
ATOM     16  N   ARG d   1      37.742  32.396  19.222  0.00  0.00    -0.346 N 
ATOM     17  C   SAC d   1      38.752  31.937  18.465  0.00  0.00     0.243 C 
ATOM     18  O   SAC d   1      38.605  31.098  17.560  0.00  0.00    -0.271 OA
ATOM     19  H   ARG d   1      37.923  33.087  19.950  0.00  0.00     0.163 HD
BRANCH  17  20
ATOM     20  CA  SAC d   1      40.063  32.540  18.777  0.00  0.00     0.109 C 
ATOM     21  H   SAC d   1      39.973  32.988  19.767  0.00  0.00     0.090 H 
BRANCH  20  22
ATOM     22  N   SAC d   1      41.149  31.534  18.933  0.00  0.00    -0.346 N 
ATOM     23  C1A SAC d   1      41.448  31.037  20.211  0.00  0.00     0.214 C 
ATOM     24  OAC SAC d   1      40.777  31.321  21.249  0.00  0.00    -0.274 OA
ATOM     25  H   SAC d   1      41.671  31.209  18.119  0.00  0.00     0.163 HD
BRANCH  23  26
ATOM     26  C2A SAC d   1      42.337  29.828  20.303  0.00  0.00    -0.003 C 
ATOM     27  H   SAC d   1      43.065  29.974  21.101  0.00  0.00     0.040 H 
ATOM     28  H   SAC d   1      41.731  28.948  20.519  0.00  0.00     0.040 H 
ATOM     29  H   SAC d   1      42.858  29.688  19.355  0.00  0.00     0.040 H 
ENDBRANCH  23  26
ENDBRANCH  20  22
BRANCH  20  30
ATOM     30  CB  SAC d   1      40.404  33.698  17.844  0.00  0.00     0.044 C 
ATOM     31  H   SAC d   1      39.620  34.452  17.912  0.00  0.00     0.077 H 
ATOM     32  H   SAC d   1      40.481  33.322  16.824  0.00  0.00     0.077 H 
BRANCH  30  33
ATOM     33  OG  SAC d   1      41.634  34.280  18.213  0.00  0.00    -0.398 OA
ATOM     34  H   SAC d   1      41.574  34.610  19.113  0.00  0.00     0.209 HD
ENDBRANCH  30  33
ENDBRANCH  20  30
ENDBRANCH  17  20
ENDBRANCH  14  16
BRANCH  14  35
ATOM     35  CB  ARG d   1      36.208  30.531  19.575  0.00  0.00    -0.036 C 
ATOM     36  H   ARG d   1      37.013  29.915  19.174  0.00  0.00     0.036 H 
ATOM     37  H   ARG d   1      35.206  30.196  19.307  0.00  0.00     0.036 H 
BRANCH  35  38
ATOM     38  CG  ARG d   1      36.307  30.466  21.050  0.00  0.00    -0.048 C 
ATOM     39  H   ARG d   1      35.355  30.829  21.438  0.00  0.00     0.035 H 
ATOM     40  H   ARG d   1      37.186  31.049  21.325  0.00  0.00     0.035 H 
BRANCH  38  41
ATOM     41  CD  ARG d   1      36.515  29.047  21.655  0.00  0.00     0.009 C 
ATOM     42  H   ARG d   1      36.649  29.131  22.733  0.00  0.00     0.064 H 
ATOM     43  H   ARG d   1      37.398  28.590  21.208  0.00  0.00     0.064 H 
BRANCH  41  44
ATOM     44  NE  ARG d   1      35.363  28.227  21.380  0.00  0.00    -0.227 N 
ATOM     45  CZ  ARG d   1      35.259  26.896  21.476  0.00  0.00     0.665 C 
ATOM     46  NH1 ARG d   1      36.261  26.108  21.829  0.00  0.00    -0.235 N 
ATOM     47  NH2 ARG d   1      34.115  26.362  21.159  0.00  0.00    -0.235 N 
ATOM     48  H   ARG d   1      37.173  26.509  22.045  0.00  0.00     0.174 HD
ATOM     49  H   ARG d   1      36.121  25.099  21.885  0.00  0.00     0.174 HD
ATOM     50  H   ARG d   1      33.343  26.954  20.852  0.00  0.00     0.174 HD
ATOM     51  H   ARG d   1      33.990  25.351  21.217  0.00  0.00     0.174 HD
ATOM     52  H   ARG d   1      34.524  28.721  21.075  0.00  0.00     0.177 HD
ENDBRANCH  41  44
ENDBRANCH  38  41
ENDBRANCH  35  38
ENDBRANCH  14  35
ENDBRANCH  11  14
ENDBRANCH   7  10
ENDBRANCH   4   7
ENDBRANCH   1   3
BRANCH   1  53
ATOM     53  C   THR d   1      28.719  34.167  21.030  0.00  0.00     0.243 C 
ATOM     54  O   THR d   1      29.006  35.353  20.813  0.00  0.00    -0.271 OA
ATOM     55  N   GLN d   1      27.472  33.707  21.016  0.00  0.00    -0.346 N 
ATOM     56  H   GLN d   1      27.334  32.703  21.131  0.00  0.00     0.163 HD
BRANCH  55  57
ATOM     57  CA  GLN d   1      26.301  34.533  20.849  0.00  0.00     0.090 C 
ATOM     58  H   GLN d   1      26.520  35.554  21.162  0.00  0.00     0.087 H 
BRANCH  57  59
ATOM     59  C   GLN d   1      25.172  33.999  21.722  0.00  0.00     0.241 C 
ATOM     60  O   GLN d   1      24.759  32.866  21.550  0.00  0.00    -0.271 OA
ATOM     61  N   THR d   1      24.571  34.848  22.584  0.00  0.00    -0.344 N 
ATOM     62  H   THR d   1      24.926  35.800  22.672  0.00  0.00     0.163 HD
BRANCH  61  63
ATOM     63  CA  THR d   1      23.434  34.440  23.388  0.00  0.00     0.113 C 
ATOM     64  H   THR d   1      23.681  33.528  23.931  0.00  0.00     0.091 H 
BRANCH  63  65
ATOM     65  C   THR d   1      22.269  34.194  22.487  0.00  0.00     0.243 C 
ATOM     66  O   THR d   1      22.150  34.814  21.404  0.00  0.00    -0.271 OA
ATOM     67  N   GLU d   1      21.417  33.283  22.944  0.00  0.00    -0.345 N 
ATOM     68  H   GLU d   1      21.676  32.763  23.782  0.00  0.00     0.163 HD
BRANCH  67  69
ATOM     69  CA  GLU d   1      20.141  32.982  22.324  0.00  0.00     0.097 C 
ATOM     70  H   GLU d   1      20.283  32.859  21.250  0.00  0.00     0.089 H 
BRANCH  69  71
ATOM     71  C   GLU d   1      19.107  34.126  22.438  0.00  0.00     0.196 C 
ATOM     72  O   GLU d   1      18.321  34.384  21.511  0.00  0.00    -0.646 OA
ATOM     73  OXT GLU d   1      19.127  34.840  23.478  0.00  0.00    -0.646 OA
ENDBRANCH  69  71
BRANCH  69  74
ATOM     74  CB  GLU d   1      19.614  31.651  22.996  0.00  0.00    -0.028 C 
ATOM     75  H   GLU d   1      18.610  31.425  22.638  0.00  0.00     0.037 H 
ATOM     76  H   GLU d   1      19.575  31.770  24.079  0.00  0.00     0.037 H 
BRANCH  74  77
ATOM     77  CG  GLU d   1      20.562  30.522  22.632  0.00  0.00     0.018 C 
ATOM     78  H   GLU d   1      21.546  30.859  22.959  0.00  0.00     0.049 H 
ATOM     79  H   GLU d   1      20.400  30.345  21.569  0.00  0.00     0.049 H 
BRANCH  77  80
ATOM     80  CD  GLU d   1      20.364  29.156  23.300  0.00  0.00     0.172 C 
ATOM     81  OE1 GLU d   1      19.519  28.953  24.246  0.00  0.00    -0.648 OA
ATOM     82  OE2 GLU d   1      21.141  28.240  22.835  0.00  0.00    -0.648 OA
ENDBRANCH  77  80
ENDBRANCH  74  77
ENDBRANCH  69  74
ENDBRANCH  67  69
ENDBRANCH  63  65
BRANCH  63  83
ATOM     83  CB  THR d   1      23.081  35.543  24.417  0.00  0.00     0.060 C 
ATOM     84  H   THR d   1      22.125  35.277  24.868  0.00  0.00     0.086 H 
BRANCH  83  85
ATOM     85  OG1 THR d   1      22.953  36.788  23.768  0.00  0.00    -0.393 OA
ATOM     86  H   THR d   1      22.255  36.735  23.111  0.00  0.00     0.210 HD
ENDBRANCH  83  85
BRANCH  83  87
ATOM     87  CG2 THR d   1      24.056  35.618  25.517  0.00  0.00    -0.050 C 
ATOM     88  H   THR d   1      24.083  34.663  26.042  0.00  0.00     0.031 H 
ATOM     89  H   THR d   1      25.043  35.839  25.111  0.00  0.00     0.031 H 
ATOM     90  H   THR d   1      23.761  36.407  26.209  0.00  0.00     0.031 H 
ENDBRANCH  83  87
ENDBRANCH  63  83
ENDBRANCH  61  63
ENDBRANCH  57  59
BRANCH  57  91
ATOM     91  CB  GLN d   1      25.899  34.569  19.380  0.00  0.00    -0.030 C 
ATOM     92  H   GLN d   1      25.672  33.548  19.075  0.00  0.00     0.037 H 
ATOM     93  H   GLN d   1      26.725  35.011  18.822  0.00  0.00     0.037 H 
BRANCH  91  94
ATOM     94  CG  GLN d   1      24.662  35.414  19.118  0.00  0.00     0.011 C 
ATOM     95  H   GLN d   1      23.845  34.996  19.705  0.00  0.00     0.047 H 
ATOM     96  H   GLN d   1      24.470  35.397  18.045  0.00  0.00     0.047 H 
BRANCH  94  97
ATOM     97  CD  GLN d   1      24.831  36.847  19.528  0.00  0.00     0.215 C 
ATOM     98  OE1 GLN d   1      25.749  37.520  19.047  0.00  0.00    -0.274 OA
ATOM     99  NE2 GLN d   1      24.001  37.343  20.471  0.00  0.00    -0.370 N 
ATOM    100  H   GLN d   1      24.123  38.299  20.806  0.00  0.00     0.159 HD
ATOM    101  H   GLN d   1      23.253  36.762  20.848  0.00  0.00     0.159 HD
ENDBRANCH  94  97
ENDBRANCH  91  94
ENDBRANCH  57  91
ENDBRANCH  55  57
ENDBRANCH   1  53
BRANCH   1 102
ATOM    102  CB  THR d   1      29.915  32.960  22.887  0.00  0.00     0.060 C 
ATOM    103  H   THR d   1      29.010  32.451  23.217  0.00  0.00     0.086 H 
BRANCH 102 104
ATOM    104  OG1 THR d   1      30.043  34.255  23.547  0.00  0.00    -0.393 OA
ATOM    105  H   THR d   1      30.832  34.699  23.228  0.00  0.00     0.210 HD
ENDBRANCH 102 104
BRANCH 102 106
ATOM    106  CG2 THR d   1      31.096  32.080  23.260  0.00  0.00    -0.050 C 
ATOM    107  H   THR d   1      30.985  31.105  22.786  0.00  0.00     0.031 H 
ATOM    108  H   THR d   1      32.019  32.548  22.918  0.00  0.00     0.031 H 
ATOM    109  H   THR d   1      31.129  31.958  24.343  0.00  0.00     0.031 H 
ENDBRANCH 102 106
ENDBRANCH   1 102
TORSDOF 33
