REMARK  9 active torsions:
REMARK  status: ('A' for Active; 'I' for Inactive)
REMARK    1  A    between atoms: C1_1  and  N9_9 
REMARK    2  A    between atoms: C7_7  and  C25_25 
REMARK       I    between atoms: N9_9  and  C10_10 
REMARK    3  A    between atoms: C10_10  and  C11_11 
REMARK    4  A    between atoms: C15_15  and  N18_18 
REMARK    5  A    between atoms: N21_21  and  C24_24 
REMARK       I    between atoms: C25_25  and  N27_27 
REMARK    6  A    between atoms: N27_27  and  C28_28 
REMARK    7  A    between atoms: C28_28  and  C29_29 
REMARK    8  A    between atoms: C28_28  and  C30_30 
REMARK    9  A    between atoms: C30_30  and  C36_36 
ROOT
ATOM      1  C1  400 d   1       3.747  31.647   7.932  0.00  0.00     0.170 A 
ATOM      2  N2  400 d   1       3.563  31.950   9.242  0.00  0.00    -0.155 NA
ATOM      3  N3  400 d   1       4.381  31.243  10.000  0.00  0.00    -0.275 N 
ATOM      4  C4  400 d   1       4.755  30.678   7.885  0.00  0.00     0.081 A 
ATOM      5  C5  400 d   1       5.137  30.446   9.194  0.00  0.00     0.072 A 
ATOM      6  C6  400 d   1       6.165  29.503   9.318  0.00  0.00    -0.032 A 
ATOM      7  C7  400 d   1       6.571  29.016   8.049  0.00  0.00     0.075 A 
ATOM      8  S8  400 d   1       5.642  29.720   6.727  0.00  0.00    -0.079 SA
ATOM      9  H   400 d   1       4.437  31.286  11.018  0.00  0.00     0.189 HD
ATOM     10  H   400 d   1       6.597  29.184  10.267  0.00  0.00     0.089 H 
ENDROOT
BRANCH   1  11
ATOM     11  N9  400 d   1       3.009  32.269   7.000  0.00  0.00    -0.305 N 
ATOM     12  C10 400 d   1       3.183  32.386   5.641  0.00  0.00     0.257 C 
ATOM     13  O12 400 d   1       3.906  31.514   5.041  0.00  0.00    -0.267 OA
ATOM     14  H   400 d   1       2.176  32.735   7.361  0.00  0.00     0.171 HD
BRANCH  12  15
ATOM     15  C11 400 d   1       2.554  33.451   4.855  0.00  0.00     0.032 A 
ATOM     16  C13 400 d   1       1.611  34.390   5.417  0.00  0.00    -0.066 A 
ATOM     17  C14 400 d   1       1.024  35.408   4.620  0.00  0.00    -0.056 A 
ATOM     18  H   400 d   1       1.345  34.316   6.471  0.00  0.00     0.085 H 
ATOM     19  C15 400 d   1       1.332  35.562   3.199  0.00  0.00     0.030 A 
ATOM     20  H   400 d   1       0.319  36.099   5.083  0.00  0.00     0.086 H 
ATOM     21  C16 400 d   1       2.267  34.622   2.643  0.00  0.00    -0.056 A 
ATOM     22  C17 400 d   1       2.855  33.605   3.441  0.00  0.00    -0.066 A 
ATOM     23  H   400 d   1       2.530  34.691   1.587  0.00  0.00     0.086 H 
ATOM     24  H   400 d   1       3.558  32.914   2.976  0.00  0.00     0.085 H 
BRANCH  19  25
ATOM     25  N18 400 d   1       0.751  36.581   2.435  0.00  0.00    -0.378 N 
ATOM     26  C19 400 d   1      -0.159  36.302   1.254  0.00  0.00     0.020 C 
ATOM     27  C20 400 d   1      -0.035  37.364   0.085  0.00  0.00     0.127 C 
ATOM     28  H   400 d   1      -1.185  36.339   1.619  0.00  0.00     0.066 H 
ATOM     29  H   400 d   1       0.128  35.334   0.845  0.00  0.00     0.066 H 
ATOM     30  N21 400 d   1       0.044  38.780   0.677  0.00  0.00     0.087 N 
ATOM     31  H   400 d   1      -0.909  37.292  -0.563  0.00  0.00     0.082 H 
ATOM     32  H   400 d   1       0.868  37.163  -0.491  0.00  0.00     0.082 H 
ATOM     33  C22 400 d   1       1.247  38.878   1.589  0.00  0.00     0.127 C 
ATOM     34  C23 400 d   1       0.974  37.995   2.821  0.00  0.00     0.020 C 
ATOM     35  H   400 d   1       1.410  39.912   1.892  0.00  0.00     0.082 H 
ATOM     36  H   400 d   1       2.144  38.539   1.071  0.00  0.00     0.082 H 
ATOM     37  H   400 d   1       1.842  38.041   3.479  0.00  0.00     0.066 H 
ATOM     38  H   400 d   1       0.077  38.363   3.319  0.00  0.00     0.066 H 
BRANCH  30  39
ATOM     39  C24 400 d   1       0.098  39.848  -0.394  0.00  0.00     0.095 C 
ATOM     40  H   400 d   1       0.979  39.692  -1.017  0.00  0.00     0.071 H 
ATOM     41  H   400 d   1      -0.799  39.789  -1.010  0.00  0.00     0.071 H 
ATOM     42  H   400 d   1       0.153  40.830   0.076  0.00  0.00     0.071 H 
ENDBRANCH  30  39
ENDBRANCH  19  25
ENDBRANCH  12  15
ENDBRANCH   1  11
BRANCH   7  43
ATOM     43  C25 400 d   1       7.638  28.072   7.822  0.00  0.00     0.259 C 
ATOM     44  O26 400 d   1       8.164  27.453   8.784  0.00  0.00    -0.267 OA
ATOM     45  N27 400 d   1       8.138  27.858   6.582  0.00  0.00    -0.348 N 
ATOM     46  H   400 d   1       7.662  28.323   5.809  0.00  0.00     0.163 HD
BRANCH  45  47
ATOM     47  C28 400 d   1       9.277  27.038   6.243  0.00  0.00     0.037 C 
ATOM     48  H   400 d   1       9.931  26.819   7.087  0.00  0.00     0.080 H 
BRANCH  47  49
ATOM     49  C29 400 d   1       8.750  25.708   5.753  0.00  0.00    -0.035 A 
ATOM     50  C31 400 d   1       7.512  25.607   4.957  0.00  0.00    -0.075 A 
ATOM     51  C32 400 d   1       7.002  24.329   4.499  0.00  0.00    -0.082 A 
ATOM     52  H   400 d   1       6.966  26.517   4.707  0.00  0.00     0.084 H 
ATOM     53  C33 400 d   1       7.721  23.128   4.831  0.00  0.00    -0.083 A 
ATOM     54  H   400 d   1       6.086  24.279   3.911  0.00  0.00     0.083 H 
ATOM     55  C34 400 d   1       8.946  23.205   5.615  0.00  0.00    -0.082 A 
ATOM     56  H   400 d   1       7.349  22.160   4.496  0.00  0.00     0.083 H 
ATOM     57  C35 400 d   1       9.455  24.483   6.070  0.00  0.00    -0.075 A 
ATOM     58  H   400 d   1       9.486  22.291   5.862  0.00  0.00     0.083 H 
ATOM     59  H   400 d   1      10.374  24.523   6.654  0.00  0.00     0.084 H 
ENDBRANCH  47  49
BRANCH  47  60
ATOM     60  C30 400 d   1      10.146  27.823   5.222  0.00  0.00    -0.045 C 
ATOM     61  H   400 d   1       9.471  28.321   4.526  0.00  0.00     0.035 H 
ATOM     62  H   400 d   1      10.811  27.110   4.736  0.00  0.00     0.035 H 
BRANCH  60  63
ATOM     63  C36 400 d   1      11.032  28.919   5.888  0.00  0.00    -0.074 C 
ATOM     64  H   400 d   1      10.394  29.638   6.401  0.00  0.00     0.027 H 
ATOM     65  H   400 d   1      11.706  28.453   6.606  0.00  0.00     0.027 H 
ATOM     66  H   400 d   1      11.614  29.430   5.121  0.00  0.00     0.027 H 
ENDBRANCH  60  63
ENDBRANCH  47  60
ENDBRANCH  45  47
ENDBRANCH   7  43
TORSDOF 9
