REMARK WARNING: 32 MAX_TORS EXCEEDED!!!
REMARK  51 active torsions:
REMARK  status: ('A' for Active; 'I' for Inactive)
REMARK    1  A    between atoms: N_1  and  CA_2 
REMARK    2  A    between atoms: CA_2  and  C_3 
REMARK    3  A    between atoms: CA_2  and  CB_5 
REMARK       I    between atoms: C_3  and  N_6 
REMARK    4  A    between atoms: CA_7  and  C_8 
REMARK       I    between atoms: C_8  and  N_13 
REMARK    5  A    between atoms: N_13  and  CA_14 
REMARK    6  A    between atoms: CA_14  and  C_15 
REMARK    7  A    between atoms: CA_14  and  CB_17 
REMARK       I    between atoms: C_15  and  N_19 
REMARK    8  A    between atoms: CB_17  and  OG_18 
REMARK    9  A    between atoms: N_19  and  CA_20 
REMARK   10  A    between atoms: CA_20  and  C_21 
REMARK   11  A    between atoms: CA_20  and  CB_23 
REMARK       I    between atoms: C_21  and  N_30 
REMARK   12  A    between atoms: CB_23  and  CG_24 
REMARK   13  A    between atoms: CG_24  and  CD_25 
REMARK   14  A    between atoms: CD_25  and  NE_26 
REMARK       I    between atoms: NE_26  and  CZ_27 
REMARK       I    between atoms: CZ_27  and  NH1_28 
REMARK   15  A    between atoms: N_30  and  CA_31 
REMARK   16  A    between atoms: CA_31  and  C_32 
REMARK   17  A    between atoms: CA_31  and  CB_34 
REMARK       I    between atoms: C_32  and  N_38 
REMARK   18  A    between atoms: CB_34  and  CG_35 
REMARK   19  A    between atoms: N_38  and  CA_39 
REMARK   20  A    between atoms: CA_39  and  C_40 
REMARK   21  A    between atoms: CA_39  and  CB_42 
REMARK       I    between atoms: C_40  and  N_48 
REMARK   22  A    between atoms: CB_42  and  CG_43 
REMARK   23  A    between atoms: N_48  and  CA_49 
REMARK   24  A    between atoms: CA_49  and  C_50 
REMARK   25  A    between atoms: CA_49  and  CB_52 
REMARK       I    between atoms: C_50  and  N_56 
REMARK   26  A    between atoms: CB_52  and  CG_53 
REMARK   27  A    between atoms: CG_53  and  CD1_54 
REMARK   28  A    between atoms: CG_53  and  CD2_55 
REMARK   29  A    between atoms: N_56  and  CA_57 
REMARK   30  A    between atoms: CA_57  and  C_58 
REMARK   31  A    between atoms: CA_57  and  CB_60 
REMARK       I    between atoms: C_58  and  N_68 
REMARK   32  A    between atoms: CB_60  and  CG_61 
REMARK   33  A    between atoms: CZ_66  and  OH_67 
REMARK   34  A    between atoms: N_68  and  CA_69 
REMARK   35  A    between atoms: CA_69  and  C_70 
REMARK   36  A    between atoms: CA_69  and  CB_72 
REMARK       I    between atoms: C_70  and  N_76 
REMARK   37  A    between atoms: CB_72  and  CG_73 
REMARK   38  A    between atoms: CG_73  and  CD1_74 
REMARK   39  A    between atoms: CG_73  and  CD2_75 
REMARK   40  A    between atoms: CA_77  and  C_78 
REMARK       I    between atoms: C_78  and  N_83 
REMARK   41  A    between atoms: N_83  and  CA_84 
REMARK   42  A    between atoms: CA_84  and  C_85 
REMARK   43  A    between atoms: CA_84  and  CB_87 
REMARK       I    between atoms: C_85  and  N_91 
REMARK   44  A    between atoms: CB_87  and  CG_88 
REMARK   45  A    between atoms: CG_88  and  CD1_89 
REMARK   46  A    between atoms: CG_88  and  CD2_90 
REMARK   47  A    between atoms: N_91  and  CA_92 
REMARK   48  A    between atoms: CA_92  and  C_93 
REMARK   49  A    between atoms: CA_92  and  CB_95 
REMARK   50  A    between atoms: CB_95  and  CG_96 
REMARK   51  A    between atoms: CG_96  and  CD_97 
ROOT
ATOM      1  CA  LEU d   1     -10.083   4.507  23.908  0.00  0.00     0.089 C 
ATOM      2  H   LEU d   1     -10.463   3.486  23.873  0.00  0.00     0.087 H 
ENDROOT
BRANCH   1   3
ATOM      3  N   LEU d   1     -11.036   5.455  24.467  0.00  0.00    -0.346 N 
ATOM      4  C   HIS d   1     -11.875   5.125  25.440  0.00  0.00     0.241 C 
ATOM      5  O   HIS d   1     -11.971   3.980  25.858  0.00  0.00    -0.271 OA
ATOM      6  H   LEU d   1     -11.059   6.406  24.098  0.00  0.00     0.163 HD
BRANCH   4   7
ATOM      7  CA  HIS d   1     -12.730   6.247  26.041  0.00  0.00     0.094 C 
ATOM      8  H   HIS d   1     -12.375   6.437  27.054  0.00  0.00     0.088 H 
BRANCH   7   9
ATOM      9  N   HIS d   1     -12.572   7.503  25.306  0.00  0.00    -0.346 N 
ATOM     10  C   ASP d   1     -11.934   8.537  25.857  0.00  0.00     0.241 C 
ATOM     11  O   ASP d   1     -11.425   8.479  26.977  0.00  0.00    -0.271 OA
ATOM     12  H   HIS d   1     -12.953   7.588  24.364  0.00  0.00     0.163 HD
BRANCH  10  13
ATOM     13  CA  ASP d   1     -11.786   9.791  25.003  0.00  0.00     0.098 C 
ATOM     14  H   ASP d   1     -10.721   9.951  24.833  0.00  0.00     0.088 H 
BRANCH  13  15
ATOM     15  N   ASP d   1     -12.416   9.622  23.708  0.00  0.00    -0.346 N 
ATOM     16  C   ARG d   1     -11.829   8.894  22.767  0.00  0.00     0.241 C 
ATOM     17  O   ARG d   1     -10.760   8.312  22.949  0.00  0.00    -0.271 OA
ATOM     18  H   ASP d   1     -13.315  10.065  23.520  0.00  0.00     0.163 HD
BRANCH  16  19
ATOM     19  CA  ARG d   1     -12.528   8.820  21.430  0.00  0.00     0.089 C 
ATOM     20  H   ARG d   1     -12.330   7.854  20.965  0.00  0.00     0.087 H 
BRANCH  19  21
ATOM     21  N   ARG d   1     -13.974   8.931  21.587  0.00  0.00    -0.346 N 
ATOM     22  C   SER d   1     -14.651   8.051  22.317  0.00  0.00     0.243 C 
ATOM     23  O   SER d   1     -14.085   7.153  22.963  0.00  0.00    -0.271 OA
ATOM     24  H   ARG d   1     -14.472   9.695  21.130  0.00  0.00     0.163 HD
BRANCH  22  25
ATOM     25  CA  SER d   1     -16.183   8.146  22.286  0.00  0.00     0.109 C 
ATOM     26  H   SER d   1     -16.517   8.342  21.267  0.00  0.00     0.090 H 
BRANCH  25  27
ATOM     27  N   SER d   1     -16.719   6.877  22.741  0.00  0.00    -0.344 N 
ATOM     28  C   PRO d   1     -16.665   5.805  21.951  0.00  0.00     0.241 C 
ATOM     29  O   PRO d   1     -16.409   5.895  20.750  0.00  0.00    -0.271 OA
ATOM     30  H   SER d   1     -17.138   6.805  23.668  0.00  0.00     0.163 HD
BRANCH  28  31
ATOM     31  CA  PRO d   1     -16.920   4.447  22.606  0.00  0.00     0.091 C 
ATOM     32  N   PRO d   1     -17.584   3.446  21.760  0.00  0.00    -0.337 N 
ATOM     33  C   ARG d   1     -18.892   3.480  21.463  0.00  0.00     0.250 C 
ATOM     34  CD  PRO d   1     -16.664   2.366  21.355  0.00  0.00    -0.001 C 
ATOM     35  O   ARG d   1     -19.619   4.427  21.768  0.00  0.00    -0.271 OA
ATOM     36  CG  PRO d   1     -15.317   2.870  21.787  0.00  0.00    -0.048 C 
ATOM     37  H   PRO d   1     -16.709   2.159  20.286  0.00  0.00     0.064 H 
ATOM     38  H   PRO d   1     -16.917   1.409  21.811  0.00  0.00     0.064 H 
ATOM     39  CB  PRO d   1     -15.585   3.772  22.947  0.00  0.00    -0.036 C 
ATOM     40  H   PRO d   1     -14.652   2.051  22.062  0.00  0.00     0.035 H 
ATOM     41  H   PRO d   1     -14.809   3.397  20.979  0.00  0.00     0.035 H 
ATOM     42  H   PRO d   1     -15.632   3.225  23.889  0.00  0.00     0.036 H 
ATOM     43  H   PRO d   1     -14.785   4.498  23.094  0.00  0.00     0.036 H 
ATOM     44  H   PRO d   1     -17.555   4.700  23.455  0.00  0.00     0.087 H 
BRANCH  33  45
ATOM     45  CA  ARG d   1     -19.453   2.279  20.702  0.00  0.00     0.172 C 
ATOM     46  H   ARG d   1     -18.804   2.075  19.851  0.00  0.00     0.098 H 
BRANCH  45  47
ATOM     47  N   ARG d   1     -19.479   1.098  21.558  0.00  0.00    -0.067 N 
ATOM     48  H   ARG d   1     -18.536   0.902  21.894  0.00  0.00     0.275 HD
ATOM     49  H   ARG d   1     -20.096   1.269  22.352  0.00  0.00     0.275 HD
ATOM     50  H   ARG d   1     -19.823   0.300  21.024  0.00  0.00     0.275 HD
ENDBRANCH  45  47
BRANCH  45  51
ATOM     51  CB  ARG d   1     -20.859   2.590  20.187  0.00  0.00    -0.042 C 
ATOM     52  H   ARG d   1     -21.512   2.816  21.030  0.00  0.00     0.030 H 
ATOM     53  H   ARG d   1     -20.818   3.450  19.518  0.00  0.00     0.030 H 
ATOM     54  H   ARG d   1     -21.246   1.726  19.647  0.00  0.00     0.030 H 
ENDBRANCH  45  51
ENDBRANCH  33  45
ENDBRANCH  28  31
ENDBRANCH  25  27
BRANCH  25  55
ATOM     55  CB  SER d   1     -16.708   9.328  23.118  0.00  0.00     0.044 C 
ATOM     56  H   SER d   1     -17.758   9.480  22.869  0.00  0.00     0.077 H 
ATOM     57  H   SER d   1     -16.102  10.204  22.886  0.00  0.00     0.077 H 
BRANCH  55  58
ATOM     58  OG  SER d   1     -16.614   9.081  24.509  0.00  0.00    -0.398 OA
ATOM     59  H   SER d   1     -15.695   8.932  24.745  0.00  0.00     0.209 HD
ENDBRANCH  55  58
ENDBRANCH  25  55
ENDBRANCH  22  25
ENDBRANCH  19  21
BRANCH  19  60
ATOM     60  CB  ARG d   1     -11.989   9.949  20.544  0.00  0.00    -0.036 C 
ATOM     61  H   ARG d   1     -10.945  10.106  20.817  0.00  0.00     0.036 H 
ATOM     62  H   ARG d   1     -12.623  10.820  20.707  0.00  0.00     0.036 H 
BRANCH  60  63
ATOM     63  CG  ARG d   1     -12.025   9.634  19.053  0.00  0.00    -0.048 C 
ATOM     64  H   ARG d   1     -13.070   9.496  18.776  0.00  0.00     0.035 H 
ATOM     65  H   ARG d   1     -11.405   8.752  18.893  0.00  0.00     0.035 H 
BRANCH  63  66
ATOM     66  CD  ARG d   1     -11.470  10.738  18.179  0.00  0.00     0.009 C 
ATOM     67  H   ARG d   1     -11.991  10.682  17.223  0.00  0.00     0.064 H 
ATOM     68  H   ARG d   1     -10.393  10.584  18.114  0.00  0.00     0.064 H 
BRANCH  66  69
ATOM     69  NE  ARG d   1     -11.680  12.091  18.706  0.00  0.00    -0.227 N 
ATOM     70  CZ  ARG d   1     -11.209  13.179  18.106  0.00  0.00     0.665 C 
ATOM     71  NH1 ARG d   1     -10.563  13.068  16.957  0.00  0.00    -0.235 N 
ATOM     72  NH2 ARG d   1     -11.401  14.379  18.633  0.00  0.00    -0.235 N 
ATOM     73  H   ARG d   1     -10.428  12.149  16.535  0.00  0.00     0.174 HD
ATOM     74  H   ARG d   1     -10.200  13.901  16.494  0.00  0.00     0.174 HD
ATOM     75  H   ARG d   1     -11.915  14.475  19.509  0.00  0.00     0.174 HD
ATOM     76  H   ARG d   1     -11.035  15.207  18.163  0.00  0.00     0.174 HD
ATOM     77  H   ARG d   1     -12.210  12.201  19.570  0.00  0.00     0.177 HD
ENDBRANCH  66  69
ENDBRANCH  63  66
ENDBRANCH  60  63
ENDBRANCH  19  60
ENDBRANCH  16  19
ENDBRANCH  13  15
BRANCH  13  78
ATOM     78  CB  ASP d   1     -12.329  11.027  25.731  0.00  0.00     0.043 C 
ATOM     79  H   ASP d   1     -12.337  11.854  25.021  0.00  0.00     0.052 H 
ATOM     80  H   ASP d   1     -11.689  11.213  26.593  0.00  0.00     0.052 H 
BRANCH  78  81
ATOM     81  CG  ASP d   1     -13.744  10.840  26.238  0.00  0.00     0.175 C 
ATOM     82  OD1 ASP d   1     -14.445   9.905  25.782  0.00  0.00    -0.648 OA
ATOM     83  OD2 ASP d   1     -14.142  11.628  27.121  0.00  0.00    -0.648 OA
ENDBRANCH  78  81
ENDBRANCH  13  78
ENDBRANCH  10  13
ENDBRANCH   7   9
BRANCH   7  84
ATOM     84  CB  HIS d   1     -14.199   5.813  26.134  0.00  0.00     0.004 C 
ATOM     85  H   HIS d   1     -14.215   4.728  26.237  0.00  0.00     0.046 H 
ATOM     86  H   HIS d   1     -14.704   6.170  25.237  0.00  0.00     0.046 H 
BRANCH  84  87
ATOM     87  CG  HIS d   1     -14.915   6.388  27.313  0.00  0.00     0.053 A 
ATOM     88  ND1 HIS d   1     -15.214   7.728  27.421  0.00  0.00    -0.247 NA
ATOM     89  CE1 HIS d   1     -15.827   7.948  28.570  0.00  0.00     0.064 A 
ATOM     90  NE2 HIS d   1     -15.928   6.802  29.215  0.00  0.00    -0.359 N 
ATOM     91  H   HIS d   1     -16.188   8.913  28.925  0.00  0.00     0.143 H 
ATOM     92  CD2 HIS d   1     -15.361   5.809  28.451  0.00  0.00     0.002 A 
ATOM     93  H   HIS d   1     -16.357   6.673  30.131  0.00  0.00     0.166 HD
ATOM     94  H   HIS d   1     -15.285   4.754  28.713  0.00  0.00     0.114 H 
ENDBRANCH  84  87
ENDBRANCH   7  84
ENDBRANCH   4   7
ENDBRANCH   1   3
BRANCH   1  95
ATOM     95  C   LEU d   1      -8.870   4.632  24.816  0.00  0.00     0.241 C 
ATOM     96  O   LEU d   1      -8.382   5.742  25.096  0.00  0.00    -0.271 OA
ATOM     97  N   TYR d   1      -8.431   3.510  25.343  0.00  0.00    -0.346 N 
ATOM     98  H   TYR d   1      -8.860   2.631  25.055  0.00  0.00     0.163 HD
BRANCH  97  99
ATOM     99  CA  TYR d   1      -7.355   3.478  26.322  0.00  0.00     0.093 C 
ATOM    100  H   TYR d   1      -6.832   4.434  26.317  0.00  0.00     0.088 H 
BRANCH  99 101
ATOM    101  C   TYR d   1      -6.480   2.318  25.951  0.00  0.00     0.241 C 
ATOM    102  O   TYR d   1      -6.979   1.215  25.743  0.00  0.00    -0.271 OA
ATOM    103  N   LEU d   1      -5.181   2.562  25.907  0.00  0.00    -0.346 N 
ATOM    104  H   LEU d   1      -4.869   3.527  26.015  0.00  0.00     0.163 HD
BRANCH 103 105
ATOM    105  CA  LEU d   1      -4.170   1.530  25.713  0.00  0.00     0.090 C 
ATOM    106  H   LEU d   1      -4.650   0.620  25.353  0.00  0.00     0.087 H 
BRANCH 105 107
ATOM    107  C   LEU d   1      -3.465   1.294  27.061  0.00  0.00     0.243 C 
ATOM    108  O   LEU d   1      -2.834   2.215  27.593  0.00  0.00    -0.271 OA
ATOM    109  N   PRO d   1      -3.501   0.072  27.597  0.00  0.00    -0.337 N 
ATOM    110  CA  PRO d   1      -2.869  -0.196  28.904  0.00  0.00     0.091 C 
ATOM    111  CD  PRO d   1      -4.373  -1.050  27.186  0.00  0.00    -0.001 C 
ATOM    112  CB  PRO d   1      -3.633  -1.413  29.432  0.00  0.00    -0.036 C 
ATOM    113  H   PRO d   1      -2.918   0.642  29.600  0.00  0.00     0.087 H 
ATOM    114  CG  PRO d   1      -4.042  -2.113  28.197  0.00  0.00    -0.048 C 
ATOM    115  H   PRO d   1      -4.480  -1.139  30.061  0.00  0.00     0.036 H 
ATOM    116  H   PRO d   1      -3.029  -2.037  30.090  0.00  0.00     0.036 H 
ATOM    117  H   PRO d   1      -4.904  -2.755  28.382  0.00  0.00     0.035 H 
ATOM    118  H   PRO d   1      -3.242  -2.758  27.834  0.00  0.00     0.035 H 
ATOM    119  H   PRO d   1      -4.198  -1.371  26.159  0.00  0.00     0.064 H 
ATOM    120  H   PRO d   1      -5.430  -0.786  27.177  0.00  0.00     0.064 H 
BRANCH 110 121
ATOM    121  C   PRO d   1      -1.381  -0.483  28.713  0.00  0.00     0.241 C 
ATOM    122  O   PRO d   1      -0.901  -1.613  28.888  0.00  0.00    -0.271 OA
ATOM    123  N   LEU d   1      -0.655   0.581  28.407  0.00  0.00    -0.346 N 
ATOM    124  H   LEU d   1      -1.108   1.494  28.380  0.00  0.00     0.163 HD
BRANCH 123 125
ATOM    125  CA  LEU d   1       0.769   0.494  28.107  0.00  0.00     0.089 C 
ATOM    126  H   LEU d   1       0.927  -0.312  27.391  0.00  0.00     0.087 H 
BRANCH 125 127
ATOM    127  C   LEU d   1       1.571   0.185  29.366  0.00  0.00     0.241 C 
ATOM    128  O   LEU d   1       1.198   0.583  30.484  0.00  0.00    -0.271 OA
ATOM    129  N   GLU d   1       2.711  -0.483  29.187  0.00  0.00    -0.345 N 
ATOM    130  H   GLU d   1       2.964  -0.796  28.250  0.00  0.00     0.163 HD
BRANCH 129 131
ATOM    131  CA  GLU d   1       3.604  -0.776  30.303  0.00  0.00     0.097 C 
ATOM    132  H   GLU d   1       3.332  -0.138  31.144  0.00  0.00     0.089 H 
BRANCH 131 133
ATOM    133  C   GLU d   1       5.062  -0.455  29.932  0.00  0.00     0.196 C 
ATOM    134  O   GLU d   1       5.362  -0.117  28.787  0.00  0.00    -0.646 OA
ATOM    135  OXT GLU d   1       5.968  -0.493  30.769  0.00  0.00    -0.646 OA
ENDBRANCH 131 133
BRANCH 131 136
ATOM    136  CB  GLU d   1       3.442  -2.237  30.756  0.00  0.00    -0.028 C 
ATOM    137  H   GLU d   1       2.374  -2.454  30.787  0.00  0.00     0.037 H 
ATOM    138  H   GLU d   1       3.934  -2.336  31.723  0.00  0.00     0.037 H 
BRANCH 136 139
ATOM    139  CG  GLU d   1       4.081  -3.235  29.816  0.00  0.00     0.018 C 
ATOM    140  H   GLU d   1       5.162  -3.125  29.908  0.00  0.00     0.049 H 
ATOM    141  H   GLU d   1       3.704  -3.028  28.814  0.00  0.00     0.049 H 
BRANCH 139 142
ATOM    142  CD  GLU d   1       3.742  -4.678  30.140  0.00  0.00     0.172 C 
ATOM    143  OE1 GLU d   1       2.932  -4.931  31.059  0.00  0.00    -0.648 OA
ATOM    144  OE2 GLU d   1       4.295  -5.575  29.465  0.00  0.00    -0.648 OA
ENDBRANCH 139 142
ENDBRANCH 136 139
ENDBRANCH 131 136
ENDBRANCH 129 131
ENDBRANCH 125 127
BRANCH 125 145
ATOM    145  CB  LEU d   1       1.241   1.823  27.516  0.00  0.00    -0.035 C 
ATOM    146  H   LEU d   1       2.296   1.699  27.273  0.00  0.00     0.037 H 
ATOM    147  H   LEU d   1       1.020   2.590  28.258  0.00  0.00     0.037 H 
BRANCH 145 148
ATOM    148  CG  LEU d   1       0.542   2.250  26.225  0.00  0.00    -0.059 C 
ATOM    149  H   LEU d   1      -0.532   2.186  26.399  0.00  0.00     0.038 H 
BRANCH 148 150
ATOM    150  CD1 LEU d   1       0.937   3.693  25.872  0.00  0.00    -0.073 C 
ATOM    151  H   LEU d   1       0.638   4.359  26.682  0.00  0.00     0.028 H 
ATOM    152  H   LEU d   1       2.017   3.749  25.734  0.00  0.00     0.028 H 
ATOM    153  H   LEU d   1       0.435   3.991  24.951  0.00  0.00     0.028 H 
ENDBRANCH 148 150
BRANCH 148 154
ATOM    154  CD2 LEU d   1       0.875   1.337  25.067  0.00  0.00    -0.073 C 
ATOM    155  H   LEU d   1       1.951   1.352  24.892  0.00  0.00     0.028 H 
ATOM    156  H   LEU d   1       0.559   0.321  25.304  0.00  0.00     0.028 H 
ATOM    157  H   LEU d   1       0.355   1.681  24.173  0.00  0.00     0.028 H 
ENDBRANCH 148 154
ENDBRANCH 145 148
ENDBRANCH 125 145
ENDBRANCH 123 125
ENDBRANCH 110 121
ENDBRANCH 105 107
BRANCH 105 158
ATOM    158  CB  LEU d   1      -3.132   1.966  24.678  0.00  0.00    -0.035 C 
ATOM    159  H   LEU d   1      -2.413   1.149  24.618  0.00  0.00     0.037 H 
ATOM    160  H   LEU d   1      -2.761   2.932  25.020  0.00  0.00     0.037 H 
BRANCH 158 161
ATOM    161  CG  LEU d   1      -3.624   2.192  23.247  0.00  0.00    -0.059 C 
ATOM    162  H   LEU d   1      -4.460   2.892  23.241  0.00  0.00     0.038 H 
BRANCH 161 163
ATOM    163  CD1 LEU d   1      -2.515   2.786  22.425  0.00  0.00    -0.073 C 
ATOM    164  H   LEU d   1      -2.212   3.738  22.860  0.00  0.00     0.028 H 
ATOM    165  H   LEU d   1      -1.666   2.103  22.415  0.00  0.00     0.028 H 
ATOM    166  H   LEU d   1      -2.866   2.947  21.406  0.00  0.00     0.028 H 
ENDBRANCH 161 163
BRANCH 161 167
ATOM    167  CD2 LEU d   1      -4.120   0.854  22.655  0.00  0.00    -0.073 C 
ATOM    168  H   LEU d   1      -3.301   0.135  22.649  0.00  0.00     0.028 H 
ATOM    169  H   LEU d   1      -4.938   0.469  23.264  0.00  0.00     0.028 H 
ATOM    170  H   LEU d   1      -4.470   1.017  21.636  0.00  0.00     0.028 H 
ENDBRANCH 161 167
ENDBRANCH 158 161
ENDBRANCH 105 158
ENDBRANCH 103 105
ENDBRANCH  99 101
BRANCH  99 171
ATOM    171  CB  TYR d   1      -7.881   3.231  27.742  0.00  0.00    -0.014 C 
ATOM    172  H   TYR d   1      -8.362   2.253  27.750  0.00  0.00     0.043 H 
ATOM    173  H   TYR d   1      -8.560   4.047  27.988  0.00  0.00     0.043 H 
BRANCH 171 174
ATOM    174  CG  TYR d   1      -6.781   3.212  28.798  0.00  0.00    -0.056 A 
ATOM    175  CD1 TYR d   1      -6.054   4.364  29.083  0.00  0.00    -0.074 A 
ATOM    176  CE1 TYR d   1      -5.046   4.363  30.027  0.00  0.00    -0.051 A 
ATOM    177  H   TYR d   1      -6.285   5.286  28.550  0.00  0.00     0.084 H 
ATOM    178  CZ  TYR d   1      -4.745   3.204  30.709  0.00  0.00     0.065 A 
ATOM    179  H   TYR d   1      -4.489   5.277  30.232  0.00  0.00     0.087 H 
ATOM    180  CE2 TYR d   1      -5.452   2.036  30.455  0.00  0.00    -0.051 A 
ATOM    181  CD2 TYR d   1      -6.462   2.046  29.498  0.00  0.00    -0.074 A 
ATOM    182  H   TYR d   1      -5.218   1.121  31.000  0.00  0.00     0.087 H 
ATOM    183  H   TYR d   1      -7.013   1.129  29.291  0.00  0.00     0.084 H 
BRANCH 178 184
ATOM    184  OH  TYR d   1      -3.737   3.232  31.650  0.00  0.00    -0.361 OA
ATOM    185  H   TYR d   1      -3.053   2.605  31.404  0.00  0.00     0.217 HD
ENDBRANCH 178 184
ENDBRANCH 171 174
ENDBRANCH  99 171
ENDBRANCH  97  99
ENDBRANCH   1  95
BRANCH   1 186
ATOM    186  CB  LEU d   1      -9.754   4.862  22.464  0.00  0.00    -0.035 C 
ATOM    187  H   LEU d   1      -9.142   4.049  22.073  0.00  0.00     0.037 H 
ATOM    188  H   LEU d   1      -9.269   5.838  22.483  0.00  0.00     0.037 H 
BRANCH 186 189
ATOM    189  CG  LEU d   1     -10.960   4.989  21.538  0.00  0.00    -0.059 C 
ATOM    190  H   LEU d   1     -11.650   5.706  21.983  0.00  0.00     0.038 H 
BRANCH 189 191
ATOM    191  CD1 LEU d   1     -10.533   5.519  20.159  0.00  0.00    -0.073 C 
ATOM    192  H   LEU d   1     -10.072   6.500  20.275  0.00  0.00     0.028 H 
ATOM    193  H   LEU d   1      -9.816   4.830  19.712  0.00  0.00     0.028 H 
ATOM    194  H   LEU d   1     -11.409   5.601  19.516  0.00  0.00     0.028 H 
ENDBRANCH 189 191
BRANCH 189 195
ATOM    195  CD2 LEU d   1     -11.686   3.669  21.403  0.00  0.00    -0.073 C 
ATOM    196  H   LEU d   1     -11.007   2.923  20.991  0.00  0.00     0.028 H 
ATOM    197  H   LEU d   1     -12.032   3.344  22.384  0.00  0.00     0.028 H 
ATOM    198  H   LEU d   1     -12.540   3.792  20.737  0.00  0.00     0.028 H 
ENDBRANCH 189 195
ENDBRANCH 186 189
ENDBRANCH   1 186
TORSDOF 51
