REMARK WARNING: 32 MAX_TORS EXCEEDED!!!
REMARK  54 active torsions:
REMARK  status: ('A' for Active; 'I' for Inactive)
REMARK    1  A    between atoms: N_1  and  CA_2 
REMARK    2  A    between atoms: CA_2  and  C_3 
REMARK    3  A    between atoms: CA_2  and  CB_5 
REMARK       I    between atoms: C_3  and  N_12 
REMARK    4  A    between atoms: CB_5  and  CG_6 
REMARK    5  A    between atoms: CG_6  and  CD_7 
REMARK    6  A    between atoms: CD_7  and  NE_8 
REMARK       I    between atoms: NE_8  and  CZ_9 
REMARK       I    between atoms: CZ_9  and  NH1_10 
REMARK       I    between atoms: CZ_9  and  NH2_11 
REMARK    7  A    between atoms: CA_13  and  C_14 
REMARK       I    between atoms: C_14  and  N_19 
REMARK    8  A    between atoms: N_19  and  CA_20 
REMARK    9  A    between atoms: CA_20  and  C_21 
REMARK   10  A    between atoms: CA_20  and  CB_23 
REMARK       I    between atoms: C_21  and  N_25 
REMARK   11  A    between atoms: CB_23  and  OG_24 
REMARK   12  A    between atoms: N_25  and  CA_26 
REMARK   13  A    between atoms: CA_26  and  C_27 
REMARK   14  A    between atoms: CA_26  and  CB_29 
REMARK       I    between atoms: C_27  and  N_36 
REMARK   15  A    between atoms: CB_29  and  CG_30 
REMARK   16  A    between atoms: CG_30  and  CD_31 
REMARK   17  A    between atoms: CD_31  and  NE_32 
REMARK       I    between atoms: NE_32  and  CZ_33 
REMARK       I    between atoms: CZ_33  and  NH1_34 
REMARK   18  A    between atoms: N_36  and  CA_37 
REMARK   19  A    between atoms: CA_37  and  C_38 
REMARK   20  A    between atoms: CA_37  and  CB_40 
REMARK       I    between atoms: C_38  and  N_44 
REMARK   21  A    between atoms: CB_40  and  CG_41 
REMARK   22  A    between atoms: N_44  and  CA_45 
REMARK   23  A    between atoms: CA_45  and  C_46 
REMARK   24  A    between atoms: CA_45  and  CB_48 
REMARK       I    between atoms: C_46  and  N_54 
REMARK   25  A    between atoms: CB_48  and  CG_49 
REMARK   26  A    between atoms: N_54  and  CA_55 
REMARK   27  A    between atoms: CA_55  and  C_56 
REMARK   28  A    between atoms: CA_55  and  CB_58 
REMARK       I    between atoms: C_56  and  N_62 
REMARK   29  A    between atoms: CB_58  and  CG_59 
REMARK   30  A    between atoms: CG_59  and  CD1_60 
REMARK   31  A    between atoms: CG_59  and  CD2_61 
REMARK   32  A    between atoms: N_62  and  CA_63 
REMARK   33  A    between atoms: CA_63  and  C_64 
REMARK   34  A    between atoms: CA_63  and  CB_66 
REMARK       I    between atoms: C_64  and  N_74 
REMARK   35  A    between atoms: CB_66  and  CG_67 
REMARK   36  A    between atoms: CZ_72  and  OH_73 
REMARK   37  A    between atoms: N_74  and  CA_75 
REMARK   38  A    between atoms: CA_75  and  C_76 
REMARK   39  A    between atoms: CA_75  and  CB_78 
REMARK       I    between atoms: C_76  and  N_82 
REMARK   40  A    between atoms: CB_78  and  CG_79 
REMARK   41  A    between atoms: CG_79  and  CD1_80 
REMARK   42  A    between atoms: CG_79  and  CD2_81 
REMARK   43  A    between atoms: CA_83  and  C_84 
REMARK       I    between atoms: C_84  and  N_89 
REMARK   44  A    between atoms: N_89  and  CA_90 
REMARK   45  A    between atoms: CA_90  and  C_91 
REMARK   46  A    between atoms: CA_90  and  CB_93 
REMARK       I    between atoms: C_91  and  N_97 
REMARK   47  A    between atoms: CB_93  and  CG_94 
REMARK   48  A    between atoms: CG_94  and  CD1_95 
REMARK   49  A    between atoms: CG_94  and  CD2_96 
REMARK   50  A    between atoms: N_97  and  CA_98 
REMARK   51  A    between atoms: CA_98  and  C_99 
REMARK   52  A    between atoms: CA_98  and  CB_101 
REMARK   53  A    between atoms: CB_101  and  CG_102 
REMARK   54  A    between atoms: CG_102  and  CD_103 
ROOT
ATOM      1  C   HIS d   1     -11.648  29.246   9.907  0.00  0.00     0.241 C 
ATOM      2  O   HIS d   1     -11.129  28.808   8.883  0.00  0.00    -0.271 OA
ATOM      3  N   LEU d   1     -12.181  28.452  10.836  0.00  0.00    -0.346 N 
ATOM      4  H   LEU d   1     -12.587  28.868  11.674  0.00  0.00     0.163 HD
ENDROOT
BRANCH   3   5
ATOM      5  CA  LEU d   1     -12.196  27.000  10.680  0.00  0.00     0.089 C 
ATOM      6  H   LEU d   1     -11.160  26.670  10.606  0.00  0.00     0.087 H 
BRANCH   5   7
ATOM      7  C   LEU d   1     -12.921  26.587   9.404  0.00  0.00     0.241 C 
ATOM      8  O   LEU d   1     -14.098  26.898   9.218  0.00  0.00    -0.271 OA
ATOM      9  N   TYR d   1     -12.209  25.875   8.535  0.00  0.00    -0.346 N 
ATOM     10  H   TYR d   1     -11.269  25.575   8.794  0.00  0.00     0.163 HD
BRANCH   9  11
ATOM     11  CA  TYR d   1     -12.731  25.510   7.223  0.00  0.00     0.093 C 
ATOM     12  H   TYR d   1     -13.817  25.566   7.298  0.00  0.00     0.088 H 
BRANCH  11  13
ATOM     13  C   TYR d   1     -12.401  24.069   6.804  0.00  0.00     0.241 C 
ATOM     14  O   TYR d   1     -11.259  23.611   6.916  0.00  0.00    -0.271 OA
ATOM     15  N   LEU d   1     -13.417  23.361   6.327  0.00  0.00    -0.346 N 
ATOM     16  H   LEU d   1     -14.361  23.742   6.397  0.00  0.00     0.163 HD
BRANCH  15  17
ATOM     17  CA  LEU d   1     -13.227  22.057   5.707  0.00  0.00     0.090 C 
ATOM     18  H   LEU d   1     -12.190  21.744   5.826  0.00  0.00     0.087 H 
BRANCH  17  19
ATOM     19  C   LEU d   1     -13.561  22.167   4.221  0.00  0.00     0.243 C 
ATOM     20  O   LEU d   1     -14.661  22.587   3.858  0.00  0.00    -0.271 OA
ATOM     21  N   PRO d   1     -12.607  21.799   3.354  0.00  0.00    -0.337 N 
ATOM     22  CA  PRO d   1     -12.758  21.953   1.903  0.00  0.00     0.091 C 
ATOM     23  CD  PRO d   1     -11.338  21.142   3.714  0.00  0.00    -0.001 C 
ATOM     24  CB  PRO d   1     -11.354  21.662   1.381  0.00  0.00    -0.036 C 
ATOM     25  H   PRO d   1     -13.138  22.935   1.623  0.00  0.00     0.087 H 
ATOM     26  CG  PRO d   1     -10.778  20.726   2.387  0.00  0.00    -0.048 C 
ATOM     27  H   PRO d   1     -10.758  22.569   1.274  0.00  0.00     0.036 H 
ATOM     28  H   PRO d   1     -11.368  21.232   0.379  0.00  0.00     0.036 H 
ATOM     29  H   PRO d   1      -9.689  20.772   2.388  0.00  0.00     0.035 H 
ATOM     30  H   PRO d   1     -11.039  19.693   2.157  0.00  0.00     0.035 H 
ATOM     31  H   PRO d   1     -11.478  20.301   4.393  0.00  0.00     0.064 H 
ATOM     32  H   PRO d   1     -10.666  21.799   4.266  0.00  0.00     0.064 H 
BRANCH  22  33
ATOM     33  C   PRO d   1     -13.757  20.950   1.330  0.00  0.00     0.241 C 
ATOM     34  O   PRO d   1     -13.361  20.002   0.656  0.00  0.00    -0.271 OA
ATOM     35  N   LEU d   1     -15.042  21.180   1.590  0.00  0.00    -0.346 N 
ATOM     36  H   LEU d   1     -15.297  22.048   2.062  0.00  0.00     0.163 HD
BRANCH  35  37
ATOM     37  CA  LEU d   1     -16.101  20.245   1.230  0.00  0.00     0.089 C 
ATOM     38  H   LEU d   1     -15.628  19.337   0.857  0.00  0.00     0.087 H 
BRANCH  37  39
ATOM     39  C   LEU d   1     -16.998  20.804   0.130  0.00  0.00     0.241 C 
ATOM     40  O   LEU d   1     -17.594  20.048  -0.641  0.00  0.00    -0.271 OA
ATOM     41  N   GLU d   1     -17.095  22.130   0.073  0.00  0.00    -0.345 N 
ATOM     42  H   GLU d   1     -16.525  22.689   0.707  0.00  0.00     0.163 HD
BRANCH  41  43
ATOM     43  CA  GLU d   1     -17.985  22.819  -0.861  0.00  0.00     0.097 C 
ATOM     44  H   GLU d   1     -19.003  22.593  -0.542  0.00  0.00     0.089 H 
BRANCH  43  45
ATOM     45  C   GLU d   1     -17.862  22.320  -2.303  0.00  0.00     0.196 C 
ATOM     46  O   GLU d   1     -18.863  22.183  -3.008  0.00  0.00    -0.646 OA
ATOM     47  OXT GLU d   1     -16.769  22.041  -2.799  0.00  0.00    -0.646 OA
ENDBRANCH  43  45
BRANCH  43  48
ATOM     48  CB  GLU d   1     -17.735  24.327  -0.806  0.00  0.00    -0.028 C 
ATOM     49  H   GLU d   1     -18.389  24.791  -1.545  0.00  0.00     0.037 H 
ATOM     50  H   GLU d   1     -16.673  24.486  -0.993  0.00  0.00     0.037 H 
BRANCH  48  51
ATOM     51  CG  GLU d   1     -18.056  24.956   0.539  0.00  0.00     0.018 C 
ATOM     52  H   GLU d   1     -17.738  24.263   1.318  0.00  0.00     0.049 H 
ATOM     53  H   GLU d   1     -19.127  25.156   0.569  0.00  0.00     0.049 H 
BRANCH  51  54
ATOM     54  CD  GLU d   1     -17.329  26.269   0.756  0.00  0.00     0.172 C 
ATOM     55  OE1 GLU d   1     -17.873  27.147   1.462  0.00  0.00    -0.648 OA
ATOM     56  OE2 GLU d   1     -16.206  26.416   0.227  0.00  0.00    -0.648 OA
ENDBRANCH  51  54
ENDBRANCH  48  51
ENDBRANCH  43  48
ENDBRANCH  41  43
ENDBRANCH  37  39
BRANCH  37  57
ATOM     57  CB  LEU d   1     -16.955  19.935   2.463  0.00  0.00    -0.035 C 
ATOM     58  H   LEU d   1     -17.670  19.177   2.145  0.00  0.00     0.037 H 
ATOM     59  H   LEU d   1     -17.359  20.892   2.792  0.00  0.00     0.037 H 
BRANCH  57  60
ATOM     60  CG  LEU d   1     -16.239  19.347   3.677  0.00  0.00    -0.059 C 
ATOM     61  H   LEU d   1     -15.322  19.913   3.842  0.00  0.00     0.038 H 
BRANCH  60  62
ATOM     62  CD1 LEU d   1     -17.099  19.466   4.919  0.00  0.00    -0.073 C 
ATOM     63  H   LEU d   1     -17.313  20.517   5.112  0.00  0.00     0.028 H 
ATOM     64  H   LEU d   1     -18.033  18.926   4.766  0.00  0.00     0.028 H 
ATOM     65  H   LEU d   1     -16.567  19.040   5.770  0.00  0.00     0.028 H 
ENDBRANCH  60  62
BRANCH  60  66
ATOM     66  CD2 LEU d   1     -15.877  17.898   3.422  0.00  0.00    -0.073 C 
ATOM     67  H   LEU d   1     -16.785  17.326   3.232  0.00  0.00     0.028 H 
ATOM     68  H   LEU d   1     -15.219  17.836   2.555  0.00  0.00     0.028 H 
ATOM     69  H   LEU d   1     -15.367  17.493   4.296  0.00  0.00     0.028 H 
ENDBRANCH  60  66
ENDBRANCH  57  60
ENDBRANCH  37  57
ENDBRANCH  35  37
ENDBRANCH  22  33
ENDBRANCH  17  19
BRANCH  17  70
ATOM     70  CB  LEU d   1     -14.107  21.002   6.383  0.00  0.00    -0.035 C 
ATOM     71  H   LEU d   1     -13.917  20.064   5.861  0.00  0.00     0.037 H 
ATOM     72  H   LEU d   1     -15.129  21.377   6.332  0.00  0.00     0.037 H 
BRANCH  70  73
ATOM     73  CG  LEU d   1     -13.817  20.737   7.867  0.00  0.00    -0.059 C 
ATOM     74  H   LEU d   1     -13.952  21.675   8.406  0.00  0.00     0.038 H 
BRANCH  73  75
ATOM     75  CD1 LEU d   1     -14.784  19.716   8.435  0.00  0.00    -0.073 C 
ATOM     76  H   LEU d   1     -15.803  20.090   8.338  0.00  0.00     0.028 H 
ATOM     77  H   LEU d   1     -14.686  18.779   7.886  0.00  0.00     0.028 H 
ATOM     78  H   LEU d   1     -14.556  19.547   9.487  0.00  0.00     0.028 H 
ENDBRANCH  73  75
BRANCH  73  79
ATOM     79  CD2 LEU d   1     -12.387  20.270   8.061  0.00  0.00    -0.073 C 
ATOM     80  H   LEU d   1     -12.228  19.348   7.501  0.00  0.00     0.028 H 
ATOM     81  H   LEU d   1     -11.703  21.038   7.700  0.00  0.00     0.028 H 
ATOM     82  H   LEU d   1     -12.206  20.089   9.120  0.00  0.00     0.028 H 
ENDBRANCH  73  79
ENDBRANCH  70  73
ENDBRANCH  17  70
ENDBRANCH  15  17
ENDBRANCH  11  13
BRANCH  11  83
ATOM     83  CB  TYR d   1     -12.213  26.491   6.167  0.00  0.00    -0.014 C 
ATOM     84  H   TYR d   1     -11.124  26.436   6.178  0.00  0.00     0.043 H 
ATOM     85  H   TYR d   1     -12.605  27.477   6.418  0.00  0.00     0.043 H 
BRANCH  83  86
ATOM     86  CG  TYR d   1     -12.667  26.170   4.764  0.00  0.00    -0.056 A 
ATOM     87  CD1 TYR d   1     -13.953  26.496   4.336  0.00  0.00    -0.074 A 
ATOM     88  CE1 TYR d   1     -14.376  26.203   3.053  0.00  0.00    -0.051 A 
ATOM     89  H   TYR d   1     -14.637  26.991   5.025  0.00  0.00     0.084 H 
ATOM     90  CZ  TYR d   1     -13.507  25.577   2.178  0.00  0.00     0.065 A 
ATOM     91  H   TYR d   1     -15.385  26.463   2.734  0.00  0.00     0.087 H 
ATOM     92  CE2 TYR d   1     -12.229  25.245   2.576  0.00  0.00    -0.051 A 
ATOM     93  CD2 TYR d   1     -11.814  25.540   3.863  0.00  0.00    -0.074 A 
ATOM     94  H   TYR d   1     -11.549  24.753   1.881  0.00  0.00     0.087 H 
ATOM     95  H   TYR d   1     -10.804  25.275   4.175  0.00  0.00     0.084 H 
BRANCH  90  96
ATOM     96  OH  TYR d   1     -13.917  25.282   0.902  0.00  0.00    -0.361 OA
ATOM     97  H   TYR d   1     -14.824  25.575   0.783  0.00  0.00     0.217 HD
ENDBRANCH  90  96
ENDBRANCH  83  86
ENDBRANCH  11  83
ENDBRANCH   9  11
ENDBRANCH   5   7
BRANCH   5  98
ATOM     98  CB  LEU d   1     -12.836  26.324  11.893  0.00  0.00    -0.035 C 
ATOM     99  H   LEU d   1     -12.748  25.246  11.755  0.00  0.00     0.037 H 
ATOM    100  H   LEU d   1     -13.869  26.667  11.955  0.00  0.00     0.037 H 
BRANCH  98 101
ATOM    101  CG  LEU d   1     -12.151  26.679  13.213  0.00  0.00    -0.059 C 
ATOM    102  H   LEU d   1     -12.137  27.766  13.297  0.00  0.00     0.038 H 
BRANCH 101 103
ATOM    103  CD1 LEU d   1     -12.925  26.147  14.411  0.00  0.00    -0.073 C 
ATOM    104  H   LEU d   1     -13.926  26.579  14.416  0.00  0.00     0.028 H 
ATOM    105  H   LEU d   1     -12.997  25.061  14.343  0.00  0.00     0.028 H 
ATOM    106  H   LEU d   1     -12.405  26.421  15.329  0.00  0.00     0.028 H 
ENDBRANCH 101 103
BRANCH 101 107
ATOM    107  CD2 LEU d   1     -10.713  26.182  13.222  0.00  0.00    -0.073 C 
ATOM    108  H   LEU d   1     -10.704  25.099  13.099  0.00  0.00     0.028 H 
ATOM    109  H   LEU d   1     -10.164  26.647  12.403  0.00  0.00     0.028 H 
ATOM    110  H   LEU d   1     -10.245  26.445  14.170  0.00  0.00     0.028 H 
ENDBRANCH 101 107
ENDBRANCH  98 101
ENDBRANCH   5  98
ENDBRANCH   3   5
BRANCH   1 111
ATOM    111  CA  HIS d   1     -11.677  30.758  10.171  0.00  0.00     0.094 C 
ATOM    112  H   HIS d   1     -12.088  31.230   9.278  0.00  0.00     0.088 H 
BRANCH 111 113
ATOM    113  N   HIS d   1     -12.539  31.133  11.285  0.00  0.00    -0.346 N 
ATOM    114  C   ASP d   1     -13.830  31.382  11.117  0.00  0.00     0.241 C 
ATOM    115  O   ASP d   1     -14.399  31.254  10.033  0.00  0.00    -0.271 OA
ATOM    116  H   HIS d   1     -12.138  31.206  12.220  0.00  0.00     0.163 HD
BRANCH 114 117
ATOM    117  CA  ASP d   1     -14.593  31.867  12.348  0.00  0.00     0.098 C 
ATOM    118  H   ASP d   1     -15.627  31.553  12.204  0.00  0.00     0.088 H 
BRANCH 117 119
ATOM    119  N   ASP d   1     -14.203  31.254  13.624  0.00  0.00    -0.346 N 
ATOM    120  C   ARG d   1     -14.396  29.967  13.913  0.00  0.00     0.241 C 
ATOM    121  O   ARG d   1     -14.817  29.147  13.099  0.00  0.00    -0.271 OA
ATOM    122  H   ASP d   1     -13.760  31.845  14.328  0.00  0.00     0.163 HD
BRANCH 120 123
ATOM    123  CA  ARG d   1     -14.029  29.536  15.335  0.00  0.00     0.089 C 
ATOM    124  H   ARG d   1     -13.185  28.851  15.253  0.00  0.00     0.087 H 
BRANCH 123 125
ATOM    125  N   ARG d   1     -13.649  30.684  16.144  0.00  0.00    -0.346 N 
ATOM    126  C   SER d   1     -12.397  30.939  16.498  0.00  0.00     0.243 C 
ATOM    127  O   SER d   1     -11.436  30.268  16.125  0.00  0.00    -0.271 OA
ATOM    128  H   ARG d   1     -14.381  31.323  16.454  0.00  0.00     0.163 HD
BRANCH 126 129
ATOM    129  CA  SER d   1     -12.210  32.147  17.410  0.00  0.00     0.109 C 
ATOM    130  H   SER d   1     -13.161  32.326  17.912  0.00  0.00     0.090 H 
BRANCH 129 131
ATOM    131  N   SER d   1     -11.219  31.905  18.458  0.00  0.00    -0.344 N 
ATOM    132  C   PRO d   1     -11.525  31.245  19.572  0.00  0.00     0.241 C 
ATOM    133  O   PRO d   1     -12.624  30.724  19.775  0.00  0.00    -0.271 OA
ATOM    134  H   SER d   1     -10.268  32.251  18.331  0.00  0.00     0.163 HD
BRANCH 132 135
ATOM    135  CA  PRO d   1     -10.437  31.153  20.632  0.00  0.00     0.091 C 
ATOM    136  N   PRO d   1     -11.006  31.109  21.986  0.00  0.00    -0.337 N 
ATOM    137  C   ARG d   1     -11.756  32.117  22.467  0.00  0.00     0.251 C 
ATOM    138  CD  PRO d   1     -10.766  29.813  22.644  0.00  0.00    -0.001 C 
ATOM    139  O   ARG d   1     -12.078  33.088  21.781  0.00  0.00    -0.271 OA
ATOM    140  CG  PRO d   1     -10.354  28.925  21.505  0.00  0.00    -0.048 C 
ATOM    141  H   PRO d   1     -11.643  29.440  23.174  0.00  0.00     0.064 H 
ATOM    142  H   PRO d   1     -10.011  29.871  23.428  0.00  0.00     0.064 H 
ATOM    143  CB  PRO d   1      -9.684  29.822  20.520  0.00  0.00    -0.036 C 
ATOM    144  H   PRO d   1      -9.686  28.131  21.840  0.00  0.00     0.035 H 
ATOM    145  H   PRO d   1     -11.212  28.419  21.064  0.00  0.00     0.035 H 
ATOM    146  H   PRO d   1      -8.621  29.937  20.732  0.00  0.00     0.036 H 
ATOM    147  H   PRO d   1      -9.722  29.417  19.509  0.00  0.00     0.036 H 
ATOM    148  H   PRO d   1      -9.801  32.024  20.474  0.00  0.00     0.087 H 
BRANCH 137 149
ATOM    149  CA  ARG d   1     -12.211  32.014  23.927  0.00  0.00     0.176 C 
ATOM    150  H   ARG d   1     -11.645  31.200  24.379  0.00  0.00     0.099 H 
BRANCH 149 151
ATOM    151  N   ARG d   1     -11.918  33.234  24.676  0.00  0.00    -0.067 N 
ATOM    152  H   ARG d   1     -10.922  33.442  24.608  0.00  0.00     0.275 HD
ATOM    153  H   ARG d   1     -12.456  34.008  24.286  0.00  0.00     0.275 HD
ATOM    154  H   ARG d   1     -12.173  33.100  25.655  0.00  0.00     0.275 HD
ENDBRANCH 149 151
BRANCH 149 155
ATOM    155  CB  ARG d   1     -13.704  31.684  24.017  0.00  0.00    -0.029 C 
ATOM    156  H   ARG d   1     -13.833  30.998  24.854  0.00  0.00     0.036 H 
ATOM    157  H   ARG d   1     -14.002  31.270  23.054  0.00  0.00     0.036 H 
BRANCH 155 158
ATOM    158  CG  ARG d   1     -14.592  32.893  24.283  0.00  0.00    -0.047 C 
ATOM    159  H   ARG d   1     -14.548  33.549  23.414  0.00  0.00     0.035 H 
ATOM    160  H   ARG d   1     -14.233  33.392  25.183  0.00  0.00     0.035 H 
BRANCH 158 161
ATOM    161  CD  ARG d   1     -16.046  32.487  24.506  0.00  0.00     0.009 C 
ATOM    162  H   ARG d   1     -16.338  31.823  23.692  0.00  0.00     0.064 H 
ATOM    163  H   ARG d   1     -16.647  33.396  24.541  0.00  0.00     0.064 H 
BRANCH 161 164
ATOM    164  NE  ARG d   1     -16.242  31.769  25.766  0.00  0.00    -0.227 N 
ATOM    165  CZ  ARG d   1     -17.385  31.196  26.134  0.00  0.00     0.665 C 
ATOM    166  NH1 ARG d   1     -18.443  31.248  25.335  0.00  0.00    -0.235 N 
ATOM    167  NH2 ARG d   1     -17.471  30.565  27.299  0.00  0.00    -0.235 N 
ATOM    168  H   ARG d   1     -18.381  31.728  24.437  0.00  0.00     0.174 HD
ATOM    169  H   ARG d   1     -19.319  30.808  25.619  0.00  0.00     0.174 HD
ATOM    170  H   ARG d   1     -16.659  30.518  27.915  0.00  0.00     0.174 HD
ATOM    171  H   ARG d   1     -18.349  30.127  27.578  0.00  0.00     0.174 HD
ATOM    172  H   ARG d   1     -15.450  31.703  26.405  0.00  0.00     0.177 HD
ENDBRANCH 161 164
ENDBRANCH 158 161
ENDBRANCH 155 158
ENDBRANCH 149 155
ENDBRANCH 137 149
ENDBRANCH 132 135
ENDBRANCH 129 131
BRANCH 129 173
ATOM    173  CB  SER d   1     -11.841  33.385  16.585  0.00  0.00     0.044 C 
ATOM    174  H   SER d   1     -10.921  33.176  16.038  0.00  0.00     0.077 H 
ATOM    175  H   SER d   1     -11.716  34.229  17.263  0.00  0.00     0.077 H 
BRANCH 173 176
ATOM    176  OG  SER d   1     -12.858  33.704  15.651  0.00  0.00    -0.398 OA
ATOM    177  H   SER d   1     -13.677  33.882  16.119  0.00  0.00     0.209 HD
ENDBRANCH 173 176
ENDBRANCH 129 173
ENDBRANCH 126 129
ENDBRANCH 123 125
BRANCH 123 178
ATOM    178  CB  ARG d   1     -15.198  28.820  16.016  0.00  0.00    -0.036 C 
ATOM    179  H   ARG d   1     -14.977  27.753  16.049  0.00  0.00     0.036 H 
ATOM    180  H   ARG d   1     -16.105  29.024  15.448  0.00  0.00     0.036 H 
BRANCH 178 181
ATOM    181  CG  ARG d   1     -15.403  29.316  17.450  0.00  0.00    -0.048 C 
ATOM    182  H   ARG d   1     -16.244  30.009  17.431  0.00  0.00     0.035 H 
ATOM    183  H   ARG d   1     -14.460  29.758  17.773  0.00  0.00     0.035 H 
BRANCH 181 184
ATOM    184  CD  ARG d   1     -15.750  28.220  18.455  0.00  0.00     0.009 C 
ATOM    185  H   ARG d   1     -15.313  28.493  19.416  0.00  0.00     0.064 H 
ATOM    186  H   ARG d   1     -15.359  27.277  18.074  0.00  0.00     0.064 H 
BRANCH 184 187
ATOM    187  NE  ARG d   1     -17.191  28.070  18.640  0.00  0.00    -0.227 N 
ATOM    188  CZ  ARG d   1     -17.756  27.526  19.714  0.00  0.00     0.665 C 
ATOM    189  NH1 ARG d   1     -17.009  27.087  20.717  0.00  0.00    -0.235 N 
ATOM    190  NH2 ARG d   1     -19.076  27.427  19.790  0.00  0.00    -0.235 N 
ATOM    191  H   ARG d   1     -15.993  27.165  20.669  0.00  0.00     0.174 HD
ATOM    192  H   ARG d   1     -17.450  26.671  21.537  0.00  0.00     0.174 HD
ATOM    193  H   ARG d   1     -19.658  27.768  19.025  0.00  0.00     0.174 HD
ATOM    194  H   ARG d   1     -19.510  27.010  20.614  0.00  0.00     0.174 HD
ATOM    195  H   ARG d   1     -17.804  28.404  17.897  0.00  0.00     0.177 HD
ENDBRANCH 184 187
ENDBRANCH 181 184
ENDBRANCH 178 181
ENDBRANCH 123 178
ENDBRANCH 120 123
ENDBRANCH 117 119
BRANCH 117 196
ATOM    196  CB  ASP d   1     -14.457  33.387  12.433  0.00  0.00     0.043 C 
ATOM    197  H   ASP d   1     -14.560  33.790  11.425  0.00  0.00     0.052 H 
ATOM    198  H   ASP d   1     -13.488  33.613  12.878  0.00  0.00     0.052 H 
BRANCH 196 199
ATOM    199  CG  ASP d   1     -15.521  34.017  13.295  0.00  0.00     0.175 C 
ATOM    200  OD1 ASP d   1     -15.353  34.028  14.533  0.00  0.00    -0.648 OA
ATOM    201  OD2 ASP d   1     -16.524  34.506  12.732  0.00  0.00    -0.648 OA
ENDBRANCH 196 199
ENDBRANCH 117 196
ENDBRANCH 114 117
ENDBRANCH 111 113
BRANCH 111 202
ATOM    202  CB  HIS d   1     -10.260  31.241  10.452  0.00  0.00     0.004 C 
ATOM    203  H   HIS d   1     -10.307  32.316  10.626  0.00  0.00     0.046 H 
ATOM    204  H   HIS d   1      -9.643  30.969   9.595  0.00  0.00     0.046 H 
BRANCH 202 205
ATOM    205  CG  HIS d   1      -9.651  30.613  11.665  0.00  0.00     0.053 A 
ATOM    206  ND1 HIS d   1      -9.989  30.991  12.947  0.00  0.00    -0.247 NA
ATOM    207  CE1 HIS d   1      -9.305  30.265  13.812  0.00  0.00     0.064 A 
ATOM    208  NE2 HIS d   1      -8.537  29.427  13.138  0.00  0.00    -0.359 N 
ATOM    209  H   HIS d   1      -9.364  30.343  14.898  0.00  0.00     0.143 H 
ATOM    210  CD2 HIS d   1      -8.736  29.623  11.793  0.00  0.00     0.002 A 
ATOM    211  H   HIS d   1      -7.900  28.745  13.550  0.00  0.00     0.166 HD
ATOM    212  H   HIS d   1      -8.249  29.083  10.981  0.00  0.00     0.114 H 
ENDBRANCH 202 205
ENDBRANCH 111 202
ENDBRANCH   1 111
TORSDOF 54
