REMARK WARNING: 32 MAX_TORS EXCEEDED!!!
REMARK  41 active torsions:
REMARK  status: ('A' for Active; 'I' for Inactive)
REMARK    1  A    between atoms: N_1  and  CA_2 
REMARK    2  A    between atoms: CA_2  and  C_3 
REMARK    3  A    between atoms: CA_2  and  CB_5 
REMARK       I    between atoms: C_3  and  N_6 
REMARK    4  A    between atoms: N_6  and  CA_7 
REMARK    5  A    between atoms: CA_7  and  C_8 
REMARK    6  A    between atoms: CA_7  and  CB_10 
REMARK       I    between atoms: C_8  and  N_18 
REMARK    7  A    between atoms: CB_10  and  CG_11 
REMARK    8  A    between atoms: CZ_16  and  OH_17 
REMARK    9  A    between atoms: N_18  and  CA_19 
REMARK   10  A    between atoms: CA_19  and  C_20 
REMARK   11  A    between atoms: CA_19  and  CB_22 
REMARK       I    between atoms: C_20  and  N_26 
REMARK   12  A    between atoms: CB_22  and  CG_23 
REMARK   13  A    between atoms: CA_27  and  C_28 
REMARK       I    between atoms: C_28  and  N_33 
REMARK   14  A    between atoms: N_33  and  CA_34 
REMARK   15  A    between atoms: CA_34  and  C_35 
REMARK   16  A    between atoms: CA_34  and  CB_37 
REMARK       I    between atoms: C_35  and  N_38 
REMARK   17  A    between atoms: N_38  and  CA_39 
REMARK   18  A    between atoms: CA_39  and  C_40 
REMARK   19  A    between atoms: CA_39  and  CB_42 
REMARK       I    between atoms: C_40  and  N_49 
REMARK   20  A    between atoms: CB_42  and  CG_43 
REMARK   21  A    between atoms: CG_43  and  CD_44 
REMARK   22  A    between atoms: CD_44  and  NE_45 
REMARK       I    between atoms: NE_45  and  CZ_46 
REMARK       I    between atoms: CZ_46  and  NH1_47 
REMARK   23  A    between atoms: N_49  and  CA_50 
REMARK   24  A    between atoms: CA_50  and  C_51 
REMARK   25  A    between atoms: CA_50  and  CB_53 
REMARK       I    between atoms: C_51  and  N_58 
REMARK   26  A    between atoms: CB_53  and  CG_54 
REMARK   27  A    between atoms: CG_54  and  CD_55 
REMARK   28  A    between atoms: CD_55  and  CE_56 
REMARK   29  A    between atoms: CE_56  and  NZ_57 
REMARK   30  A    between atoms: N_58  and  CA_59 
REMARK   31  A    between atoms: CA_59  and  C_60 
REMARK   32  A    between atoms: CA_59  and  CB_62 
REMARK       I    between atoms: C_60  and  N_66 
REMARK   33  A    between atoms: CB_62  and  CG_63 
REMARK   34  A    between atoms: CG_63  and  CD1_64 
REMARK   35  A    between atoms: CG_63  and  CD2_65 
REMARK   36  A    between atoms: N_66  and  CA_67 
REMARK   37  A    between atoms: CA_67  and  C_68 
REMARK   38  A    between atoms: CA_67  and  CB_70 
REMARK   39  A    between atoms: CB_70  and  CG_71 
REMARK   40  A    between atoms: CG_71  and  CD1_72 
REMARK   41  A    between atoms: CG_71  and  CD2_73 
ROOT
ATOM      1  CA  ARG d   1     -63.632 -33.710 -56.265  0.00  0.00     0.089 C 
ATOM      2  H34 ARG d   1     -63.689 -32.677 -55.891  0.00  0.00     0.087 H 
ENDROOT
BRANCH   1   3
ATOM      3  N   ARG d   1     -64.266 -33.756 -57.579  0.00  0.00    -0.346 N 
ATOM      4  C   ALA d   1     -63.839 -32.970 -58.562  0.00  0.00     0.240 C 
ATOM      5  O   ALA d   1     -62.972 -32.118 -58.396  0.00  0.00    -0.271 OA
ATOM      6  H33 ARG d   1     -65.027 -34.384 -57.741  0.00  0.00     0.163 HD
BRANCH   4   7
ATOM      7  CA  ALA d   1     -64.476 -33.165 -59.932  0.00  0.00     0.086 C 
ATOM      8  H29 ALA d   1     -63.750 -32.839 -60.692  0.00  0.00     0.086 H 
BRANCH   7   9
ATOM      9  N   ALA d   1     -64.780 -34.569 -60.177  0.00  0.00    -0.346 N 
ATOM     10  C   PRO d   1     -63.885 -35.383 -60.727  0.00  0.00     0.241 C 
ATOM     11  O   PRO d   1     -62.751 -35.017 -61.049  0.00  0.00    -0.271 OA
ATOM     12  H28 ALA d   1     -65.680 -34.927 -59.926  0.00  0.00     0.163 HD
BRANCH  10  13
ATOM     13  CA  PRO d   1     -64.319 -36.833 -60.962  0.00  0.00     0.091 C 
ATOM     14  N   PRO d   1     -65.367 -37.278 -60.036  0.00  0.00    -0.337 N 
ATOM     15  C   ASP d   1     -65.164 -37.252 -58.706  0.00  0.00     0.243 C 
ATOM     16  CD  PRO d   1     -66.586 -37.681 -60.756  0.00  0.00    -0.001 C 
ATOM     17  O   ASP d   1     -64.116 -36.853 -58.210  0.00  0.00    -0.271 OA
ATOM     18  CG  PRO d   1     -66.451 -36.953 -62.056  0.00  0.00    -0.048 C 
ATOM     19  H26 PRO d   1     -67.490 -37.364 -60.215  0.00  0.00     0.064 H 
ATOM     20  H27 PRO d   1     -66.614 -38.770 -60.911  0.00  0.00     0.064 H 
ATOM     21  CB  PRO d   1     -64.990 -36.968 -62.337  0.00  0.00    -0.036 C 
ATOM     22  H24 PRO d   1     -67.006 -37.471 -62.852  0.00  0.00     0.035 H 
ATOM     23  H25 PRO d   1     -66.819 -35.921 -61.964  0.00  0.00     0.035 H 
ATOM     24  H22 PRO d   1     -64.699 -37.913 -62.818  0.00  0.00     0.036 H 
ATOM     25  H23 PRO d   1     -64.713 -36.125 -62.987  0.00  0.00     0.036 H 
ATOM     26  H21 PRO d   1     -63.438 -37.487 -60.887  0.00  0.00     0.087 H 
BRANCH  15  27
ATOM     27  CA  ASP d   1     -66.307 -37.729 -57.802  0.00  0.00     0.099 C 
ATOM     28  H18 ASP d   1     -66.118 -37.340 -56.791  0.00  0.00     0.088 H 
BRANCH  27  29
ATOM     29  N   ASP d   1     -67.596 -37.209 -58.242  0.00  0.00    -0.345 N 
ATOM     30  C   TYR d   1     -67.819 -35.901 -58.327  0.00  0.00     0.241 C 
ATOM     31  O   TYR d   1     -67.010 -35.057 -57.935  0.00  0.00    -0.271 OA
ATOM     32  H17 ASP d   1     -68.326 -37.848 -58.484  0.00  0.00     0.163 HD
BRANCH  30  33
ATOM     33  CA  TYR d   1     -69.156 -35.486 -58.947  0.00  0.00     0.093 C 
ATOM     34  H9  TYR d   1     -68.947 -35.001 -59.912  0.00  0.00     0.088 H 
BRANCH  33  35
ATOM     35  N   TYR d   1     -69.997 -36.651 -59.200  0.00  0.00    -0.346 N 
ATOM     36  C   ALA d   1     -70.159 -37.150 -60.423  0.00  0.00     0.248 C 
ATOM     37  O   ALA d   1     -69.713 -36.606 -61.440  0.00  0.00    -0.271 OA
ATOM     38  H8  TYR d   1     -70.466 -37.087 -58.432  0.00  0.00     0.163 HD
BRANCH  36  39
ATOM     39  CA  ALA d   1     -70.956 -38.451 -60.509  0.00  0.00     0.172 C 
ATOM     40  H4  ALA d   1     -70.619 -39.004 -61.398  0.00  0.00     0.098 H 
BRANCH  39  41
ATOM     41  N   ALA d   1     -70.715 -39.287 -59.333  0.00  0.00    -0.067 N 
ATOM     42  H1  ALA d   1     -71.249 -40.138 -59.411  0.00  0.00     0.275 HD
ATOM     43  H2  ALA d   1     -70.996 -38.788 -58.503  0.00  0.00     0.275 HD
ATOM     44  H3  ALA d   1     -69.734 -39.511 -59.275  0.00  0.00     0.275 HD
ENDBRANCH  39  41
BRANCH  39  45
ATOM     45  CB  ALA d   1     -72.446 -38.154 -60.665  0.00  0.00    -0.042 C 
ATOM     46  H5  ALA d   1     -72.603 -37.525 -61.554  0.00  0.00     0.030 H 
ATOM     47  H6  ALA d   1     -72.810 -37.624 -59.772  0.00  0.00     0.030 H 
ATOM     48  H7  ALA d   1     -72.998 -39.098 -60.782  0.00  0.00     0.030 H 
ENDBRANCH  39  45
ENDBRANCH  36  39
ENDBRANCH  33  35
BRANCH  33  49
ATOM     49  CB  TYR d   1     -69.882 -34.474 -58.056  0.00  0.00    -0.014 C 
ATOM     50  H10 TYR d   1     -69.160 -33.709 -57.733  0.00  0.00     0.043 H 
ATOM     51  H11 TYR d   1     -70.277 -35.001 -57.175  0.00  0.00     0.043 H 
BRANCH  49  52
ATOM     52  CG  TYR d   1     -71.021 -33.792 -58.757  0.00  0.00    -0.056 A 
ATOM     53  CD1 TYR d   1     -70.807 -32.669 -59.540  0.00  0.00    -0.074 A 
ATOM     54  CE1 TYR d   1     -71.851 -32.045 -60.195  0.00  0.00    -0.051 A 
ATOM     55  H12 TYR d   1     -69.803 -32.273 -59.640  0.00  0.00     0.084 H 
ATOM     56  CZ  TYR d   1     -73.130 -32.549 -60.076  0.00  0.00     0.065 A 
ATOM     57  H14 TYR d   1     -71.666 -31.164 -60.799  0.00  0.00     0.087 H 
ATOM     58  CE2 TYR d   1     -73.368 -33.664 -59.309  0.00  0.00    -0.051 A 
ATOM     59  CD2 TYR d   1     -72.314 -34.283 -58.657  0.00  0.00    -0.074 A 
ATOM     60  H15 TYR d   1     -74.374 -34.057 -59.215  0.00  0.00     0.087 H 
ATOM     61  H13 TYR d   1     -72.503 -35.167 -58.058  0.00  0.00     0.084 H 
BRANCH  56  62
ATOM     62  OH  TYR d   1     -74.177 -31.936 -60.722  0.00  0.00    -0.361 OA
ATOM     63  H16 TYR d   1     -73.853 -31.186 -61.207  0.00  0.00     0.217 HD
ENDBRANCH  56  62
ENDBRANCH  49  52
ENDBRANCH  33  49
ENDBRANCH  30  33
ENDBRANCH  27  29
BRANCH  27  64
ATOM     64  CB  ASP d   1     -66.333 -39.259 -57.718  0.00  0.00     0.043 C 
ATOM     65  H19 ASP d   1     -65.343 -39.611 -57.392  0.00  0.00     0.052 H 
ATOM     66  H20 ASP d   1     -66.555 -39.663 -58.717  0.00  0.00     0.052 H 
BRANCH  64  67
ATOM     67  CG  ASP d   1     -67.380 -39.774 -56.740  0.00  0.00     0.175 C 
ATOM     68  OD1 ASP d   1     -67.844 -38.977 -55.894  0.00  0.00    -0.648 OA
ATOM     69  OD2 ASP d   1     -67.732 -40.974 -56.813  0.00  0.00    -0.648 OA
ENDBRANCH  64  67
ENDBRANCH  27  64
ENDBRANCH  15  27
ENDBRANCH  10  13
ENDBRANCH   7   9
BRANCH   7  70
ATOM     70  CB  ALA d   1     -65.723 -32.307 -60.076  0.00  0.00    -0.049 C 
ATOM     71  H30 ALA d   1     -65.467 -31.254 -59.887  0.00  0.00     0.030 H 
ATOM     72  H31 ALA d   1     -66.481 -32.637 -59.350  0.00  0.00     0.030 H 
ATOM     73  H32 ALA d   1     -66.123 -32.410 -61.096  0.00  0.00     0.030 H 
ENDBRANCH   7  70
ENDBRANCH   4   7
ENDBRANCH   1   3
BRANCH   1  74
ATOM     74  C   ARG d   1     -62.166 -34.117 -56.353  0.00  0.00     0.241 C 
ATOM     75  O   ARG d   1     -61.337 -33.672 -55.557  0.00  0.00    -0.271 OA
ATOM     76  N   LYS d   1     -61.856 -34.974 -57.319  0.00  0.00    -0.346 N 
ATOM     77  H46 LYS d   1     -62.575 -35.303 -57.931  0.00  0.00     0.163 HD
BRANCH  76  78
ATOM     78  CA  LYS d   1     -60.492 -35.444 -57.506  0.00  0.00     0.089 C 
ATOM     79  H47 LYS d   1     -60.165 -35.950 -56.586  0.00  0.00     0.087 H 
BRANCH  78  80
ATOM     80  C   LYS d   1     -59.560 -34.270 -57.779  0.00  0.00     0.241 C 
ATOM     81  O   LYS d   1     -58.431 -34.233 -57.283  0.00  0.00    -0.271 OA
ATOM     82  N   LEU d   1     -60.045 -33.308 -58.560  0.00  0.00    -0.346 N 
ATOM     83  H59 LEU d   1     -60.999 -33.356 -58.856  0.00  0.00     0.163 HD
BRANCH  82  84
ATOM     84  CA  LEU d   1     -59.222 -32.183 -58.997  0.00  0.00     0.089 C 
ATOM     85  H60 LEU d   1     -58.240 -32.590 -59.279  0.00  0.00     0.087 H 
BRANCH  84  86
ATOM     86  C   LEU d   1     -58.978 -31.150 -57.894  0.00  0.00     0.241 C 
ATOM     87  O   LEU d   1     -58.145 -30.251 -58.046  0.00  0.00    -0.271 OA
ATOM     88  N   LEU d   1     -59.706 -31.288 -56.788  0.00  0.00    -0.345 N 
ATOM     89  H70 LEU d   1     -60.447 -31.960 -56.774  0.00  0.00     0.163 HD
BRANCH  88  90
ATOM     90  CA  LEU d   1     -59.453 -30.486 -55.595  0.00  0.00     0.096 C 
ATOM     91  H71 LEU d   1     -59.215 -29.460 -55.911  0.00  0.00     0.089 H 
BRANCH  90  92
ATOM     92  C   LEU d   1     -58.252 -31.046 -54.822  0.00  0.00     0.196 C 
ATOM     93  O   LEU d   1     -58.300 -31.229 -53.602  0.00  0.00    -0.646 OA
ATOM     94  OXT LEU d   1     -57.196 -31.333 -55.393  0.00  0.00    -0.646 OA
ENDBRANCH  90  92
BRANCH  90  95
ATOM     95  CB  LEU d   1     -60.694 -30.438 -54.702  0.00  0.00    -0.034 C 
ATOM     96  H72 LEU d   1     -60.437 -29.857 -53.804  0.00  0.00     0.037 H 
ATOM     97  H73 LEU d   1     -60.937 -31.471 -54.413  0.00  0.00     0.037 H 
BRANCH  95  98
ATOM     98  CG  LEU d   1     -61.955 -29.817 -55.311  0.00  0.00    -0.059 C 
ATOM     99  H74 LEU d   1     -62.293 -30.463 -56.135  0.00  0.00     0.038 H 
BRANCH  98 100
ATOM    100  CD1 LEU d   1     -63.066 -29.735 -54.279  0.00  0.00    -0.073 C 
ATOM    101  H75 LEU d   1     -63.960 -29.287 -54.737  0.00  0.00     0.028 H 
ATOM    102  H76 LEU d   1     -62.736 -29.113 -53.434  0.00  0.00     0.028 H 
ATOM    103  H77 LEU d   1     -63.307 -30.746 -53.918  0.00  0.00     0.028 H 
ENDBRANCH  98 100
BRANCH  98 104
ATOM    104  CD2 LEU d   1     -61.664 -28.441 -55.873  0.00  0.00    -0.073 C 
ATOM    105  H78 LEU d   1     -60.858 -28.512 -56.619  0.00  0.00     0.028 H 
ATOM    106  H79 LEU d   1     -61.351 -27.771 -55.059  0.00  0.00     0.028 H 
ATOM    107  H80 LEU d   1     -62.571 -28.040 -56.350  0.00  0.00     0.028 H 
ENDBRANCH  98 104
ENDBRANCH  95  98
ENDBRANCH  90  95
ENDBRANCH  88  90
ENDBRANCH  84  86
BRANCH  84 108
ATOM    108  CB  LEU d   1     -59.824 -31.530 -60.242  0.00  0.00    -0.035 C 
ATOM    109  H61 LEU d   1     -59.190 -30.677 -60.525  0.00  0.00     0.037 H 
ATOM    110  H62 LEU d   1     -60.832 -31.170 -59.990  0.00  0.00     0.037 H 
BRANCH 108 111
ATOM    111  CG  LEU d   1     -59.936 -32.466 -61.449  0.00  0.00    -0.059 C 
ATOM    112  H63 LEU d   1     -60.680 -33.242 -61.214  0.00  0.00     0.038 H 
BRANCH 111 113
ATOM    113  CD1 LEU d   1     -60.410 -31.717 -62.690  0.00  0.00    -0.073 C 
ATOM    114  H64 LEU d   1     -60.479 -32.416 -63.536  0.00  0.00     0.028 H 
ATOM    115  H65 LEU d   1     -59.693 -30.918 -62.932  0.00  0.00     0.028 H 
ATOM    116  H66 LEU d   1     -61.399 -31.276 -62.497  0.00  0.00     0.028 H 
ENDBRANCH 111 113
BRANCH 111 117
ATOM    117  CD2 LEU d   1     -58.595 -33.150 -61.709  0.00  0.00    -0.073 C 
ATOM    118  H67 LEU d   1     -58.273 -33.683 -60.802  0.00  0.00     0.028 H 
ATOM    119  H68 LEU d   1     -57.843 -32.393 -61.976  0.00  0.00     0.028 H 
ATOM    120  H69 LEU d   1     -58.703 -33.867 -62.536  0.00  0.00     0.028 H 
ENDBRANCH 111 117
ENDBRANCH 108 111
ENDBRANCH  84 108
ENDBRANCH  82  84
ENDBRANCH  78  80
BRANCH  78 121
ATOM    121  CB  LYS d   1     -60.423 -36.439 -58.667  0.00  0.00    -0.038 C 
ATOM    122  H48 LYS d   1     -60.720 -35.915 -59.587  0.00  0.00     0.036 H 
ATOM    123  H49 LYS d   1     -61.133 -37.255 -58.464  0.00  0.00     0.036 H 
BRANCH 121 124
ATOM    124  CG  LYS d   1     -59.045 -37.051 -58.891  0.00  0.00    -0.061 C 
ATOM    125  H50 LYS d   1     -59.013 -38.046 -58.424  0.00  0.00     0.033 H 
ATOM    126  H51 LYS d   1     -58.285 -36.404 -58.429  0.00  0.00     0.033 H 
BRANCH 124 127
ATOM    127  CD  LYS d   1     -58.746 -37.188 -60.377  0.00  0.00    -0.043 C 
ATOM    128  H52 LYS d   1     -58.410 -36.215 -60.764  0.00  0.00     0.035 H 
ATOM    129  H53 LYS d   1     -59.665 -37.493 -60.899  0.00  0.00     0.035 H 
BRANCH 127 130
ATOM    130  CE  LYS d   1     -57.667 -38.220 -60.637  0.00  0.00     0.080 C 
ATOM    131  H54 LYS d   1     -56.752 -37.922 -60.103  0.00  0.00     0.075 H 
ATOM    132  H55 LYS d   1     -57.465 -38.261 -61.717  0.00  0.00     0.075 H 
BRANCH 130 133
ATOM    133  NZ  LYS d   1     -58.080 -39.574 -60.171  0.00  0.00    -0.079 N 
ATOM    134  H56 LYS d   1     -57.341 -40.234 -60.359  0.00  0.00     0.274 HD
ATOM    135  H57 LYS d   1     -58.915 -39.857 -60.659  0.00  0.00     0.274 HD
ATOM    136  H58 LYS d   1     -58.263 -39.547 -59.180  0.00  0.00     0.274 HD
ENDBRANCH 130 133
ENDBRANCH 127 130
ENDBRANCH 124 127
ENDBRANCH 121 124
ENDBRANCH  78 121
ENDBRANCH  76  78
ENDBRANCH   1  74
BRANCH   1 137
ATOM    137  CB  ARG d   1     -64.344 -34.625 -55.276  0.00  0.00    -0.036 C 
ATOM    138  H35 ARG d   1     -63.696 -34.749 -54.396  0.00  0.00     0.036 H 
ATOM    139  H36 ARG d   1     -64.495 -35.601 -55.760  0.00  0.00     0.036 H 
BRANCH 137 140
ATOM    140  CG  ARG d   1     -65.681 -34.124 -54.805  0.00  0.00    -0.048 C 
ATOM    141  H37 ARG d   1     -66.446 -34.356 -55.561  0.00  0.00     0.035 H 
ATOM    142  H38 ARG d   1     -65.632 -33.035 -54.655  0.00  0.00     0.035 H 
BRANCH 140 143
ATOM    143  CD  ARG d   1     -66.042 -34.795 -53.503  0.00  0.00     0.009 C 
ATOM    144  H39 ARG d   1     -65.545 -34.263 -52.678  0.00  0.00     0.064 H 
ATOM    145  H40 ARG d   1     -65.692 -35.837 -53.531  0.00  0.00     0.064 H 
BRANCH 143 146
ATOM    146  NE  ARG d   1     -67.479 -34.787 -53.271  0.00  0.00    -0.227 N 
ATOM    147  CZ  ARG d   1     -68.142 -33.760 -52.756  0.00  0.00     0.665 C 
ATOM    148  NH1 ARG d   1     -67.490 -32.655 -52.425  0.00  0.00    -0.235 N 
ATOM    149  NH2 ARG d   1     -69.456 -33.836 -52.579  0.00  0.00    -0.235 N 
ATOM    150  H42 ARG d   1     -68.001 -31.855 -52.025  0.00  0.00     0.174 HD
ATOM    151  H43 ARG d   1     -66.472 -32.596 -52.568  0.00  0.00     0.174 HD
ATOM    152  H44 ARG d   1     -69.962 -34.696 -52.837  0.00  0.00     0.174 HD
ATOM    153  H45 ARG d   1     -69.970 -33.035 -52.184  0.00  0.00     0.174 HD
ATOM    154  H41 ARG d   1     -68.014 -35.631 -53.522  0.00  0.00     0.177 HD
ENDBRANCH 143 146
ENDBRANCH 140 143
ENDBRANCH 137 140
ENDBRANCH   1 137
TORSDOF 41
