REMARK  4 active torsions:
REMARK  status: ('A' for Active; 'I' for Inactive)
REMARK    1  A    between atoms: C1_1  and  S1_12 
REMARK    2  A    between atoms: N4_8  and  C2_2 
REMARK    3  A    between atoms: C3_3  and  C4_4 
REMARK       I    between atoms: C3_3  and  N4_8 
REMARK    4  A    between atoms: S1_12  and  N1_5 
ROOT
ATOM      1  C1  AZM d   1      14.595  35.752  73.271  0.00  0.00     0.237 A 
ATOM      2  C2  AZM d   1      15.039  37.580  74.713  0.00  0.00     0.197 A 
ATOM      3  N2  AZM d   1      14.491  36.519  75.319  0.00  0.00    -0.122 NA
ATOM      4  N3  AZM d   1      14.249  35.558  74.557  0.00  0.00    -0.126 NA
ATOM      5  S2  AZM d   1      15.214  37.222  73.118  0.00  0.00    -0.015 SA
ENDROOT
BRANCH   2   6
ATOM      6  N4  AZM d   1      15.388  38.738  75.320  0.00  0.00    -0.305 N 
ATOM      7  C3  AZM d   1      15.808  39.731  74.530  0.00  0.00     0.219 C 
ATOM      8  O3  AZM d   1      15.851  39.627  73.310  0.00  0.00    -0.274 OA
ATOM      9  H6  AZM d   1      15.334  38.846  76.313  0.00  0.00     0.171 HD
BRANCH   7  10
ATOM     10  C4  AZM d   1      16.216  41.004  75.262  0.00  0.00    -0.002 C 
ATOM     11  H1  AZM d   1      16.545  41.758  74.531  0.00  0.00     0.040 H 
ATOM     12  H2  AZM d   1      17.041  40.781  75.954  0.00  0.00     0.040 H 
ATOM     13  H3  AZM d   1      15.357  41.393  75.829  0.00  0.00     0.040 H 
ENDBRANCH   7  10
ENDBRANCH   2   6
BRANCH   1  14
ATOM     14  S1  AZM d   1      14.367  34.583  71.994  0.00  0.00     0.282 S 
ATOM     15  O1  AZM d   1      14.965  35.121  70.690  0.00  0.00    -0.199 OA
ATOM     16  O2  AZM d   1      12.864  34.329  71.805  0.00  0.00    -0.199 OA
BRANCH  14  17
ATOM     17  N1  AZM d   1      15.045  33.301  72.363  0.00  0.00    -0.323 N 
ATOM     18  H4  AZM d   1      15.012  32.520  71.739  0.00  0.00     0.169 HD
ATOM     19  H5  AZM d   1      15.531  33.225  73.234  0.00  0.00     0.169 HD
ENDBRANCH  14  17
ENDBRANCH   1  14
TORSDOF 4
