REMARK  10 active torsions:
REMARK  status: ('A' for Active; 'I' for Inactive)
REMARK    1  A    between atoms: PG_1  and  O3B_5 
REMARK    2  A    between atoms: O3B_5  and  PB_6 
REMARK    3  A    between atoms: PB_6  and  O3A_9 
REMARK    4  A    between atoms: O3A_9  and  PA_10 
REMARK    5  A    between atoms: PA_10  and  O5'_13 
REMARK    6  A    between atoms: O5'_13  and  C5'_14 
REMARK    7  A    between atoms: C5'_14  and  C4'_15 
REMARK    8  A    between atoms: C3'_17  and  O3'_18 
REMARK    9  A    between atoms: C2'_19  and  O2'_20 
REMARK   10  A    between atoms: C1'_21  and  N9_22 
ROOT
ATOM      1  C4' GTP d   1       6.232  16.043  24.250  0.00  0.00     0.089 C 
ATOM      2  O4' GTP d   1       4.895  15.568  24.352  0.00  0.00    -0.353 OA
ATOM      3  C3' GTP d   1       7.094  14.842  23.895  0.00  0.00     0.091 C 
ATOM      4  C2' GTP d   1       6.111  13.800  23.409  0.00  0.00     0.105 C 
ATOM      5  C1' GTP d   1       4.863  14.162  24.202  0.00  0.00     0.139 C 
ATOM      6  H   GTP d   1       6.583  16.488  25.181  0.00  0.00     0.090 H 
ATOM      7  H   GTP d   1       7.860  15.076  23.156  0.00  0.00     0.091 H 
ATOM      8  H   GTP d   1       5.949  13.803  22.331  0.00  0.00     0.093 H 
ATOM      9  H   GTP d   1       4.854  13.658  25.169  0.00  0.00     0.122 H 
ENDROOT
BRANCH   1  10
ATOM     10  C5' GTP d   1       6.306  17.133  23.178  0.00  0.00     0.058 C 
ATOM     11  H   GTP d   1       5.554  17.900  23.362  0.00  0.00     0.079 H 
ATOM     12  H   GTP d   1       7.282  17.619  23.196  0.00  0.00     0.079 H 
BRANCH  10  13
ATOM     13  O5' GTP d   1       6.084  16.513  21.922  0.00  0.00    -0.287 OA
BRANCH  13  14
ATOM     14  PA  GTP d   1       6.524  17.200  20.541  0.00  0.00     0.417 P 
ATOM     15  O1A GTP d   1       7.861  17.883  20.673  0.00  0.00    -0.624 OA
ATOM     16  O2A GTP d   1       6.496  16.195  19.437  0.00  0.00    -0.624 OA
BRANCH  14  17
ATOM     17  O3A GTP d   1       5.324  18.264  20.373  0.00  0.00    -0.180 OA
BRANCH  17  18
ATOM     18  PB  GTP d   1       5.322  19.522  19.370  0.00  0.00     0.428 P 
ATOM     19  O1B GTP d   1       6.030  19.131  18.106  0.00  0.00    -0.624 OA
ATOM     20  O2B GTP d   1       3.893  19.960  19.170  0.00  0.00    -0.624 OA
BRANCH  18  21
ATOM     21  O3B GTP d   1       6.198  20.591  20.185  0.00  0.00    -0.173 OA
BRANCH  21  22
ATOM     22  PG  GTP d   1       6.993  21.869  19.632  0.00  0.00     0.431 P 
ATOM     23  O1G GTP d   1       7.865  22.270  20.796  0.00  0.00    -0.616 OA
ATOM     24  O2G GTP d   1       7.820  21.559  18.424  0.00  0.00    -0.616 OA
ATOM     25  O3G GTP d   1       6.006  22.960  19.305  0.00  0.00    -0.616 OA
ENDBRANCH  21  22
ENDBRANCH  18  21
ENDBRANCH  17  18
ENDBRANCH  14  17
ENDBRANCH  13  14
ENDBRANCH  10  13
ENDBRANCH   1  10
BRANCH   3  26
ATOM     26  O3' GTP d   1       7.727  14.369  25.063  0.00  0.00    -0.390 OA
ATOM     27  H   GTP d   1       8.273  13.610  24.845  0.00  0.00     0.210 HD
ENDBRANCH   3  26
BRANCH   5  28
ATOM     28  N9  GTP d   1       3.636  13.723  23.520  0.00  0.00    -0.295 N 
ATOM     29  C8  GTP d   1       3.162  14.126  22.298  0.00  0.00     0.071 A 
ATOM     30  N7  GTP d   1       2.005  13.471  22.059  0.00  0.00    -0.234 NA
ATOM     31  H   GTP d   1       3.636  14.849  21.635  0.00  0.00     0.144 H 
ATOM     32  C5  GTP d   1       1.737  12.653  23.099  0.00  0.00     0.171 A 
ATOM     33  C6  GTP d   1       0.697  11.768  23.373  0.00  0.00     0.292 A 
ATOM     34  C4  GTP d   1       2.754  12.816  24.032  0.00  0.00     0.161 A 
ATOM     35  O6  GTP d   1      -0.232  11.597  22.574  0.00  0.00    -0.265 OA
ATOM     36  N1  GTP d   1       0.716  11.068  24.568  0.00  0.00    -0.154 N 
ATOM     37  C2  GTP d   1       1.741  11.241  25.472  0.00  0.00     0.680 A 
ATOM     38  H   GTP d   1      -0.039  10.416  24.782  0.00  0.00     0.187 HD
ATOM     39  N2  GTP d   1       1.746  10.557  26.616  0.00  0.00    -0.234 N 
ATOM     40  N3  GTP d   1       2.765  12.119  25.195  0.00  0.00    -0.174 N 
ATOM     41  H   GTP d   1       0.990   9.904  26.823  0.00  0.00     0.174 HD
ATOM     42  H   GTP d   1       2.506  10.686  27.284  0.00  0.00     0.174 HD
ATOM     43  H   GTP d   1       3.527  12.244  25.861  0.00  0.00     0.186 HD
ENDBRANCH   5  28
BRANCH   4  44
ATOM     44  O2' GTP d   1       6.567  12.491  23.661  0.00  0.00    -0.388 OA
ATOM     45  H   GTP d   1       7.402  12.352  23.209  0.00  0.00     0.210 HD
ENDBRANCH   4  44
TORSDOF 10
