REMARK  9 active torsions:
REMARK  status: ('A' for Active; 'I' for Inactive)
REMARK    1  A    between atoms: PB_1  and  O3A_5 
REMARK    2  A    between atoms: O3A_5  and  PA_6 
REMARK    3  A    between atoms: PA_6  and  O5'_9 
REMARK    4  A    between atoms: O5'_9  and  C5'_10 
REMARK    5  A    between atoms: C5'_10  and  C4'_11 
REMARK    6  A    between atoms: C3'_13  and  O3'_14 
REMARK    7  A    between atoms: C2'_15  and  O2'_16 
REMARK    8  A    between atoms: C1'_17  and  N9_18 
REMARK    9  A    between atoms: C2_25  and  N2_26 
ROOT
ATOM      1  C4' GDP d   1     -18.284 -29.696   3.022  0.00  0.00     0.089 C 
ATOM      2  O4' GDP d   1     -17.172 -29.592   2.129  0.00  0.00    -0.353 OA
ATOM      3  C3' GDP d   1     -18.147 -31.027   3.755  0.00  0.00     0.091 C 
ATOM      4  C2' GDP d   1     -16.731 -31.497   3.457  0.00  0.00     0.105 C 
ATOM      5  C1' GDP d   1     -16.417 -30.805   2.141  0.00  0.00     0.139 C 
ATOM      6  H   GDP d   1     -19.238 -29.676   2.496  0.00  0.00     0.090 H 
ATOM      7  H   GDP d   1     -18.312 -30.948   4.830  0.00  0.00     0.091 H 
ATOM      8  H   GDP d   1     -16.043 -31.252   4.266  0.00  0.00     0.093 H 
ATOM      9  H   GDP d   1     -16.694 -31.436   1.297  0.00  0.00     0.122 H 
ENDROOT
BRANCH   5  10
ATOM     10  N9  GDP d   1     -14.962 -30.560   1.977  0.00  0.00    -0.295 N 
ATOM     11  C8  GDP d   1     -14.169 -29.763   2.719  0.00  0.00     0.071 A 
ATOM     12  N7  GDP d   1     -12.887 -29.799   2.266  0.00  0.00    -0.234 NA
ATOM     13  H   GDP d   1     -14.509 -29.169   3.568  0.00  0.00     0.144 H 
ATOM     14  C5  GDP d   1     -12.851 -30.639   1.213  0.00  0.00     0.171 A 
ATOM     15  C6  GDP d   1     -11.828 -31.142   0.263  0.00  0.00     0.292 A 
ATOM     16  C4  GDP d   1     -14.222 -31.134   1.031  0.00  0.00     0.161 A 
ATOM     17  O6  GDP d   1     -10.637 -30.775   0.342  0.00  0.00    -0.265 OA
ATOM     18  N1  GDP d   1     -12.218 -32.003  -0.688  0.00  0.00    -0.154 N 
ATOM     19  C2  GDP d   1     -13.495 -32.427  -0.804  0.00  0.00     0.680 A 
ATOM     20  H   GDP d   1     -11.524 -32.351  -1.349  0.00  0.00     0.187 HD
ATOM     21  N3  GDP d   1     -14.481 -32.007   0.027  0.00  0.00    -0.174 N 
ATOM     22  H   GDP d   1     -15.431 -32.353  -0.105  0.00  0.00     0.186 HD
BRANCH  19  23
ATOM     23  N2  GDP d   1     -13.822 -33.299  -1.787  0.00  0.00    -0.234 N 
ATOM     24  H   GDP d   1     -13.106 -33.631  -2.433  0.00  0.00     0.174 HD
ATOM     25  H   GDP d   1     -14.784 -33.624  -1.881  0.00  0.00     0.174 HD
ENDBRANCH  19  23
ENDBRANCH   5  10
BRANCH   4  26
ATOM     26  O2' GDP d   1     -16.615 -32.918   3.333  0.00  0.00    -0.388 OA
ATOM     27  H   GDP d   1     -17.176 -33.222   2.616  0.00  0.00     0.210 HD
ENDBRANCH   4  26
BRANCH   1  28
ATOM     28  C5' GDP d   1     -18.277 -28.504   3.975  0.00  0.00     0.058 C 
ATOM     29  H   GDP d   1     -18.236 -27.577   3.403  0.00  0.00     0.079 H 
ATOM     30  H   GDP d   1     -19.185 -28.511   4.577  0.00  0.00     0.079 H 
BRANCH  28  31
ATOM     31  O5' GDP d   1     -17.136 -28.594   4.826  0.00  0.00    -0.287 OA
BRANCH  31  32
ATOM     32  PA  GDP d   1     -16.995 -27.662   6.123  0.00  0.00     0.418 P 
ATOM     33  O1A GDP d   1     -18.196 -27.782   7.030  0.00  0.00    -0.624 OA
ATOM     34  O2A GDP d   1     -15.733 -28.003   6.876  0.00  0.00    -0.624 OA
BRANCH  32  35
ATOM     35  O3A GDP d   1     -16.892 -26.205   5.447  0.00  0.00    -0.173 OA
BRANCH  35  36
ATOM     36  PB  GDP d   1     -16.860 -24.841   6.306  0.00  0.00     0.431 P 
ATOM     37  O1B GDP d   1     -16.378 -25.102   7.712  0.00  0.00    -0.616 OA
ATOM     38  O2B GDP d   1     -15.928 -23.877   5.612  0.00  0.00    -0.616 OA
ATOM     39  O3B GDP d   1     -18.253 -24.250   6.381  0.00  0.00    -0.616 OA
ENDBRANCH  35  36
ENDBRANCH  32  35
ENDBRANCH  31  32
ENDBRANCH  28  31
ENDBRANCH   1  28
BRANCH   3  40
ATOM     40  O3' GDP d   1     -19.126 -31.943   3.247  0.00  0.00    -0.390 OA
ATOM     41  H   GDP d   1     -19.045 -32.783   3.705  0.00  0.00     0.210 HD
ENDBRANCH   3  40
TORSDOF 9
