REMARK  7 active torsions:
REMARK  status: ('A' for Active; 'I' for Inactive)
REMARK    1  A    between atoms: C4_6  and  S1_1 
REMARK    2  A    between atoms: S1_1  and  C7_9 
REMARK       I    between atoms: C5_7  and  N2_2 
REMARK    3  A    between atoms: C3_4  and  C5_7 
REMARK    4  A    between atoms: C17_19  and  C3_4 
REMARK    5  A    between atoms: C6_8  and  C10_12 
REMARK       I    between atoms: C10_12  and  N14_16 
REMARK    6  A    between atoms: N14_16  and  C13_15 
REMARK    7  A    between atoms: C13_15  and  C15_17 
ROOT
ATOM      1  N2  424 d   1      32.338 -28.258 -13.994  0.00  0.00    -0.336 N 
ATOM      2  C4  424 d   1      31.385 -26.155 -13.235  0.00  0.00     0.067 C 
ATOM      3  C5  424 d   1      32.483 -29.401 -14.691  0.00  0.00     0.234 C 
ATOM      4  C6  424 d   1      33.427 -27.364 -13.627  0.00  0.00     0.093 C 
ATOM      5  C8  424 d   1      31.049 -27.625 -13.581  0.00  0.00     0.015 C 
ATOM      6  C9  424 d   1      32.837 -26.271 -12.720  0.00  0.00    -0.020 C 
ATOM      7  O22 424 d   1      33.601 -29.776 -14.999  0.00  0.00    -0.272 OA
ATOM      8  H   424 d   1      30.658 -25.739 -12.537  0.00  0.00     0.067 H 
ATOM      9  H   424 d   1      33.873 -26.978 -14.543  0.00  0.00     0.087 H 
ATOM     10  H   424 d   1      30.613 -28.141 -12.726  0.00  0.00     0.066 H 
ATOM     11  H   424 d   1      30.308 -27.683 -14.379  0.00  0.00     0.066 H 
ATOM     12  H   424 d   1      32.895 -26.519 -11.660  0.00  0.00     0.038 H 
ATOM     13  H   424 d   1      33.385 -25.330 -12.774  0.00  0.00     0.038 H 
ENDROOT
BRANCH   3  14
ATOM     14  C3  424 d   1      31.249 -30.208 -15.017  0.00  0.00     0.068 A 
ATOM     15  C11 424 d   1      30.459 -29.786 -16.266  0.00  0.00    -0.044 A 
ATOM     16  C12 424 d   1      31.322 -31.051 -16.277  0.00  0.00    -0.044 A 
ATOM     17  H   424 d   1      30.294 -28.897 -16.874  0.00  0.00     0.035 H 
ATOM     18  H   424 d   1      29.450 -29.476 -16.536  0.00  0.00     0.035 H 
ATOM     19  H   424 d   1      31.225 -32.099 -16.561  0.00  0.00     0.035 H 
ATOM     20  H   424 d   1      32.086 -31.509 -16.906  0.00  0.00     0.035 H 
BRANCH  14  21
ATOM     21  C17 424 d   1      30.507 -30.702 -13.787  0.00  0.00    -0.040 A 
ATOM     22  C25 424 d   1      29.198 -30.338 -13.519  0.00  0.00    -0.074 A 
ATOM     23  C30 424 d   1      28.554 -30.770 -12.363  0.00  0.00    -0.061 A 
ATOM     24  H   424 d   1      28.663 -29.703 -14.225  0.00  0.00     0.084 H 
ATOM     25  C27 424 d   1      29.194 -31.593 -11.454  0.00  0.00     0.034 A 
ATOM     26  H   424 d   1      27.529 -30.454 -12.171  0.00  0.00     0.086 H 
ATOM     27 CL3  424 d   1      28.430 -32.184 -10.003  0.00  0.00    -0.084 Cl
ATOM     28  C31 424 d   1      30.497 -31.976 -11.727  0.00  0.00    -0.061 A 
ATOM     29  C26 424 d   1      31.151 -31.525 -12.870  0.00  0.00    -0.074 A 
ATOM     30  H   424 d   1      31.018 -32.640 -11.037  0.00  0.00     0.086 H 
ATOM     31  H   424 d   1      32.184 -31.822 -13.049  0.00  0.00     0.084 H 
ENDBRANCH  14  21
ENDBRANCH   3  14
BRANCH   4  32
ATOM     32  C10 424 d   1      34.486 -28.059 -12.828  0.00  0.00     0.241 C 
ATOM     33  N14 424 d   1      35.738 -28.013 -13.311  0.00  0.00    -0.345 N 
ATOM     34  H   424 d   1      35.892 -27.552 -14.208  0.00  0.00     0.163 HD
ATOM     35  O24 424 d   1      34.184 -28.602 -11.794  0.00  0.00    -0.271 OA
BRANCH  33  36
ATOM     36  C13 424 d   1      36.887 -28.584 -12.626  0.00  0.00     0.066 A 
ATOM     37  C20 424 d   1      36.960 -30.088 -12.411  0.00  0.00    -0.034 A 
ATOM     38  C21 424 d   1      37.812 -29.427 -13.506  0.00  0.00    -0.034 A 
ATOM     39  H   424 d   1      36.279 -30.932 -12.304  0.00  0.00     0.037 H 
ATOM     40  H   424 d   1      37.089 -30.791 -11.588  0.00  0.00     0.037 H 
ATOM     41  H   424 d   1      38.845 -29.423 -13.853  0.00  0.00     0.037 H 
ATOM     42  H   424 d   1      38.042 -29.563 -14.563  0.00  0.00     0.037 H 
BRANCH  36  43
ATOM     43  C15 424 d   1      37.483 -27.692 -11.605  0.00  0.00     0.000 C 
ATOM     44  N16 424 d   1      38.694 -27.882 -11.164  0.00  0.00    -0.314 NA
ATOM     45  H   424 d   1      39.251 -28.657 -11.522  0.00  0.00     0.185 HD
ATOM     46  H   424 d   1      36.897 -26.860 -11.215  0.00  0.00     0.110 H 
ENDBRANCH  36  43
ENDBRANCH  33  36
ENDBRANCH   4  32
BRANCH   2  47
ATOM     47  S1  424 d   1      31.341 -25.031 -14.636  0.00  0.00     0.182 S 
ATOM     48  O18 424 d   1      31.659 -23.730 -14.179  0.00  0.00    -0.222 OA
ATOM     49  O19 424 d   1      32.091 -25.617 -15.713  0.00  0.00    -0.222 OA
BRANCH  47  50
ATOM     50  C7  424 d   1      29.680 -25.026 -15.211  0.00  0.00     0.081 A 
ATOM     51  C23 424 d   1      28.664 -24.429 -14.499  0.00  0.00     0.055 A 
ATOM     52 CL2  424 d   1      28.964 -23.662 -13.004  0.00  0.00    -0.083 Cl
ATOM     53  C33 424 d   1      27.373 -24.422 -14.994  0.00  0.00    -0.060 A 
ATOM     54  C35 424 d   1      27.097 -25.009 -16.206  0.00  0.00    -0.081 A 
ATOM     55  H   424 d   1      26.573 -23.951 -14.423  0.00  0.00     0.086 H 
ATOM     56  C34 424 d   1      28.110 -25.614 -16.917  0.00  0.00    -0.081 A 
ATOM     57  H   424 d   1      26.082 -24.996 -16.602  0.00  0.00     0.083 H 
ATOM     58  C29 424 d   1      29.395 -25.623 -16.423  0.00  0.00    -0.060 A 
ATOM     59  H   424 d   1      27.893 -26.087 -17.875  0.00  0.00     0.083 H 
ATOM     60  H   424 d   1      30.191 -26.104 -16.991  0.00  0.00     0.085 H 
ENDBRANCH  47  50
ENDBRANCH   2  47
TORSDOF 7
