REMARK  7 active torsions:
REMARK  status: ('A' for Active; 'I' for Inactive)
REMARK       I    between atoms: C24_25  and  N1_1 
REMARK    1  A    between atoms: C3_4  and  S6_8 
REMARK    2  A    between atoms: C5_7  and  C7_9 
REMARK    3  A    between atoms: S6_8  and  C8_10 
REMARK       I    between atoms: C7_9  and  N17_19 
REMARK    4  A    between atoms: N17_19  and  C18_20 
REMARK    5  A    between atoms: C18_20  and  C19_21 
REMARK    6  A    between atoms: C25_26  and  C24_25 
REMARK    7  A    between atoms: C27_28  and  C25_26 
ROOT
ATOM      1  N1  XU3 d   1      20.501   6.470   7.612  0.00  0.00    -0.336 N 
ATOM      2  C2  XU3 d   1      20.722   5.410   8.596  0.00  0.00     0.015 C 
ATOM      3  C3  XU3 d   1      19.560   4.449   8.328  0.00  0.00     0.067 C 
ATOM      4  C4  XU3 d   1      18.434   5.325   7.723  0.00  0.00    -0.020 C 
ATOM      5  C5  XU3 d   1      19.210   6.372   6.942  0.00  0.00     0.093 C 
ATOM      6  C24 XU3 d   1      21.403   7.379   7.228  0.00  0.00     0.234 C 
ATOM      7  O26 XU3 d   1      21.146   8.197   6.354  0.00  0.00    -0.272 OA
ATOM      8  H   XU3 d   1      20.738   5.780   9.621  0.00  0.00     0.066 H 
ATOM      9  H   XU3 d   1      21.698   4.934   8.495  0.00  0.00     0.066 H 
ATOM     10  H   XU3 d   1      19.268   3.925   9.238  0.00  0.00     0.067 H 
ATOM     11  H   XU3 d   1      17.778   5.757   8.479  0.00  0.00     0.038 H 
ATOM     12  H   XU3 d   1      17.741   4.758   7.102  0.00  0.00     0.038 H 
ATOM     13  H   XU3 d   1      19.369   6.105   5.897  0.00  0.00     0.087 H 
ENDROOT
BRANCH   5  14
ATOM     14  C7  XU3 d   1      18.430   7.669   6.854  0.00  0.00     0.241 C 
ATOM     15  O16 XU3 d   1      18.109   8.312   7.858  0.00  0.00    -0.271 OA
ATOM     16  N17 XU3 d   1      18.017   7.996   5.605  0.00  0.00    -0.345 N 
ATOM     17  H   XU3 d   1      18.326   7.398   4.838  0.00  0.00     0.163 HD
BRANCH  16  18
ATOM     18  C18 XU3 d   1      17.178   9.118   5.271  0.00  0.00     0.066 A 
ATOM     19  C21 XU3 d   1      17.705  10.499   5.657  0.00  0.00    -0.034 A 
ATOM     20  C22 XU3 d   1      17.705  10.047   4.206  0.00  0.00    -0.034 A 
ATOM     21  H   XU3 d   1      18.387  10.947   6.379  0.00  0.00     0.037 H 
ATOM     22  H   XU3 d   1      17.399  11.360   6.251  0.00  0.00     0.037 H 
ATOM     23  H   XU3 d   1      17.392  10.431   3.235  0.00  0.00     0.037 H 
ATOM     24  H   XU3 d   1      18.399  10.010   3.366  0.00  0.00     0.037 H 
BRANCH  18  25
ATOM     25  C19 XU3 d   1      15.704   8.883   5.339  0.00  0.00     0.000 C 
ATOM     26  N20 XU3 d   1      14.828   9.665   5.010  0.00  0.00    -0.314 NA
ATOM     27  H   XU3 d   1      15.076  10.585   4.646  0.00  0.00     0.185 HD
ATOM     28  H   XU3 d   1      15.379   7.915   5.721  0.00  0.00     0.110 H 
ENDBRANCH  18  25
ENDBRANCH  16  18
ENDBRANCH   5  14
BRANCH   6  29
ATOM     29  C25 XU3 d   1      22.748   7.287   7.880  0.00  0.00     0.074 A 
ATOM     30  C33 XU3 d   1      23.750   6.387   7.172  0.00  0.00    -0.044 A 
ATOM     31  C34 XU3 d   1      23.896   7.902   7.083  0.00  0.00    -0.044 A 
ATOM     32  H   XU3 d   1      23.744   5.527   6.502  0.00  0.00     0.035 H 
ATOM     33  H   XU3 d   1      24.370   5.519   7.398  0.00  0.00     0.035 H 
ATOM     34  H   XU3 d   1      24.669   8.659   7.212  0.00  0.00     0.035 H 
ATOM     35  H   XU3 d   1      24.047   8.667   6.321  0.00  0.00     0.035 H 
BRANCH  29  36
ATOM     36  C27 XU3 d   1      22.822   7.351   9.371  0.00  0.00     0.002 A 
ATOM     37  C28 XU3 d   1      23.468   6.567  10.249  0.00  0.00    -0.067 A 
ATOM     38  C29 XU3 d   1      23.315   6.956  11.578  0.00  0.00    -0.054 A 
ATOM     39  H   XU3 d   1      24.060   5.702   9.948  0.00  0.00     0.085 H 
ATOM     40  C30 XU3 d   1      22.526   8.026  11.741  0.00  0.00     0.075 A 
ATOM     41  H   XU3 d   1      23.793   6.437  12.409  0.00  0.00     0.086 H 
ATOM     42 CL3  XU3 d   1      22.073   8.804  13.206  0.00  0.00    -0.076 Cl
ATOM     43  S31 XU3 d   1      21.954   8.583  10.192  0.00  0.00    -0.081 SA
ENDBRANCH  29  36
ENDBRANCH   6  29
BRANCH   3  44
ATOM     44  S6  XU3 d   1      20.027   3.252   7.079  0.00  0.00     0.182 S 
ATOM     45  O9  XU3 d   1      18.832   2.488   6.852  0.00  0.00    -0.222 OA
ATOM     46  O10 XU3 d   1      20.662   3.894   5.988  0.00  0.00    -0.222 OA
BRANCH  44  47
ATOM     47  C8  XU3 d   1      21.196   2.202   7.917  0.00  0.00     0.081 A 
ATOM     48  C11 XU3 d   1      20.865   1.435   9.035  0.00  0.00     0.055 A 
ATOM     49 CL2  XU3 d   1      19.319   1.437   9.748  0.00  0.00    -0.083 Cl
ATOM     50  C12 XU3 d   1      21.782   0.619   9.640  0.00  0.00    -0.060 A 
ATOM     51  C13 XU3 d   1      23.060   0.543   9.128  0.00  0.00    -0.081 A 
ATOM     52  H   XU3 d   1      21.505   0.035  10.518  0.00  0.00     0.086 H 
ATOM     53  C14 XU3 d   1      23.411   1.291   8.024  0.00  0.00    -0.081 A 
ATOM     54  H   XU3 d   1      23.795  -0.111   9.598  0.00  0.00     0.083 H 
ATOM     55  C15 XU3 d   1      22.479   2.113   7.416  0.00  0.00    -0.060 A 
ATOM     56  H   XU3 d   1      24.425   1.234   7.629  0.00  0.00     0.083 H 
ATOM     57  H   XU3 d   1      22.759   2.693   6.537  0.00  0.00     0.085 H 
ENDBRANCH  44  47
ENDBRANCH   3  44
TORSDOF 7
