REMARK  7 active torsions:
REMARK  status: ('A' for Active; 'I' for Inactive)
REMARK    1  A    between atoms: C1_1  and  C2_2 
REMARK       I    between atoms: C2_2  and  N3_4 
REMARK    2  A    between atoms: N3_4  and  C4_5 
REMARK    3  A    between atoms: C4_5  and  C5_6 
REMARK       I    between atoms: C24_24  and  N10_11 
REMARK    4  A    between atoms: C12_13  and  S14_15 
REMARK    5  A    between atoms: S14_15  and  C15_16 
REMARK    6  A    between atoms: C27_27  and  C24_24 
REMARK    7  A    between atoms: C33_33  and  C27_27 
ROOT
ATOM      1  C1  DJT d   1      26.920   8.773   0.217  0.00  0.00     0.093 C 
ATOM      2  N10 DJT d   1      28.243   8.298   0.626  0.00  0.00    -0.336 N 
ATOM      3  C11 DJT d   1      29.316   9.227   0.216  0.00  0.00     0.015 C 
ATOM      4  C12 DJT d   1      28.555  10.571   0.027  0.00  0.00     0.067 C 
ATOM      5  C13 DJT d   1      27.178  10.106  -0.494  0.00  0.00    -0.020 C 
ATOM      6  C24 DJT d   1      28.360   7.223   1.411  0.00  0.00     0.234 C 
ATOM      7  O25 DJT d   1      27.335   6.626   1.758  0.00  0.00    -0.272 OA
ATOM      8  H   DJT d   1      26.282   8.835   1.099  0.00  0.00     0.087 H 
ATOM      9  H   DJT d   1      29.836   8.903  -0.686  0.00  0.00     0.066 H 
ATOM     10  H   DJT d   1      30.121   9.295   0.948  0.00  0.00     0.066 H 
ATOM     11  H   DJT d   1      29.133  11.238  -0.612  0.00  0.00     0.067 H 
ATOM     12  H   DJT d   1      26.397  10.836  -0.283  0.00  0.00     0.038 H 
ATOM     13  H   DJT d   1      27.171   9.995  -1.578  0.00  0.00     0.038 H 
ENDROOT
BRANCH   1  14
ATOM     14  C2  DJT d   1      26.200   7.860  -0.752  0.00  0.00     0.241 C 
ATOM     15  N3  DJT d   1      24.990   7.456  -0.267  0.00  0.00    -0.345 N 
ATOM     16  H   DJT d   1      24.737   7.701   0.690  0.00  0.00     0.163 HD
ATOM     17  O6  DJT d   1      26.607   7.589  -1.894  0.00  0.00    -0.271 OA
BRANCH  15  18
ATOM     18  C4  DJT d   1      24.051   6.690  -1.066  0.00  0.00     0.066 A 
ATOM     19  C7  DJT d   1      24.507   5.375  -1.655  0.00  0.00    -0.034 A 
ATOM     20  C8  DJT d   1      23.558   5.388  -0.467  0.00  0.00    -0.034 A 
ATOM     21  H   DJT d   1      25.437   4.891  -1.953  0.00  0.00     0.037 H 
ATOM     22  H   DJT d   1      24.586   4.901  -2.633  0.00  0.00     0.037 H 
ATOM     23  H   DJT d   1      22.617   4.929  -0.165  0.00  0.00     0.037 H 
ATOM     24  H   DJT d   1      23.465   4.920   0.513  0.00  0.00     0.037 H 
BRANCH  18  25
ATOM     25  C5  DJT d   1      23.078   7.547  -1.806  0.00  0.00     0.000 C 
ATOM     26  N9  DJT d   1      22.063   7.096  -2.430  0.00  0.00    -0.314 NA
ATOM     27  H   DJT d   1      21.877   6.093  -2.443  0.00  0.00     0.185 HD
ATOM     28  H   DJT d   1      23.246   8.624  -1.813  0.00  0.00     0.110 H 
ENDBRANCH  18  25
ENDBRANCH  15  18
ENDBRANCH   1  14
BRANCH   6  29
ATOM     29  C27 DJT d   1      29.741   6.845   1.849  0.00  0.00     0.068 A 
ATOM     30  C26 DJT d   1      30.266   7.498   3.130  0.00  0.00    -0.044 A 
ATOM     31  C28 DJT d   1      29.865   6.022   3.121  0.00  0.00    -0.044 A 
ATOM     32  H   DJT d   1      30.090   8.393   3.727  0.00  0.00     0.035 H 
ATOM     33  H   DJT d   1      31.101   8.120   3.452  0.00  0.00     0.035 H 
ATOM     34  H   DJT d   1      29.256   5.339   3.713  0.00  0.00     0.035 H 
ATOM     35  H   DJT d   1      30.277   5.063   3.435  0.00  0.00     0.035 H 
BRANCH  29  36
ATOM     36  C33 DJT d   1      30.673   6.525   0.695  0.00  0.00    -0.040 A 
ATOM     37  C32 DJT d   1      31.956   7.033   0.714  0.00  0.00    -0.073 A 
ATOM     38  C31 DJT d   1      32.829   6.743  -0.301  0.00  0.00    -0.045 A 
ATOM     39  H   DJT d   1      32.276   7.668   1.540  0.00  0.00     0.084 H 
ATOM     40  C30 DJT d   1      32.432   5.951  -1.356  0.00  0.00     0.116 A 
ATOM     41  H   DJT d   1      33.843   7.141  -0.274  0.00  0.00     0.088 H 
ATOM     42  C29 DJT d   1      31.165   5.428  -1.399  0.00  0.00    -0.045 A 
ATOM     43  F35 DJT d   1      33.319   5.674  -2.347  0.00  0.00    -0.206 F 
ATOM     44  C34 DJT d   1      30.285   5.705  -0.350  0.00  0.00    -0.073 A 
ATOM     45  H   DJT d   1      30.850   4.807  -2.237  0.00  0.00     0.088 H 
ATOM     46  H   DJT d   1      29.285   5.272  -0.355  0.00  0.00     0.084 H 
ENDBRANCH  29  36
ENDBRANCH   6  29
BRANCH   4  47
ATOM     47  S14 DJT d   1      28.255  11.491   1.557  0.00  0.00     0.182 S 
ATOM     48  O22 DJT d   1      27.539  12.703   1.160  0.00  0.00    -0.222 OA
ATOM     49  O23 DJT d   1      27.684  10.638   2.552  0.00  0.00    -0.222 OA
BRANCH  47  50
ATOM     50  C15 DJT d   1      29.872  11.920   2.177  0.00  0.00     0.081 A 
ATOM     51  C16 DJT d   1      30.683  12.844   1.541  0.00  0.00     0.055 A 
ATOM     52 CL2  DJT d   1      30.219  13.683   0.129  0.00  0.00    -0.083 Cl
ATOM     53  C17 DJT d   1      31.937  13.148   2.029  0.00  0.00    -0.060 A 
ATOM     54  C18 DJT d   1      32.374  12.533   3.165  0.00  0.00    -0.081 A 
ATOM     55  H   DJT d   1      32.570  13.870   1.514  0.00  0.00     0.086 H 
ATOM     56  C19 DJT d   1      31.585  11.625   3.821  0.00  0.00    -0.081 A 
ATOM     57  H   DJT d   1      33.364  12.767   3.556  0.00  0.00     0.083 H 
ATOM     58  C20 DJT d   1      30.342  11.308   3.331  0.00  0.00    -0.060 A 
ATOM     59  H   DJT d   1      31.945  11.153   4.735  0.00  0.00     0.083 H 
ATOM     60  H   DJT d   1      29.724  10.575   3.849  0.00  0.00     0.085 H 
ENDBRANCH  47  50
ENDBRANCH   4  47
TORSDOF 7
