REMARK  8 active torsions:
REMARK  status: ('A' for Active; 'I' for Inactive)
REMARK    1  A    between atoms: C1_2  and  C2_3 
REMARK       I    between atoms: C2_3  and  N3_4 
REMARK    2  A    between atoms: N3_4  and  C4_5 
REMARK    3  A    between atoms: C4_5  and  C5_6 
REMARK       I    between atoms: C24_24  and  N10_11 
REMARK    4  A    between atoms: C12_13  and  S14_15 
REMARK    5  A    between atoms: S14_15  and  C15_16 
REMARK    6  A    between atoms: C27_27  and  C24_24 
REMARK    7  A    between atoms: C33_33  and  C27_27 
REMARK    8  A    between atoms: C30_30  and  C35_35 
ROOT
ATOM      1  C1  XU5 d   1      23.164  11.301  22.618  0.00  0.00     0.093 C 
ATOM      2  N10 XU5 d   1      23.169   9.843  22.685  0.00  0.00    -0.336 N 
ATOM      3  C11 XU5 d   1      21.849   9.359  23.099  0.00  0.00     0.015 C 
ATOM      4  C12 XU5 d   1      20.903  10.578  22.837  0.00  0.00     0.067 C 
ATOM      5  C13 XU5 d   1      21.829  11.763  23.247  0.00  0.00    -0.020 C 
ATOM      6  C24 XU5 d   1      24.219   9.069  22.354  0.00  0.00     0.234 C 
ATOM      7  O25 XU5 d   1      25.222   9.623  21.974  0.00  0.00    -0.272 OA
ATOM      8  H   XU5 d   1      23.327  11.610  21.585  0.00  0.00     0.087 H 
ATOM      9  H   XU5 d   1      21.833   9.039  24.141  0.00  0.00     0.066 H 
ATOM     10  H   XU5 d   1      21.542   8.470  22.548  0.00  0.00     0.066 H 
ATOM     11  H   XU5 d   1      19.959  10.460  23.369  0.00  0.00     0.067 H 
ATOM     12  H   XU5 d   1      21.486  12.739  22.903  0.00  0.00     0.038 H 
ATOM     13  H   XU5 d   1      21.878  11.941  24.321  0.00  0.00     0.038 H 
ENDROOT
BRANCH   1  14
ATOM     14  C2  XU5 d   1      24.212  11.879  23.549  0.00  0.00     0.241 C 
ATOM     15  N3  XU5 d   1      25.237  12.543  22.966  0.00  0.00    -0.345 N 
ATOM     16  H   XU5 d   1      25.275  12.527  21.947  0.00  0.00     0.163 HD
ATOM     17  O6  XU5 d   1      24.107  11.747  24.759  0.00  0.00    -0.271 OA
BRANCH  15  18
ATOM     18  C4  XU5 d   1      26.295  13.280  23.653  0.00  0.00     0.066 A 
ATOM     19  C7  XU5 d   1      27.237  12.590  24.651  0.00  0.00    -0.034 A 
ATOM     20  C8  XU5 d   1      27.741  12.972  23.258  0.00  0.00    -0.034 A 
ATOM     21  H   XU5 d   1      27.236  11.723  25.312  0.00  0.00     0.037 H 
ATOM     22  H   XU5 d   1      27.547  12.695  25.691  0.00  0.00     0.037 H 
ATOM     23  H   XU5 d   1      28.592  13.487  22.811  0.00  0.00     0.037 H 
ATOM     24  H   XU5 d   1      28.279  12.510  22.431  0.00  0.00     0.037 H 
BRANCH  18  25
ATOM     25  C5  XU5 d   1      25.900  14.686  23.902  0.00  0.00     0.000 C 
ATOM     26  N9  XU5 d   1      26.772  15.541  24.252  0.00  0.00    -0.314 NA
ATOM     27  H   XU5 d   1      27.746  15.260  24.362  0.00  0.00     0.185 HD
ATOM     28  H   XU5 d   1      24.859  14.988  23.785  0.00  0.00     0.110 H 
ENDBRANCH  18  25
ENDBRANCH  15  18
ENDBRANCH   1  14
BRANCH   6  29
ATOM     29  C27 XU5 d   1      24.120   7.566  22.455  0.00  0.00     0.068 A 
ATOM     30  C26 XU5 d   1      23.570   6.779  21.267  0.00  0.00    -0.044 A 
ATOM     31  C28 XU5 d   1      25.070   6.777  21.572  0.00  0.00    -0.044 A 
ATOM     32  H   XU5 d   1      22.905   6.932  20.417  0.00  0.00     0.035 H 
ATOM     33  H   XU5 d   1      22.775   6.066  21.052  0.00  0.00     0.035 H 
ATOM     34  H   XU5 d   1      26.011   6.931  21.043  0.00  0.00     0.035 H 
ATOM     35  H   XU5 d   1      25.879   6.056  21.684  0.00  0.00     0.035 H 
BRANCH  29  36
ATOM     36  C33 XU5 d   1      23.780   7.059  23.836  0.00  0.00    -0.040 A 
ATOM     37  C32 XU5 d   1      24.617   7.392  24.875  0.00  0.00    -0.075 A 
ATOM     38  C31 XU5 d   1      24.329   6.972  26.159  0.00  0.00    -0.077 A 
ATOM     39  H   XU5 d   1      25.509   7.989  24.685  0.00  0.00     0.084 H 
ATOM     40  C30 XU5 d   1      23.216   6.198  26.431  0.00  0.00    -0.062 A 
ATOM     41  H   XU5 d   1      24.993   7.257  26.975  0.00  0.00     0.084 H 
ATOM     42  C29 XU5 d   1      22.354   5.856  25.391  0.00  0.00    -0.077 A 
ATOM     43  C34 XU5 d   1      22.632   6.289  24.090  0.00  0.00    -0.075 A 
ATOM     44  H   XU5 d   1      21.467   5.254  25.590  0.00  0.00     0.084 H 
ATOM     45  H   XU5 d   1      21.958   6.029  23.273  0.00  0.00     0.084 H 
BRANCH  40  46
ATOM     46  C35 XU5 d   1      22.955   5.745  27.854  0.00  0.00    -0.051 C 
ATOM     47  H   XU5 d   1      23.794   5.143  28.202  0.00  0.00     0.033 H 
ATOM     48  H   XU5 d   1      22.841   6.618  28.497  0.00  0.00     0.033 H 
ATOM     49  H   XU5 d   1      22.043   5.149  27.883  0.00  0.00     0.033 H 
ENDBRANCH  40  46
ENDBRANCH  29  36
ENDBRANCH   6  29
BRANCH   4  50
ATOM     50  S14 XU5 d   1      20.413  10.821  21.111  0.00  0.00     0.182 S 
ATOM     51  O22 XU5 d   1      19.565  11.989  21.064  0.00  0.00    -0.222 OA
ATOM     52  O23 XU5 d   1      21.548  10.746  20.259  0.00  0.00    -0.222 OA
BRANCH  50  53
ATOM     53  C15 XU5 d   1      19.477   9.347  20.756  0.00  0.00     0.081 A 
ATOM     54  C16 XU5 d   1      18.213   9.153  21.286  0.00  0.00     0.055 A 
ATOM     55 CL   XU5 d   1      17.516  10.374  22.270  0.00  0.00    -0.083 Cl
ATOM     56  C17 XU5 d   1      17.452   8.011  21.054  0.00  0.00    -0.060 A 
ATOM     57  C18 XU5 d   1      17.984   7.037  20.241  0.00  0.00    -0.081 A 
ATOM     58  H   XU5 d   1      16.466   7.892  21.502  0.00  0.00     0.086 H 
ATOM     59  C19 XU5 d   1      19.241   7.217  19.712  0.00  0.00    -0.081 A 
ATOM     60  H   XU5 d   1      17.416   6.133  20.019  0.00  0.00     0.083 H 
ATOM     61  C20 XU5 d   1      19.999   8.352  19.958  0.00  0.00    -0.060 A 
ATOM     62  H   XU5 d   1      19.657   6.437  19.075  0.00  0.00     0.083 H 
ATOM     63  H   XU5 d   1      20.994   8.456  19.526  0.00  0.00     0.085 H 
ENDBRANCH  50  53
ENDBRANCH   4  50
TORSDOF 8
