REMARK  14 active torsions:
REMARK  status: ('A' for Active; 'I' for Inactive)
REMARK    1  A    between atoms: N3_1  and  C19_2 
REMARK    2  A    between atoms: C7_8  and  C8_9 
REMARK    3  A    between atoms: C1_18  and  N1_19 
REMARK    4  A    between atoms: N2_22  and  C20_23 
REMARK    5  A    between atoms: C20_23  and  C21_24 
REMARK    6  A    between atoms: C21_24  and  C22_25 
REMARK    7  A    between atoms: C22_25  and  C23_26 
REMARK    8  A    between atoms: C23_26  and  C24_27 
REMARK    9  A    between atoms: C24_27  and  C25_28 
REMARK   10  A    between atoms: C25_28  and  C26_29 
REMARK   11  A    between atoms: N6_32  and  C28_34 
REMARK   12  A    between atoms: C28_34  and  C29_35 
REMARK   13  A    between atoms: C29_35  and  N7_36 
REMARK   14  A    between atoms: N7_36  and  C30_37 
ROOT
ATOM      1  C22 TZ4 d   1      33.858  23.668   9.027  0.00  0.00    -0.064 C 
ATOM      2  H   TZ4 d   1      34.205  23.540   8.002  0.00  0.00     0.033 H 
ATOM      3  H   TZ4 d   1      33.019  24.348   9.170  0.00  0.00     0.033 H 
ENDROOT
BRANCH   1   4
ATOM      4  C21 TZ4 d   1      35.033  24.270   9.804  0.00  0.00    -0.050 C 
ATOM      5  H   TZ4 d   1      34.846  25.313  10.059  0.00  0.00     0.035 H 
ATOM      6  H   TZ4 d   1      35.187  23.754  10.752  0.00  0.00     0.035 H 
BRANCH   4   7
ATOM      7  C20 TZ4 d   1      36.251  24.131   8.893  0.00  0.00    -0.004 C 
ATOM      8  H   TZ4 d   1      36.600  23.113   9.066  0.00  0.00     0.064 H 
ATOM      9  H   TZ4 d   1      35.887  24.433   7.911  0.00  0.00     0.064 H 
BRANCH   7  10
ATOM     10  N2  TZ4 d   1      37.464  24.976   9.110  0.00  0.00    -0.367 N 
ATOM     11  C7  TZ4 d   1      37.585  26.166   8.451  0.00  0.00     0.064 A 
ATOM     12  C14 TZ4 d   1      38.765  26.961   8.639  0.00  0.00    -0.018 A 
ATOM     13  H   TZ4 d   1      37.111  25.209   8.233  0.00  0.00     0.088 H 
ATOM     14  C16 TZ4 d   1      39.821  26.499   9.512  0.00  0.00    -0.015 A 
ATOM     15  C15 TZ4 d   1      38.982  28.146   7.827  0.00  0.00    -0.049 A 
ATOM     16  C17 TZ4 d   1      41.052  27.260   9.531  0.00  0.00    -0.069 A 
ATOM     17  C4  TZ4 d   1      39.662  25.216  10.189  0.00  0.00     0.001 A 
ATOM     18  C18 TZ4 d   1      41.236  28.393   8.752  0.00  0.00    -0.057 A 
ATOM     19  H   TZ4 d   1      41.863  26.931  10.181  0.00  0.00     0.085 H 
ATOM     20  C19 TZ4 d   1      40.181  28.852   7.884  0.00  0.00     0.026 A 
ATOM     21  H   TZ4 d   1      42.180  28.937   8.796  0.00  0.00     0.086 H 
ATOM     22  C3  TZ4 d   1      40.668  24.643  11.060  0.00  0.00    -0.068 A 
ATOM     23  C6  TZ4 d   1      38.452  24.445   9.978  0.00  0.00     0.044 A 
ATOM     24  C2  TZ4 d   1      40.500  23.415  11.669  0.00  0.00    -0.057 A 
ATOM     25  H   TZ4 d   1      41.588  25.200  11.241  0.00  0.00     0.085 H 
ATOM     26  C1  TZ4 d   1      39.302  22.665  11.460  0.00  0.00     0.027 A 
ATOM     27  H   TZ4 d   1      41.285  23.016  12.312  0.00  0.00     0.086 H 
ATOM     28  C5  TZ4 d   1      38.307  23.183  10.636  0.00  0.00    -0.031 A 
ATOM     29  H   TZ4 d   1      37.391  22.611  10.488  0.00  0.00     0.090 H 
ATOM     30  H   TZ4 d   1      38.191  28.489   7.160  0.00  0.00     0.087 H 
BRANCH  11  31
ATOM     31  C8  TZ4 d   1      36.515  26.721   7.542  0.00  0.00    -0.031 A 
ATOM     32  C9  TZ4 d   1      35.666  27.710   8.093  0.00  0.00    -0.074 A 
ATOM     33  C10 TZ4 d   1      34.666  28.296   7.313  0.00  0.00    -0.082 A 
ATOM     34  H   TZ4 d   1      35.793  28.016   9.131  0.00  0.00     0.084 H 
ATOM     35  C11 TZ4 d   1      34.518  27.882   5.986  0.00  0.00    -0.083 A 
ATOM     36  H   TZ4 d   1      34.013  29.062   7.731  0.00  0.00     0.083 H 
ATOM     37  C12 TZ4 d   1      35.359  26.896   5.432  0.00  0.00    -0.082 A 
ATOM     38  H   TZ4 d   1      33.739  28.329   5.369  0.00  0.00     0.083 H 
ATOM     39  C13 TZ4 d   1      36.365  26.311   6.206  0.00  0.00    -0.074 A 
ATOM     40  H   TZ4 d   1      35.224  26.588   4.395  0.00  0.00     0.083 H 
ATOM     41  H   TZ4 d   1      37.021  25.551   5.782  0.00  0.00     0.084 H 
ENDBRANCH  11  31
BRANCH  20  42
ATOM     42  N3  TZ4 d   1      40.352  29.979   7.105  0.00  0.00    -0.399 N 
ATOM     43  H   TZ4 d   1      41.231  30.495   7.141  0.00  0.00     0.156 HD
ATOM     44  H   TZ4 d   1      39.599  30.296   6.494  0.00  0.00     0.156 HD
ENDBRANCH  20  42
BRANCH  26  45
ATOM     45  N1  TZ4 d   1      39.115  21.434  12.045  0.00  0.00    -0.399 N 
ATOM     46  H   TZ4 d   1      38.255  20.913  11.873  0.00  0.00     0.156 HD
ATOM     47  H   TZ4 d   1      39.836  21.043  12.651  0.00  0.00     0.156 HD
ENDBRANCH  26  45
ENDBRANCH   7  10
ENDBRANCH   4   7
ENDBRANCH   1   4
BRANCH   1  48
ATOM     48  C23 TZ4 d   1      33.377  22.296   9.488  0.00  0.00    -0.065 C 
ATOM     49  H   TZ4 d   1      33.605  22.222  10.551  0.00  0.00     0.033 H 
ATOM     50  H   TZ4 d   1      33.877  21.559   8.860  0.00  0.00     0.033 H 
BRANCH  48  51
ATOM     51  C24 TZ4 d   1      31.865  22.057   9.339  0.00  0.00    -0.060 C 
ATOM     52  H   TZ4 d   1      31.703  21.001   9.554  0.00  0.00     0.033 H 
ATOM     53  H   TZ4 d   1      31.603  22.393   8.336  0.00  0.00     0.033 H 
BRANCH  51  54
ATOM     54  C25 TZ4 d   1      30.949  22.837  10.305  0.00  0.00    -0.022 C 
ATOM     55  H   TZ4 d   1      30.747  23.824   9.889  0.00  0.00     0.042 H 
ATOM     56  H   TZ4 d   1      31.445  22.933  11.271  0.00  0.00     0.042 H 
BRANCH  54  57
ATOM     57  C26 TZ4 d   1      29.639  22.096  10.489  0.00  0.00     0.075 A 
ATOM     58  N4  TZ4 d   1      29.601  20.966  11.199  0.00  0.00    -0.135 NA
ATOM     59  N5  TZ4 d   1      28.346  20.568  11.188  0.00  0.00    -0.066 NA
ATOM     60  N6  TZ4 d   1      27.583  21.398  10.493  0.00  0.00    -0.259 N 
ATOM     61  C27 TZ4 d   1      28.360  22.408  10.009  0.00  0.00     0.025 A 
ATOM     62  H   TZ4 d   1      28.058  23.256   9.395  0.00  0.00     0.117 H 
BRANCH  60  63
ATOM     63  C28 TZ4 d   1      26.125  21.298  10.243  0.00  0.00     0.032 C 
ATOM     64  H   TZ4 d   1      25.864  20.253  10.412  0.00  0.00     0.070 H 
ATOM     65  H   TZ4 d   1      25.967  21.688   9.238  0.00  0.00     0.070 H 
BRANCH  63  66
ATOM     66  C29 TZ4 d   1      25.194  22.127  11.174  0.00  0.00     0.009 C 
ATOM     67  H   TZ4 d   1      24.177  21.878  10.870  0.00  0.00     0.066 H 
ATOM     68  H   TZ4 d   1      25.512  23.163  11.061  0.00  0.00     0.066 H 
BRANCH  66  69
ATOM     69  N7  TZ4 d   1      25.258  21.844  12.634  0.00  0.00    -0.387 N 
ATOM     70  H   TZ4 d   1      24.386  21.646  13.124  0.00  0.00     0.159 HD
BRANCH  69  71
ATOM     71  C30 TZ4 d   1      26.450  21.834  13.376  0.00  0.00     0.053 A 
ATOM     72  C31 TZ4 d   1      26.659  20.694  14.236  0.00  0.00     0.020 A 
ATOM     73  C32 TZ4 d   1      25.773  19.537  14.306  0.00  0.00    -0.069 A 
ATOM     74  C33 TZ4 d   1      27.894  20.588  14.980  0.00  0.00     0.070 A 
ATOM     75  C36 TZ4 d   1      26.119  18.391  15.023  0.00  0.00    -0.082 A 
ATOM     76  H   TZ4 d   1      24.816  19.569  13.785  0.00  0.00     0.085 H 
ATOM     77  C35 TZ4 d   1      27.355  18.294  15.746  0.00  0.00    -0.081 A 
ATOM     78  H   TZ4 d   1      25.431  17.546  15.034  0.00  0.00     0.083 H 
ATOM     79  C34 TZ4 d   1      28.231  19.370  15.714  0.00  0.00    -0.054 A 
ATOM     80  H   TZ4 d   1      27.601  17.393  16.309  0.00  0.00     0.083 H 
ATOM     81  H   TZ4 d   1      29.182  19.306  16.243  0.00  0.00     0.087 H 
ATOM     82  N8  TZ4 d   1      28.842  21.543  14.933  0.00  0.00    -0.247 NA
ATOM     83  C37 TZ4 d   1      28.676  22.621  14.121  0.00  0.00     0.070 A 
ATOM     84  C38 TZ4 d   1      29.725  23.628  14.158  0.00  0.00    -0.054 C 
ATOM     85  C39 TZ4 d   1      27.470  22.837  13.350  0.00  0.00     0.020 A 
ATOM     86  C42 TZ4 d   1      29.595  24.777  13.406  0.00  0.00    -0.081 C 
ATOM     87  H   TZ4 d   1      30.609  23.475  14.777  0.00  0.00     0.087 H 
ATOM     88  C41 TZ4 d   1      28.330  25.082  12.773  0.00  0.00    -0.082 C 
ATOM     89  H   TZ4 d   1      30.442  25.453  13.289  0.00  0.00     0.083 H 
ATOM     90  C40 TZ4 d   1      27.333  24.128  12.705  0.00  0.00    -0.069 C 
ATOM     91  H   TZ4 d   1      28.163  26.071  12.347  0.00  0.00     0.083 H 
ATOM     92  H   TZ4 d   1      26.420  24.352  12.152  0.00  0.00     0.085 H 
ENDBRANCH  69  71
ENDBRANCH  66  69
ENDBRANCH  63  66
ENDBRANCH  60  63
ENDBRANCH  54  57
ENDBRANCH  51  54
ENDBRANCH  48  51
ENDBRANCH   1  48
TORSDOF 14
