REMARK  14 active torsions:
REMARK  status: ('A' for Active; 'I' for Inactive)
REMARK    1  A    between atoms: N2_1  and  C8_2 
REMARK    2  A    between atoms: N3_8  and  C20_23 
REMARK    3  A    between atoms: C11_9  and  C12_10 
REMARK    4  A    between atoms: C1_21  and  N1_22 
REMARK    5  A    between atoms: C20_23  and  C21_24 
REMARK    6  A    between atoms: C21_24  and  C22_25 
REMARK    7  A    between atoms: C22_25  and  C23_26 
REMARK    8  A    between atoms: C23_26  and  C24_27 
REMARK    9  A    between atoms: C24_27  and  C25_28 
REMARK   10  A    between atoms: C25_28  and  C26_29 
REMARK   11  A    between atoms: N4_30  and  C28_34 
REMARK   12  A    between atoms: C28_34  and  C29_35 
REMARK   13  A    between atoms: C29_35  and  N7_36 
REMARK   14  A    between atoms: N7_36  and  C30_37 
ROOT
ATOM      1  C22 TZ5 d   1      32.986  22.346   9.256  0.00  0.00    -0.064 C 
ATOM      2  H   TZ5 d   1      33.007  22.850   8.290  0.00  0.00     0.033 H 
ATOM      3  H   TZ5 d   1      32.978  23.082  10.060  0.00  0.00     0.033 H 
ENDROOT
BRANCH   1   4
ATOM      4  C21 TZ5 d   1      34.234  21.463   9.392  0.00  0.00    -0.050 C 
ATOM      5  H   TZ5 d   1      34.230  21.051  10.401  0.00  0.00     0.035 H 
ATOM      6  H   TZ5 d   1      34.185  20.710   8.605  0.00  0.00     0.035 H 
BRANCH   4   7
ATOM      7  C20 TZ5 d   1      35.559  22.221   9.215  0.00  0.00    -0.004 C 
ATOM      8  H   TZ5 d   1      35.796  22.666  10.181  0.00  0.00     0.064 H 
ATOM      9  H   TZ5 d   1      36.286  21.498   8.846  0.00  0.00     0.064 H 
BRANCH   7  10
ATOM     10  N3  TZ5 d   1      35.526  23.332   8.231  0.00  0.00    -0.367 N 
ATOM     11  C18 TZ5 d   1      35.361  22.973   6.874  0.00  0.00     0.044 A 
ATOM     12  C5  TZ5 d   1      35.262  24.043   5.911  0.00  0.00     0.001 A 
ATOM     13  C19 TZ5 d   1      35.569  21.626   6.420  0.00  0.00    -0.031 A 
ATOM     14  C6  TZ5 d   1      35.292  23.662   4.503  0.00  0.00    -0.068 A 
ATOM     15  C4  TZ5 d   1      35.420  25.432   6.385  0.00  0.00    -0.015 A 
ATOM     16  C7  TZ5 d   1      35.476  22.342   4.102  0.00  0.00    -0.057 A 
ATOM     17  H   TZ5 d   1      35.167  24.433   3.743  0.00  0.00     0.085 H 
ATOM     18  C8  TZ5 d   1      35.613  21.278   5.065  0.00  0.00     0.027 A 
ATOM     19  H   TZ5 d   1      35.517  22.108   3.038  0.00  0.00     0.086 H 
ATOM     20  C10 TZ5 d   1      35.618  25.682   7.807  0.00  0.00    -0.018 A 
ATOM     21  C3  TZ5 d   1      34.950  26.547   5.608  0.00  0.00    -0.069 A 
ATOM     22  C11 TZ5 d   1      35.675  24.584   8.713  0.00  0.00     0.064 A 
ATOM     23  C9  TZ5 d   1      35.319  26.989   8.328  0.00  0.00    -0.049 A 
ATOM     24  H   TZ5 d   1      36.545  24.343   9.323  0.00  0.00     0.088 H 
ATOM     25  C1  TZ5 d   1      34.852  28.018   7.529  0.00  0.00     0.026 A 
ATOM     26  H   TZ5 d   1      35.466  27.176   9.392  0.00  0.00     0.087 H 
ATOM     27  C2  TZ5 d   1      34.671  27.785   6.139  0.00  0.00    -0.057 A 
ATOM     28  H   TZ5 d   1      34.311  28.587   5.494  0.00  0.00     0.086 H 
ATOM     29  H   TZ5 d   1      34.807  26.403   4.537  0.00  0.00     0.085 H 
ATOM     30  H   TZ5 d   1      35.698  20.840   7.164  0.00  0.00     0.090 H 
BRANCH  18  31
ATOM     31  N2  TZ5 d   1      35.784  19.950   4.703  0.00  0.00    -0.399 N 
ATOM     32  H   TZ5 d   1      35.817  19.690   3.717  0.00  0.00     0.156 HD
ATOM     33  H   TZ5 d   1      35.876  19.233   5.423  0.00  0.00     0.156 HD
ENDBRANCH  18  31
BRANCH  22  34
ATOM     34  C12 TZ5 d   1      35.868  24.827  10.174  0.00  0.00    -0.031 A 
ATOM     35  C13 TZ5 d   1      37.170  24.718  10.701  0.00  0.00    -0.074 A 
ATOM     36  C14 TZ5 d   1      37.339  24.966  12.081  0.00  0.00    -0.082 A 
ATOM     37  H   TZ5 d   1      38.016  24.452  10.067  0.00  0.00     0.084 H 
ATOM     38  C15 TZ5 d   1      36.243  25.304  12.901  0.00  0.00    -0.083 A 
ATOM     39  H   TZ5 d   1      38.334  24.895  12.520  0.00  0.00     0.083 H 
ATOM     40  C16 TZ5 d   1      34.938  25.414  12.360  0.00  0.00    -0.082 A 
ATOM     41  H   TZ5 d   1      36.401  25.483  13.964  0.00  0.00     0.083 H 
ATOM     42  C17 TZ5 d   1      34.756  25.165  10.996  0.00  0.00    -0.074 A 
ATOM     43  H   TZ5 d   1      34.094  25.687  12.993  0.00  0.00     0.083 H 
ATOM     44  H   TZ5 d   1      33.759  25.230  10.561  0.00  0.00     0.084 H 
ENDBRANCH  22  34
BRANCH  25  45
ATOM     45  N1  TZ5 d   1      34.596  29.265   8.079  0.00  0.00    -0.399 N 
ATOM     46  H   TZ5 d   1      34.274  30.028   7.484  0.00  0.00     0.156 HD
ATOM     47  H   TZ5 d   1      34.730  29.419   9.078  0.00  0.00     0.156 HD
ENDBRANCH  25  45
ENDBRANCH   7  10
ENDBRANCH   4   7
ENDBRANCH   1   4
BRANCH   1  48
ATOM     48  C23 TZ5 d   1      31.736  21.494   9.348  0.00  0.00    -0.065 C 
ATOM     49  H   TZ5 d   1      31.911  20.621   9.977  0.00  0.00     0.033 H 
ATOM     50  H   TZ5 d   1      31.447  21.128   8.363  0.00  0.00     0.033 H 
BRANCH  48  51
ATOM     51  C24 TZ5 d   1      30.643  22.366   9.936  0.00  0.00    -0.060 C 
ATOM     52  H   TZ5 d   1      30.304  23.043   9.152  0.00  0.00     0.033 H 
ATOM     53  H   TZ5 d   1      31.062  22.883  10.799  0.00  0.00     0.033 H 
BRANCH  51  54
ATOM     54  C25 TZ5 d   1      29.437  21.575  10.414  0.00  0.00    -0.024 C 
ATOM     55  H   TZ5 d   1      29.055  21.004   9.568  0.00  0.00     0.042 H 
ATOM     56  H   TZ5 d   1      28.709  22.283  10.809  0.00  0.00     0.042 H 
BRANCH  54  57
ATOM     57  C26 TZ5 d   1      29.772  20.611  11.501  0.00  0.00     0.051 A 
ATOM     58  N4  TZ5 d   1      30.407  20.680  12.699  0.00  0.00    -0.253 N 
ATOM     59  N5  TZ5 d   1      30.419  19.495  13.263  0.00  0.00    -0.066 NA
ATOM     60  N6  TZ5 d   1      29.825  18.602  12.533  0.00  0.00    -0.142 NA
ATOM     61  C27 TZ5 d   1      29.438  19.273  11.462  0.00  0.00     0.049 A 
ATOM     62  H   TZ5 d   1      28.906  18.814  10.629  0.00  0.00     0.120 H 
BRANCH  58  63
ATOM     63  C28 TZ5 d   1      30.982  21.894  13.295  0.00  0.00     0.033 C 
ATOM     64  H   TZ5 d   1      31.526  22.418  12.509  0.00  0.00     0.070 H 
ATOM     65  H   TZ5 d   1      31.612  21.583  14.128  0.00  0.00     0.070 H 
BRANCH  63  66
ATOM     66  C29 TZ5 d   1      29.932  22.860  13.849  0.00  0.00     0.009 C 
ATOM     67  H   TZ5 d   1      29.334  23.212  13.009  0.00  0.00     0.066 H 
ATOM     68  H   TZ5 d   1      30.462  23.659  14.368  0.00  0.00     0.066 H 
BRANCH  66  69
ATOM     69  N7  TZ5 d   1      29.010  22.231  14.821  0.00  0.00    -0.387 N 
ATOM     70  H   TZ5 d   1      29.297  22.128  15.794  0.00  0.00     0.159 HD
BRANCH  69  71
ATOM     71  C30 TZ5 d   1      27.746  21.775  14.418  0.00  0.00     0.053 A 
ATOM     72  C31 TZ5 d   1      26.879  22.439  13.494  0.00  0.00     0.020 A 
ATOM     73  C32 TZ5 d   1      27.069  23.821  13.067  0.00  0.00    -0.069 A 
ATOM     74  C33 TZ5 d   1      25.620  21.818  13.158  0.00  0.00     0.070 A 
ATOM     75  C36 TZ5 d   1      26.097  24.479  12.345  0.00  0.00    -0.082 A 
ATOM     76  H   TZ5 d   1      27.993  24.340  13.323  0.00  0.00     0.085 H 
ATOM     77  C35 TZ5 d   1      24.849  23.829  12.009  0.00  0.00    -0.081 A 
ATOM     78  H   TZ5 d   1      26.271  25.505  12.022  0.00  0.00     0.083 H 
ATOM     79  C34 TZ5 d   1      24.614  22.524  12.398  0.00  0.00    -0.054 A 
ATOM     80  H   TZ5 d   1      24.090  24.372  11.446  0.00  0.00     0.083 H 
ATOM     81  H   TZ5 d   1      23.678  22.032  12.134  0.00  0.00     0.087 H 
ATOM     82  N8  TZ5 d   1      25.237  20.649  13.695  0.00  0.00    -0.247 NA
ATOM     83  C37 TZ5 d   1      26.043  19.997  14.576  0.00  0.00     0.070 A 
ATOM     84  C38 TZ5 d   1      25.625  18.668  15.000  0.00  0.00    -0.054 C 
ATOM     85  C39 TZ5 d   1      27.319  20.531  14.988  0.00  0.00     0.020 A 
ATOM     86  C42 TZ5 d   1      26.572  17.831  15.550  0.00  0.00    -0.081 C 
ATOM     87  H   TZ5 d   1      24.591  18.344  14.886  0.00  0.00     0.087 H 
ATOM     88  C41 TZ5 d   1      27.672  18.440  16.245  0.00  0.00    -0.082 C 
ATOM     89  H   TZ5 d   1      26.489  16.748  15.461  0.00  0.00     0.083 H 
ATOM     90  C40 TZ5 d   1      28.130  19.698  15.864  0.00  0.00    -0.069 C 
ATOM     91  H   TZ5 d   1      28.149  17.916  17.073  0.00  0.00     0.083 H 
ATOM     92  H   TZ5 d   1      29.095  20.059  16.221  0.00  0.00     0.085 H 
ENDBRANCH  69  71
ENDBRANCH  66  69
ENDBRANCH  63  66
ENDBRANCH  58  63
ENDBRANCH  54  57
ENDBRANCH  51  54
ENDBRANCH  48  51
ENDBRANCH   1  48
TORSDOF 14
