REMARK  14 active torsions:
REMARK  status: ('A' for Active; 'I' for Inactive)
REMARK    1  A    between atoms: N2_1  and  C8_2 
REMARK    2  A    between atoms: N3_8  and  C20_23 
REMARK    3  A    between atoms: C11_9  and  C12_10 
REMARK    4  A    between atoms: C1_21  and  N1_22 
REMARK    5  A    between atoms: C20_23  and  C21_24 
REMARK    6  A    between atoms: C21_24  and  C22_25 
REMARK    7  A    between atoms: C22_25  and  C23_26 
REMARK    8  A    between atoms: C23_26  and  C24_27 
REMARK    9  A    between atoms: C24_27  and  C25_28 
REMARK   10  A    between atoms: C25_28  and  C26_29 
REMARK   11  A    between atoms: N4_30  and  C28_34 
REMARK   12  A    between atoms: C28_34  and  C29_35 
REMARK   13  A    between atoms: C29_35  and  N7_36 
REMARK   14  A    between atoms: N7_36  and  C30_37 
ROOT
ATOM      1  C22 TZ5 d   1      33.443  22.160   9.253  0.00  0.00    -0.064 C 
ATOM      2  H21 TZ5 d   1      33.266  22.693   8.307  0.00  0.00     0.033 H 
ATOM      3  H22 TZ5 d   1      33.456  22.881  10.084  0.00  0.00     0.033 H 
ENDROOT
BRANCH   1   4
ATOM      4  C21 TZ5 d   1      34.829  21.492   9.175  0.00  0.00    -0.050 C 
ATOM      5  H19 TZ5 d   1      34.976  20.893  10.086  0.00  0.00     0.035 H 
ATOM      6  H20 TZ5 d   1      34.845  20.832   8.295  0.00  0.00     0.035 H 
BRANCH   4   7
ATOM      7  C20 TZ5 d   1      35.995  22.483   9.056  0.00  0.00    -0.004 C 
ATOM      8  H17 TZ5 d   1      36.087  22.994  10.026  0.00  0.00     0.064 H 
ATOM      9  H18 TZ5 d   1      36.904  21.893   8.864  0.00  0.00     0.064 H 
BRANCH   7  10
ATOM     10  N3  TZ5 d   1      35.927  23.541   8.006  0.00  0.00    -0.367 N 
ATOM     11  C18 TZ5 d   1      35.958  23.169   6.657  0.00  0.00     0.044 A 
ATOM     12  C5  TZ5 d   1      35.888  24.215   5.689  0.00  0.00     0.001 A 
ATOM     13  C19 TZ5 d   1      36.134  21.832   6.243  0.00  0.00    -0.031 A 
ATOM     14  C6  TZ5 d   1      36.006  23.858   4.305  0.00  0.00    -0.068 A 
ATOM     15  C4  TZ5 d   1      35.788  25.593   6.129  0.00  0.00    -0.015 A 
ATOM     16  C7  TZ5 d   1      36.187  22.553   3.923  0.00  0.00    -0.057 A 
ATOM     17  H4  TZ5 d   1      35.951  24.632   3.548  0.00  0.00     0.085 H 
ATOM     18  C8  TZ5 d   1      36.254  21.514   4.897  0.00  0.00     0.027 A 
ATOM     19  H3  TZ5 d   1      36.280  22.309   2.871  0.00  0.00     0.086 H 
ATOM     20  C10 TZ5 d   1      35.761  25.881   7.535  0.00  0.00    -0.018 A 
ATOM     21  C3  TZ5 d   1      35.746  26.700   5.227  0.00  0.00    -0.069 A 
ATOM     22  C11 TZ5 d   1      35.835  24.806   8.462  0.00  0.00     0.064 A 
ATOM     23  C9  TZ5 d   1      35.692  27.253   7.965  0.00  0.00    -0.049 A 
ATOM     24  H6  TZ5 d   1      36.931  24.901   8.467  0.00  0.00     0.088 H 
ATOM     25  C1  TZ5 d   1      35.650  28.305   7.053  0.00  0.00     0.026 A 
ATOM     26  H12 TZ5 d   1      35.672  27.473   9.026  0.00  0.00     0.087 H 
ATOM     27  C2  TZ5 d   1      35.680  28.011   5.659  0.00  0.00    -0.057 A 
ATOM     28  H14 TZ5 d   1      35.651  28.818   4.936  0.00  0.00     0.086 H 
ATOM     29  H13 TZ5 d   1      35.767  26.504   4.161  0.00  0.00     0.085 H 
ATOM     30  H5  TZ5 d   1      36.176  21.043   6.985  0.00  0.00     0.090 H 
BRANCH  18  31
ATOM     31  N2  TZ5 d   1      36.427  20.198   4.533  0.00  0.00    -0.399 N 
ATOM     32  H1  TZ5 d   1      36.518  19.946   3.538  0.00  0.00     0.156 HD
ATOM     33  H2  TZ5 d   1      36.466  19.465   5.255  0.00  0.00     0.156 HD
ENDBRANCH  18  31
BRANCH  22  34
ATOM     34  C12 TZ5 d   1      35.813  24.989   9.948  0.00  0.00    -0.031 A 
ATOM     35  C13 TZ5 d   1      34.601  25.171  10.611  0.00  0.00    -0.074 A 
ATOM     36  C14 TZ5 d   1      34.584  25.316  11.994  0.00  0.00    -0.082 A 
ATOM     37  H7  TZ5 d   1      33.674  25.200  10.050  0.00  0.00     0.084 H 
ATOM     38  C15 TZ5 d   1      35.784  25.264  12.702  0.00  0.00    -0.083 A 
ATOM     39  H8  TZ5 d   1      33.647  25.468  12.517  0.00  0.00     0.083 H 
ATOM     40  C16 TZ5 d   1      37.000  25.066  12.046  0.00  0.00    -0.082 A 
ATOM     41  H9  TZ5 d   1      35.772  25.379  13.780  0.00  0.00     0.083 H 
ATOM     42  C17 TZ5 d   1      37.012  24.923  10.664  0.00  0.00    -0.074 A 
ATOM     43  H10 TZ5 d   1      37.925  25.024  12.609  0.00  0.00     0.083 H 
ATOM     44  H11 TZ5 d   1      37.948  24.761  10.142  0.00  0.00     0.084 H 
ENDBRANCH  22  34
BRANCH  25  45
ATOM     45  N1  TZ5 d   1      35.588  29.621   7.485  0.00  0.00    -0.399 N 
ATOM     46  H15 TZ5 d   1      35.566  29.832   8.493  0.00  0.00     0.156 HD
ATOM     47  H16 TZ5 d   1      35.564  30.388   6.798  0.00  0.00     0.156 HD
ENDBRANCH  25  45
ENDBRANCH   7  10
ENDBRANCH   4   7
ENDBRANCH   1   4
BRANCH   1  48
ATOM     48  C23 TZ5 d   1      32.271  21.186   9.482  0.00  0.00    -0.065 C 
ATOM     49  H23 TZ5 d   1      32.480  20.581  10.377  0.00  0.00     0.033 H 
ATOM     50  H24 TZ5 d   1      32.180  20.526   8.607  0.00  0.00     0.033 H 
BRANCH  48  51
ATOM     51  C24 TZ5 d   1      30.940  21.934   9.684  0.00  0.00    -0.060 C 
ATOM     52  H25 TZ5 d   1      30.586  22.274   8.699  0.00  0.00     0.033 H 
ATOM     53  H26 TZ5 d   1      31.133  22.806  10.326  0.00  0.00     0.033 H 
BRANCH  51  54
ATOM     54  C25 TZ5 d   1      29.816  21.099  10.335  0.00  0.00    -0.024 C 
ATOM     55  H27 TZ5 d   1      29.330  20.510   9.543  0.00  0.00     0.042 H 
ATOM     56  H28 TZ5 d   1      29.087  21.796  10.774  0.00  0.00     0.042 H 
BRANCH  54  57
ATOM     57  C26 TZ5 d   1      30.255  20.150  11.414  0.00  0.00     0.051 A 
ATOM     58  N4  TZ5 d   1      30.903  20.304  12.597  0.00  0.00    -0.253 N 
ATOM     59  N5  TZ5 d   1      31.074  19.136  13.202  0.00  0.00    -0.066 NA
ATOM     60  N6  TZ5 d   1      30.570  18.164  12.486  0.00  0.00    -0.142 NA
ATOM     61  C27 TZ5 d   1      30.081  18.770  11.405  0.00  0.00     0.049 A 
ATOM     62  H29 TZ5 d   1      29.592  18.236  10.592  0.00  0.00     0.120 H 
BRANCH  58  63
ATOM     63  C28 TZ5 d   1      31.328  21.628  13.085  0.00  0.00     0.033 C 
ATOM     64  H30 TZ5 d   1      31.807  22.170  12.256  0.00  0.00     0.070 H 
ATOM     65  H31 TZ5 d   1      32.055  21.485  13.898  0.00  0.00     0.070 H 
BRANCH  63  66
ATOM     66  C29 TZ5 d   1      30.159  22.479  13.616  0.00  0.00     0.009 C 
ATOM     67  H32 TZ5 d   1      29.518  22.774  12.772  0.00  0.00     0.066 H 
ATOM     68  H33 TZ5 d   1      30.562  23.380  14.102  0.00  0.00     0.066 H 
BRANCH  66  69
ATOM     69  N7  TZ5 d   1      29.348  21.722  14.598  0.00  0.00    -0.387 N 
ATOM     70  H34 TZ5 d   1      29.698  21.508  15.543  0.00  0.00     0.159 HD
BRANCH  69  71
ATOM     71  C30 TZ5 d   1      28.091  21.317  14.175  0.00  0.00     0.053 A 
ATOM     72  C31 TZ5 d   1      27.171  22.084  13.409  0.00  0.00     0.020 A 
ATOM     73  C32 TZ5 d   1      27.411  23.437  12.958  0.00  0.00    -0.069 A 
ATOM     74  C33 TZ5 d   1      25.929  21.492  13.034  0.00  0.00     0.070 A 
ATOM     75  C36 TZ5 d   1      26.499  24.122  12.198  0.00  0.00    -0.082 A 
ATOM     76  H35 TZ5 d   1      28.340  23.924  13.229  0.00  0.00     0.085 H 
ATOM     77  C35 TZ5 d   1      25.261  23.506  11.827  0.00  0.00    -0.081 A 
ATOM     78  H38 TZ5 d   1      26.716  25.134  11.877  0.00  0.00     0.083 H 
ATOM     79  C34 TZ5 d   1      24.983  22.225  12.231  0.00  0.00    -0.054 A 
ATOM     80  H37 TZ5 d   1      24.543  24.052  11.226  0.00  0.00     0.083 H 
ATOM     81  H36 TZ5 d   1      24.046  21.761  11.944  0.00  0.00     0.087 H 
ATOM     82  N8  TZ5 d   1      25.598  20.238  13.387  0.00  0.00    -0.247 NA
ATOM     83  C37 TZ5 d   1      26.465  19.491  14.101  0.00  0.00     0.070 A 
ATOM     84  C38 TZ5 d   1      26.017  18.207  14.579  0.00  0.00    -0.054 C 
ATOM     85  C39 TZ5 d   1      27.723  19.998  14.540  0.00  0.00     0.020 A 
ATOM     86  C42 TZ5 d   1      26.930  17.378  15.152  0.00  0.00    -0.081 C 
ATOM     87  H39 TZ5 d   1      24.979  17.910  14.484  0.00  0.00     0.087 H 
ATOM     88  C41 TZ5 d   1      27.960  17.988  15.921  0.00  0.00    -0.082 C 
ATOM     89  H42 TZ5 d   1      26.876  16.302  15.029  0.00  0.00     0.083 H 
ATOM     90  C40 TZ5 d   1      28.457  19.197  15.504  0.00  0.00    -0.069 C 
ATOM     91  H41 TZ5 d   1      28.343  17.509  16.815  0.00  0.00     0.083 H 
ATOM     92  H40 TZ5 d   1      29.402  19.556  15.896  0.00  0.00     0.085 H 
ENDBRANCH  69  71
ENDBRANCH  66  69
ENDBRANCH  63  66
ENDBRANCH  58  63
ENDBRANCH  54  57
ENDBRANCH  51  54
ENDBRANCH  48  51
ENDBRANCH   1  48
TORSDOF 14
