REMARK  12 active torsions:
REMARK  status: ('A' for Active; 'I' for Inactive)
REMARK    1  A    between atoms: C6_9  and  O6_1 
REMARK    2  A    between atoms: C4_6  and  O4_2 
REMARK    3  A    between atoms: C5_5  and  O5_3 
REMARK       I    between atoms: N1_4  and  C19_27 
REMARK    4  A    between atoms: C22_28  and  N1_4 
REMARK    5  A    between atoms: C1_7  and  O1_20 
REMARK    6  A    between atoms: C2_8  and  O2_21 
REMARK    7  A    between atoms: N2_11  and  C23_43 
REMARK       I    between atoms: C20_46  and  N2_11 
REMARK    8  A    between atoms: C3_18  and  O3_14 
REMARK    9  A    between atoms: C24_33  and  N3_15 
REMARK       I    between atoms: N3_15  and  C21_34 
REMARK   10  A    between atoms: C19_27  and  C16_16 
REMARK   11  A    between atoms: C21_34  and  C18_35 
REMARK   12  A    between atoms: C20_46  and  C17_48 
ROOT
ATOM      1  C22 EB4 d   1      -4.119 -22.702  11.262  0.00  0.00     0.117 C 
ATOM      2  C25 EB4 d   1      -4.257 -22.630   9.877  0.00  0.00     0.284 C 
ATOM      3  O10 EB4 d   1      -3.297 -22.864   9.141  0.00  0.00    -0.263 OA
ATOM      4  O15 EB4 d   1      -5.468 -22.224   9.439  0.00  0.00    -0.317 OA
ATOM      5  C30 EB4 d   1      -5.564 -22.127   8.017  0.00  0.00     0.056 C 
ATOM      6  C24 EB4 d   1      -6.937 -21.551   7.683  0.00  0.00     0.117 C 
ATOM      7  C27 EB4 d   1      -7.902 -22.347   8.342  0.00  0.00     0.284 C 
ATOM      8  O12 EB4 d   1      -8.049 -23.517   7.983  0.00  0.00    -0.263 OA
ATOM      9  C28 EB4 d   1      -5.247 -23.515  11.926  0.00  0.00     0.056 C 
ATOM     10  O13 EB4 d   1      -6.494 -22.743  11.982  0.00  0.00    -0.317 OA
ATOM     11  C26 EB4 d   1      -7.600 -23.464  11.616  0.00  0.00     0.284 C 
ATOM     12  O11 EB4 d   1      -7.541 -24.639  11.259  0.00  0.00    -0.263 OA
ATOM     13  C23 EB4 d   1      -8.863 -22.830  11.649  0.00  0.00     0.117 C 
ATOM     14  C29 EB4 d   1      -9.413 -22.734  10.196  0.00  0.00     0.056 C 
ATOM     15  O14 EB4 d   1      -8.595 -21.794   9.383  0.00  0.00    -0.317 OA
ATOM     16  H   EB4 d   1      -3.185 -23.221  11.477  0.00  0.00     0.091 H 
ATOM     17  H   EB4 d   1      -5.444 -23.110   7.561  0.00  0.00     0.079 H 
ATOM     18  H   EB4 d   1      -4.777 -21.482   7.627  0.00  0.00     0.079 H 
ATOM     19  H   EB4 d   1      -7.233 -21.578   6.634  0.00  0.00     0.091 H 
ATOM     20  H   EB4 d   1      -4.945 -23.763  12.944  0.00  0.00     0.079 H 
ATOM     21  H   EB4 d   1      -5.421 -24.415  11.337  0.00  0.00     0.079 H 
ATOM     22  H   EB4 d   1      -9.434 -23.456  12.334  0.00  0.00     0.091 H 
ATOM     23  H   EB4 d   1     -10.439 -22.367  10.232  0.00  0.00     0.079 H 
ATOM     24  H   EB4 d   1      -9.372 -23.722   9.738  0.00  0.00     0.079 H 
ENDROOT
BRANCH   1  25
ATOM     25  N1  EB4 d   1      -4.091 -21.335  11.816  0.00  0.00    -0.341 N 
ATOM     26  C19 EB4 d   1      -3.066 -20.926  12.600  0.00  0.00     0.255 C 
ATOM     27  O7  EB4 d   1      -2.155 -21.694  12.931  0.00  0.00    -0.268 OA
ATOM     28  H   EB4 d   1      -4.853 -20.690  11.606  0.00  0.00     0.163 HD
BRANCH  26  29
ATOM     29  C16 EB4 d   1      -3.147 -19.626  13.158  0.00  0.00     0.068 A 
ATOM     30  C1  EB4 d   1      -4.229 -18.761  12.977  0.00  0.00     0.114 A 
ATOM     31  C4  EB4 d   1      -4.284 -17.507  13.571  0.00  0.00     0.099 A 
ATOM     32  C7  EB4 d   1      -3.254 -17.081  14.387  0.00  0.00    -0.048 A 
ATOM     33  C10 EB4 d   1      -2.169 -17.919  14.593  0.00  0.00    -0.079 A 
ATOM     34  H   EB4 d   1      -3.294 -16.101  14.862  0.00  0.00     0.087 H 
ATOM     35  C13 EB4 d   1      -2.122 -19.182  13.992  0.00  0.00    -0.065 A 
ATOM     36  H   EB4 d   1      -1.346 -17.592  15.228  0.00  0.00     0.083 H 
ATOM     37  H   EB4 d   1      -1.267 -19.831  14.180  0.00  0.00     0.085 H 
BRANCH  30  38
ATOM     38  O1  EB4 d   1      -5.273 -19.124  12.177  0.00  0.00    -0.357 OA
ATOM     39  H   EB4 d   1      -5.925 -18.419  12.164  0.00  0.00     0.217 HD
ENDBRANCH  30  38
BRANCH  31  40
ATOM     40  O4  EB4 d   1      -5.384 -16.748  13.324  0.00  0.00    -0.358 OA
ATOM     41  H   EB4 d   1      -5.304 -15.911  13.787  0.00  0.00     0.217 HD
ENDBRANCH  31  40
ENDBRANCH  26  29
ENDBRANCH   1  25
BRANCH   6  42
ATOM     42  N3  EB4 d   1      -6.865 -20.117   8.065  0.00  0.00    -0.341 N 
ATOM     43  C21 EB4 d   1      -7.072 -19.091   7.190  0.00  0.00     0.255 C 
ATOM     44  O9  EB4 d   1      -7.356 -19.266   6.002  0.00  0.00    -0.268 OA
ATOM     45  H   EB4 d   1      -6.649 -19.887   9.035  0.00  0.00     0.163 HD
BRANCH  43  46
ATOM     46  C18 EB4 d   1      -6.819 -17.783   7.648  0.00  0.00     0.068 A 
ATOM     47  C3  EB4 d   1      -6.675 -17.418   8.989  0.00  0.00     0.114 A 
ATOM     48  C6  EB4 d   1      -6.386 -16.112   9.392  0.00  0.00     0.099 A 
ATOM     49  C9  EB4 d   1      -6.237 -15.116   8.439  0.00  0.00    -0.048 A 
ATOM     50  C12 EB4 d   1      -6.370 -15.451   7.098  0.00  0.00    -0.079 A 
ATOM     51  H   EB4 d   1      -6.020 -14.090   8.737  0.00  0.00     0.087 H 
ATOM     52  C15 EB4 d   1      -6.650 -16.763   6.708  0.00  0.00    -0.065 A 
ATOM     53  H   EB4 d   1      -6.254 -14.678   6.338  0.00  0.00     0.083 H 
ATOM     54  H   EB4 d   1      -6.739 -16.996   5.647  0.00  0.00     0.085 H 
BRANCH  47  55
ATOM     55  O3  EB4 d   1      -6.829 -18.363   9.937  0.00  0.00    -0.357 OA
ATOM     56  H   EB4 d   1      -6.020 -18.436  10.448  0.00  0.00     0.217 HD
ENDBRANCH  47  55
BRANCH  48  57
ATOM     57  O6  EB4 d   1      -6.264 -15.857  10.731  0.00  0.00    -0.358 OA
ATOM     58  H   EB4 d   1      -6.401 -16.669  11.224  0.00  0.00     0.217 HD
ENDBRANCH  48  57
ENDBRANCH  43  46
ENDBRANCH   6  42
BRANCH  13  59
ATOM     59  N2  EB4 d   1      -8.927 -21.446  12.184  0.00  0.00    -0.341 N 
ATOM     60  C20 EB4 d   1     -10.056 -20.975  12.777  0.00  0.00     0.255 C 
ATOM     61  O8  EB4 d   1     -11.067 -21.668  12.920  0.00  0.00    -0.268 OA
ATOM     62  H   EB4 d   1      -8.111 -20.839  12.105  0.00  0.00     0.163 HD
BRANCH  60  63
ATOM     63  C17 EB4 d   1     -10.145 -19.606  13.061  0.00  0.00     0.068 A 
ATOM     64  C2  EB4 d   1      -9.123 -18.693  12.801  0.00  0.00     0.114 A 
ATOM     65  C5  EB4 d   1      -9.269 -17.329  13.048  0.00  0.00     0.099 A 
ATOM     66  C8  EB4 d   1     -10.474 -16.825  13.537  0.00  0.00    -0.048 A 
ATOM     67  C11 EB4 d   1     -11.522 -17.713  13.780  0.00  0.00    -0.079 A 
ATOM     68  H   EB4 d   1     -10.595 -15.758  13.726  0.00  0.00     0.087 H 
ATOM     69  C14 EB4 d   1     -11.359 -19.080  13.537  0.00  0.00    -0.065 A 
ATOM     70  H   EB4 d   1     -12.472 -17.339  14.161  0.00  0.00     0.083 H 
ATOM     71  H   EB4 d   1     -12.194 -19.755  13.721  0.00  0.00     0.085 H 
BRANCH  64  72
ATOM     72  O2  EB4 d   1      -7.927 -19.139  12.334  0.00  0.00    -0.357 OA
ATOM     73  H   EB4 d   1      -7.733 -18.714  11.495  0.00  0.00     0.217 HD
ENDBRANCH  64  72
BRANCH  65  74
ATOM     74  O5  EB4 d   1      -8.189 -16.550  12.776  0.00  0.00    -0.358 OA
ATOM     75  H   EB4 d   1      -7.445 -16.838  13.310  0.00  0.00     0.217 HD
ENDBRANCH  65  74
ENDBRANCH  60  63
ENDBRANCH  13  59
TORSDOF 12
