REMARK  15 active torsions:
REMARK  status: ('A' for Active; 'I' for Inactive)
REMARK    1  A    between atoms: O20_1  and  C17_2 
REMARK    2  A    between atoms: C18_3  and  O19_4 
REMARK    3  A    between atoms: C13_8  and  C11_9 
REMARK       I    between atoms: C11_9  and  N10_11 
REMARK    4  A    between atoms: N10_11  and  C9_12 
REMARK    5  A    between atoms: C9_12  and  C2_13 
REMARK    6  A    between atoms: C4_16  and  C8_17 
REMARK    7  A    between atoms: C8_17  and  N21_18 
REMARK       I    between atoms: N21_18  and  C22_19 
REMARK    8  A    between atoms: C22_19  and  C24_21 
REMARK    9  A    between atoms: C28_25  and  O31_26 
REMARK   10  A    between atoms: C29_27  and  O30_28 
REMARK   11  A    between atoms: C6_30  and  C7_31 
REMARK   12  A    between atoms: C7_31  and  N32_32 
REMARK       I    between atoms: N32_32  and  C33_33 
REMARK   13  A    between atoms: C33_33  and  C35_35 
REMARK   14  A    between atoms: C39_39  and  O42_40 
REMARK   15  A    between atoms: C40_41  and  O41_42 
ROOT
ATOM      1  C2  ECA d   1      16.201  22.356  10.123  0.00  0.00    -0.039 A 
ATOM      2  C1  ECA d   1      14.829  22.537  10.242  0.00  0.00    -0.068 A 
ATOM      3  C3  ECA d   1      16.744  21.852   8.938  0.00  0.00    -0.068 A 
ATOM      4  C4  ECA d   1      15.912  21.590   7.851  0.00  0.00    -0.039 A 
ATOM      5  C5  ECA d   1      14.530  21.768   7.962  0.00  0.00    -0.068 A 
ATOM      6  C6  ECA d   1      13.997  22.277   9.152  0.00  0.00    -0.039 A 
ATOM      7  H   ECA d   1      14.403  22.881  11.184  0.00  0.00     0.085 H 
ATOM      8  H   ECA d   1      17.815  21.664   8.864  0.00  0.00     0.085 H 
ATOM      9  H   ECA d   1      13.874  21.513   7.130  0.00  0.00     0.085 H 
ENDROOT
BRANCH   1  10
ATOM     10  C9  ECA d   1      17.115  22.578  11.321  0.00  0.00     0.019 C 
ATOM     11  H   ECA d   1      18.054  23.089  11.110  0.00  0.00     0.071 H 
ATOM     12  H   ECA d   1      16.742  23.267  12.079  0.00  0.00     0.071 H 
BRANCH  10  13
ATOM     13  N10 ECA d   1      17.236  21.148  11.747  0.00  0.00    -0.353 N 
ATOM     14  C11 ECA d   1      18.143  20.590  12.554  0.00  0.00     0.254 C 
ATOM     15  O12 ECA d   1      19.045  21.215  13.104  0.00  0.00    -0.268 OA
ATOM     16  H   ECA d   1      16.531  20.514  11.370  0.00  0.00     0.163 HD
BRANCH  14  17
ATOM     17  C13 ECA d   1      18.075  19.036  12.704  0.00  0.00     0.067 A 
ATOM     18  C18 ECA d   1      17.053  18.241  12.167  0.00  0.00     0.114 A 
ATOM     19  C17 ECA d   1      17.079  16.855  12.302  0.00  0.00     0.099 A 
ATOM     20  C16 ECA d   1      18.127  16.227  12.978  0.00  0.00    -0.048 A 
ATOM     21  C15 ECA d   1      19.151  17.005  13.506  0.00  0.00    -0.079 A 
ATOM     22  H   ECA d   1      18.142  15.143  13.090  0.00  0.00     0.087 H 
ATOM     23  C14 ECA d   1      19.129  18.392  13.356  0.00  0.00    -0.065 A 
ATOM     24  H   ECA d   1      19.974  16.530  14.039  0.00  0.00     0.083 H 
ATOM     25  H   ECA d   1      19.951  18.985  13.756  0.00  0.00     0.085 H 
BRANCH  18  26
ATOM     26  O19 ECA d   1      15.993  18.764  11.507  0.00  0.00    -0.357 OA
ATOM     27  H   ECA d   1      15.968  18.413  10.614  0.00  0.00     0.217 HD
ENDBRANCH  18  26
BRANCH  19  28
ATOM     28  O20 ECA d   1      16.054  16.135  11.783  0.00  0.00    -0.358 OA
ATOM     29  H   ECA d   1      15.232  16.407  12.197  0.00  0.00     0.217 HD
ENDBRANCH  19  28
ENDBRANCH  14  17
ENDBRANCH  10  13
ENDBRANCH   1  10
BRANCH   6  30
ATOM     30  C7  ECA d   1      12.486  22.432   9.329  0.00  0.00     0.019 C 
ATOM     31  H   ECA d   1      11.931  22.597   8.405  0.00  0.00     0.071 H 
ATOM     32  H   ECA d   1      12.178  23.322   9.878  0.00  0.00     0.071 H 
BRANCH  30  33
ATOM     33  N32 ECA d   1      12.190  21.129  10.020  0.00  0.00    -0.353 N 
ATOM     34  C33 ECA d   1      11.118  20.850  10.779  0.00  0.00     0.254 C 
ATOM     35  O34 ECA d   1      10.194  21.645  10.977  0.00  0.00    -0.268 OA
ATOM     36  H   ECA d   1      12.873  20.381   9.900  0.00  0.00     0.163 HD
BRANCH  34  37
ATOM     37  C35 ECA d   1      11.085  19.446  11.456  0.00  0.00     0.067 A 
ATOM     38  C36 ECA d   1       9.918  19.073  12.135  0.00  0.00    -0.065 A 
ATOM     39  C37 ECA d   1       9.820  17.833  12.776  0.00  0.00    -0.079 A 
ATOM     40  H   ECA d   1       9.072  19.760  12.165  0.00  0.00     0.085 H 
ATOM     41  C38 ECA d   1      10.900  16.949  12.765  0.00  0.00    -0.048 A 
ATOM     42  H   ECA d   1       8.897  17.556  13.286  0.00  0.00     0.083 H 
ATOM     43  C39 ECA d   1      12.071  17.313  12.104  0.00  0.00     0.099 A 
ATOM     44  H   ECA d   1      10.828  15.985  13.268  0.00  0.00     0.087 H 
ATOM     45  C40 ECA d   1      12.169  18.545  11.463  0.00  0.00     0.114 A 
BRANCH  43  46
ATOM     46  O42 ECA d   1      13.152  16.485  12.082  0.00  0.00    -0.358 OA
ATOM     47  H   ECA d   1      13.861  16.899  11.584  0.00  0.00     0.217 HD
ENDBRANCH  43  46
BRANCH  45  48
ATOM     48  O41 ECA d   1      13.350  18.803  10.846  0.00  0.00    -0.357 OA
ATOM     49  H   ECA d   1      14.059  18.782  11.493  0.00  0.00     0.217 HD
ENDBRANCH  45  48
ENDBRANCH  34  37
ENDBRANCH  30  33
ENDBRANCH   6  30
BRANCH   4  50
ATOM     50  C8  ECA d   1      16.510  20.998   6.572  0.00  0.00     0.019 C 
ATOM     51  H   ECA d   1      17.566  21.217   6.410  0.00  0.00     0.071 H 
ATOM     52  H   ECA d   1      16.113  21.407   5.643  0.00  0.00     0.071 H 
BRANCH  50  53
ATOM     53  N21 ECA d   1      16.192  19.566   6.818  0.00  0.00    -0.353 N 
ATOM     54  C22 ECA d   1      16.207  18.566   5.930  0.00  0.00     0.254 C 
ATOM     55  O23 ECA d   1      16.542  18.691   4.750  0.00  0.00    -0.268 OA
ATOM     56  H   ECA d   1      15.933  19.318   7.773  0.00  0.00     0.163 HD
BRANCH  54  57
ATOM     57  C24 ECA d   1      15.729  17.187   6.471  0.00  0.00     0.067 A 
ATOM     58  C25 ECA d   1      15.758  16.087   5.612  0.00  0.00    -0.065 A 
ATOM     59  C26 ECA d   1      15.337  14.831   6.043  0.00  0.00    -0.079 A 
ATOM     60  H   ECA d   1      16.115  16.213   4.590  0.00  0.00     0.085 H 
ATOM     61  C27 ECA d   1      14.858  14.656   7.340  0.00  0.00    -0.048 A 
ATOM     62  H   ECA d   1      15.382  13.981   5.362  0.00  0.00     0.083 H 
ATOM     63  C28 ECA d   1      14.810  15.739   8.210  0.00  0.00     0.099 A 
ATOM     64  H   ECA d   1      14.522  13.673   7.671  0.00  0.00     0.087 H 
ATOM     65  C29 ECA d   1      15.244  16.987   7.779  0.00  0.00     0.114 A 
BRANCH  63  66
ATOM     66  O31 ECA d   1      14.349  15.582   9.493  0.00  0.00    -0.358 OA
ATOM     67  H   ECA d   1      14.385  16.425   9.950  0.00  0.00     0.217 HD
ENDBRANCH  63  66
BRANCH  65  68
ATOM     68  O30 ECA d   1      15.183  18.002   8.672  0.00  0.00    -0.357 OA
ATOM     69  H   ECA d   1      14.273  18.127   8.951  0.00  0.00     0.217 HD
ENDBRANCH  65  68
ENDBRANCH  54  57
ENDBRANCH  50  53
ENDBRANCH   4  50
TORSDOF 15
