REMARK  6 active torsions:
REMARK  status: ('A' for Active; 'I' for Inactive)
REMARK    1  A    between atoms: O4_1  and  C4_2 
REMARK    2  A    between atoms: C3_6  and  O3_7 
REMARK    3  A    between atoms: C2_8  and  O2_9 
REMARK    4  A    between atoms: C1_10  and  O1_11 
REMARK    5  A    between atoms: N2_14  and  C8_15 
REMARK    6  A    between atoms: C8_15  and  C9_16 
ROOT
ATOM      1  C4  LGS d   1     -35.769 -15.403  -2.063  0.00  0.00     0.084 C 
ATOM      2  C5  LGS d   1     -34.419 -15.793  -1.430  0.00  0.00     0.066 C 
ATOM      3  C6  LGS d   1     -33.681 -14.547  -0.913  0.00  0.00     0.050 C 
ATOM      4  O6  LGS d   1     -33.094 -14.975   0.323  0.00  0.00    -0.319 OA
ATOM      5  C3  LGS d   1     -36.454 -16.633  -2.569  0.00  0.00     0.091 C 
ATOM      6  C2  LGS d   1     -36.795 -17.550  -1.404  0.00  0.00     0.104 C 
ATOM      7  C1  LGS d   1     -35.701 -17.638  -0.272  0.00  0.00     0.133 C 
ATOM      8  N1  LGS d   1     -34.701 -16.572  -0.217  0.00  0.00    -0.307 N 
ATOM      9  C7  LGS d   1     -33.920 -15.977   0.829  0.00  0.00     0.241 C 
ATOM     10  N2  LGS d   1     -33.843 -16.268   2.146  0.00  0.00    -0.251 NA
ATOM     11  H   LGS d   1     -36.358 -14.905  -1.293  0.00  0.00     0.090 H 
ATOM     12  H   LGS d   1     -33.833 -16.325  -2.179  0.00  0.00     0.080 H 
ATOM     13  H   LGS d   1     -34.351 -13.698  -0.778  0.00  0.00     0.078 H 
ATOM     14  H   LGS d   1     -32.934 -14.188  -1.621  0.00  0.00     0.078 H 
ATOM     15  H   LGS d   1     -35.787 -17.155  -3.255  0.00  0.00     0.091 H 
ATOM     16  H   LGS d   1     -37.647 -17.145  -0.858  0.00  0.00     0.093 H 
ATOM     17  H   LGS d   1     -35.222 -18.587  -0.512  0.00  0.00     0.122 H 
ENDROOT
BRANCH  10  18
ATOM     18  C8  LGS d   1     -34.541 -17.291   2.973  0.00  0.00     0.016 C 
ATOM     19  H   LGS d   1     -34.084 -18.260   2.771  0.00  0.00     0.066 H 
ATOM     20  H   LGS d   1     -35.599 -17.272   2.713  0.00  0.00     0.066 H 
BRANCH  18  21
ATOM     21  C9  LGS d   1     -34.409 -16.998   4.529  0.00  0.00    -0.059 C 
ATOM     22  H   LGS d   1     -33.356 -16.997   4.809  0.00  0.00     0.029 H 
ATOM     23  H   LGS d   1     -34.847 -16.025   4.753  0.00  0.00     0.029 H 
ATOM     24  H   LGS d   1     -34.934 -17.772   5.089  0.00  0.00     0.029 H 
ENDBRANCH  18  21
ENDBRANCH  10  18
BRANCH   7  25
ATOM     25  O1  LGS d   1     -36.308 -17.520   1.006  0.00  0.00    -0.374 OA
ATOM     26  H   LGS d   1     -36.998 -18.182   1.094  0.00  0.00     0.212 HD
ENDBRANCH   7  25
BRANCH   1  27
ATOM     27  O4  LGS d   1     -35.599 -14.523  -3.163  0.00  0.00    -0.391 OA
ATOM     28  H   LGS d   1     -36.458 -14.303  -3.531  0.00  0.00     0.210 HD
ENDBRANCH   1  27
BRANCH   6  29
ATOM     29  O2  LGS d   1     -37.080 -18.827  -1.997  0.00  0.00    -0.389 OA
ATOM     30  H   LGS d   1     -36.307 -19.137  -2.474  0.00  0.00     0.210 HD
ENDBRANCH   6  29
BRANCH   5  31
ATOM     31  O3  LGS d   1     -37.641 -16.274  -3.252  0.00  0.00    -0.390 OA
ATOM     32  H   LGS d   1     -37.423 -15.704  -3.993  0.00  0.00     0.210 HD
ENDBRANCH   5  31
TORSDOF 6
