REMARK  12 active torsions:
REMARK  status: ('A' for Active; 'I' for Inactive)
REMARK    1  A    between atoms: O4_1  and  C4_2 
REMARK    2  A    between atoms: C3_6  and  O3_7 
REMARK    3  A    between atoms: C2_8  and  O2_9 
REMARK    4  A    between atoms: C1_10  and  O1_11 
REMARK    5  A    between atoms: N2_14  and  C8_15 
REMARK    6  A    between atoms: C8_15  and  C9_16 
REMARK    7  A    between atoms: C9_16  and  C10_17 
REMARK    8  A    between atoms: C10_17  and  C11_18 
REMARK    9  A    between atoms: C11_18  and  C12_19 
REMARK   10  A    between atoms: C12_19  and  C13_20 
REMARK   11  A    between atoms: C13_20  and  C14_21 
REMARK   12  A    between atoms: C14_21  and  C15_22 
ROOT
ATOM      1  C4  AMF d   1     -35.938 -15.577  -1.909  0.00  0.00     0.083 C 
ATOM      2  C5  AMF d   1     -34.625 -16.038  -1.354  0.00  0.00     0.052 C 
ATOM      3  C6  AMF d   1     -33.807 -14.737  -1.114  0.00  0.00     0.005 C 
ATOM      4  S1  AMF d   1     -33.048 -15.063   0.495  0.00  0.00    -0.090 SA
ATOM      5  C3  AMF d   1     -36.647 -16.781  -2.455  0.00  0.00     0.091 C 
ATOM      6  C2  AMF d   1     -37.006 -17.741  -1.299  0.00  0.00     0.104 C 
ATOM      7  C1  AMF d   1     -35.976 -17.811  -0.117  0.00  0.00     0.132 C 
ATOM      8  N1  AMF d   1     -34.921 -16.777  -0.077  0.00  0.00    -0.323 N 
ATOM      9  C7  AMF d   1     -34.151 -16.293   1.018  0.00  0.00     0.162 C 
ATOM     10  N2  AMF d   1     -34.208 -16.711   2.250  0.00  0.00    -0.267 NA
ATOM     11  H   AMF d   1     -36.571 -15.127  -1.144  0.00  0.00     0.090 H 
ATOM     12  H   AMF d   1     -34.063 -16.709  -2.004  0.00  0.00     0.078 H 
ATOM     13  H   AMF d   1     -34.417 -13.834  -1.129  0.00  0.00     0.052 H 
ATOM     14  H   AMF d   1     -33.081 -14.532  -1.901  0.00  0.00     0.052 H 
ATOM     15  H   AMF d   1     -36.013 -17.271  -3.194  0.00  0.00     0.091 H 
ATOM     16  H   AMF d   1     -37.908 -17.335  -0.842  0.00  0.00     0.093 H 
ATOM     17  H   AMF d   1     -35.489 -18.782  -0.203  0.00  0.00     0.122 H 
ENDROOT
BRANCH  10  18
ATOM     18  C8  AMF d   1     -35.220 -17.791   2.453  0.00  0.00     0.018 C 
ATOM     19  H   AMF d   1     -35.066 -18.501   1.640  0.00  0.00     0.067 H 
ATOM     20  H   AMF d   1     -36.187 -17.290   2.494  0.00  0.00     0.067 H 
BRANCH  18  21
ATOM     21  C9  AMF d   1     -35.116 -18.598   3.735  0.00  0.00    -0.048 C 
ATOM     22  H   AMF d   1     -34.082 -18.909   3.885  0.00  0.00     0.035 H 
ATOM     23  H   AMF d   1     -35.754 -19.479   3.662  0.00  0.00     0.035 H 
BRANCH  21  24
ATOM     24  C10 AMF d   1     -35.569 -17.735   4.924  0.00  0.00    -0.064 C 
ATOM     25  H   AMF d   1     -36.107 -18.367   5.630  0.00  0.00     0.033 H 
ATOM     26  H   AMF d   1     -36.208 -16.934   4.552  0.00  0.00     0.033 H 
BRANCH  24  27
ATOM     27  C11 AMF d   1     -34.357 -17.107   5.644  0.00  0.00    -0.065 C 
ATOM     28  H   AMF d   1     -34.314 -16.046   5.399  0.00  0.00     0.033 H 
ATOM     29  H   AMF d   1     -33.451 -17.617   5.317  0.00  0.00     0.033 H 
BRANCH  27  30
ATOM     30  C12 AMF d   1     -34.490 -17.260   7.185  0.00  0.00    -0.065 C 
ATOM     31  H   AMF d   1     -33.662 -16.736   7.662  0.00  0.00     0.033 H 
ATOM     32  H   AMF d   1     -34.475 -18.321   7.434  0.00  0.00     0.033 H 
BRANCH  30  33
ATOM     33  C13 AMF d   1     -35.820 -16.650   7.688  0.00  0.00    -0.065 C 
ATOM     34  H   AMF d   1     -36.427 -16.427   6.810  0.00  0.00     0.033 H 
ATOM     35  H   AMF d   1     -35.569 -15.774   8.286  0.00  0.00     0.033 H 
BRANCH  33  36
ATOM     36  C14 AMF d   1     -36.641 -17.595   8.584  0.00  0.00    -0.069 C 
ATOM     37  H   AMF d   1     -36.035 -17.916   9.431  0.00  0.00     0.032 H 
ATOM     38  H   AMF d   1     -36.945 -18.472   8.012  0.00  0.00     0.032 H 
BRANCH  36  39
ATOM     39  C15 AMF d   1     -37.891 -16.847   9.092  0.00  0.00    -0.077 C 
ATOM     40  H   AMF d   1     -37.582 -15.973   9.665  0.00  0.00     0.027 H 
ATOM     41  H   AMF d   1     -38.494 -16.530   8.241  0.00  0.00     0.027 H 
ATOM     42  H   AMF d   1     -38.477 -17.511   9.727  0.00  0.00     0.027 H 
ENDBRANCH  36  39
ENDBRANCH  33  36
ENDBRANCH  30  33
ENDBRANCH  27  30
ENDBRANCH  24  27
ENDBRANCH  21  24
ENDBRANCH  18  21
ENDBRANCH  10  18
BRANCH   7  43
ATOM     43  O1  AMF d   1     -36.749 -17.498   1.043  0.00  0.00    -0.374 OA
ATOM     44  H   AMF d   1     -37.477 -18.119   1.118  0.00  0.00     0.212 HD
ENDBRANCH   7  43
BRANCH   1  45
ATOM     45  O4  AMF d   1     -35.709 -14.545  -2.903  0.00  0.00    -0.391 OA
ATOM     46  H   AMF d   1     -36.551 -14.251  -3.257  0.00  0.00     0.210 HD
ENDBRANCH   1  45
BRANCH   6  47
ATOM     47  O2  AMF d   1     -37.205 -19.026  -1.839  0.00  0.00    -0.389 OA
ATOM     48  H   AMF d   1     -36.400 -19.318  -2.273  0.00  0.00     0.210 HD
ENDBRANCH   6  47
BRANCH   5  49
ATOM     49  O3  AMF d   1     -37.877 -16.346  -2.979  0.00  0.00    -0.390 OA
ATOM     50  H   AMF d   1     -37.718 -15.705  -3.676  0.00  0.00     0.210 HD
ENDBRANCH   5  49
TORSDOF 12
