REMARK  9 active torsions:
REMARK  status: ('A' for Active; 'I' for Inactive)
REMARK    1  A    between atoms: N3_3  and  C30_2 
REMARK    2  A    between atoms: C30_2  and  C26_35 
REMARK    3  A    between atoms: N3_3  and  C31_4 
REMARK    4  A    between atoms: C23_25  and  N3_3 
REMARK    5  A    between atoms: N2_6  and  C25_5 
REMARK    6  A    between atoms: N2_6  and  C24_7 
REMARK    7  A    between atoms: C26_35  and  N2_6 
REMARK    8  A    between atoms: C5_12  and  C8_13 
REMARK    9  A    between atoms: C7_19  and  C16_20 
ROOT
ATOM      1  C28 IB8 d   1      24.652  11.791   4.950  0.00  0.00     0.057 C 
ATOM      2  C22 IB8 d   1      26.619  10.377   5.610  0.00  0.00     0.032 C 
ATOM      3  N1  IB8 d   1      27.770  11.237   6.008  0.00  0.00    -0.343 N 
ATOM      4  C1  IB8 d   1      29.032  11.131   5.580  0.00  0.00     0.046 A 
ATOM      5  C6  IB8 d   1      29.584  10.250   4.671  0.00  0.00    -0.040 A 
ATOM      6  C5  IB8 d   1      30.937  10.335   4.365  0.00  0.00     0.043 A 
ATOM      7  C4  IB8 d   1      31.766  11.287   4.965  0.00  0.00    -0.066 A 
ATOM      8  C3  IB8 d   1      31.207  12.189   5.874  0.00  0.00    -0.069 A 
ATOM      9  C2  IB8 d   1      29.841  12.104   6.173  0.00  0.00    -0.000 A 
ATOM     10  C7  IB8 d   1      28.995  12.817   7.005  0.00  0.00    -0.014 A 
ATOM     11  C23 IB8 d   1      25.825  10.957   4.417  0.00  0.00     0.170 C 
ATOM     12  C9  IB8 d   1      27.711  12.274   6.893  0.00  0.00     0.055 A 
ATOM     13  C10 IB8 d   1      26.551  12.666   7.548  0.00  0.00     0.025 A 
ATOM     14  C11 IB8 d   1      26.569  12.733   8.936  0.00  0.00    -0.068 A 
ATOM     15  C12 IB8 d   1      25.438  13.138   9.638  0.00  0.00    -0.082 A 
ATOM     16  C13 IB8 d   1      24.276  13.482   8.953  0.00  0.00    -0.080 A 
ATOM     17  C14 IB8 d   1      24.249  13.431   7.559  0.00  0.00    -0.050 A 
ATOM     18  C15 IB8 d   1      25.394  13.029   6.859  0.00  0.00     0.081 A 
ATOM     19  O3  IB8 d   1      25.349  12.987   5.488  0.00  0.00    -0.348 OA
ATOM     20  H   IB8 d   1      24.051  11.268   5.694  0.00  0.00     0.078 H 
ATOM     21  H   IB8 d   1      23.908  12.028   4.189  0.00  0.00     0.078 H 
ATOM     22  H   IB8 d   1      25.942  10.309   6.461  0.00  0.00     0.068 H 
ATOM     23  H   IB8 d   1      27.015   9.407   5.309  0.00  0.00     0.068 H 
ATOM     24  H   IB8 d   1      28.962   9.492   4.196  0.00  0.00     0.088 H 
ATOM     25  H   IB8 d   1      32.829  11.325   4.728  0.00  0.00     0.085 H 
ATOM     26  H   IB8 d   1      31.827  12.951   6.346  0.00  0.00     0.085 H 
ATOM     27  H   IB8 d   1      26.537  11.577   3.872  0.00  0.00     0.094 H 
ATOM     28  H   IB8 d   1      27.476  12.466   9.479  0.00  0.00     0.085 H 
ATOM     29  H   IB8 d   1      25.462  13.186  10.727  0.00  0.00     0.083 H 
ATOM     30  H   IB8 d   1      23.388  13.791   9.505  0.00  0.00     0.083 H 
ATOM     31  H   IB8 d   1      23.343  13.702   7.018  0.00  0.00     0.087 H 
ENDROOT
BRANCH  11  32
ATOM     32  N3  IB8 d   1      25.365   9.975   3.375  0.00  0.00     0.094 N 
BRANCH  32  33
ATOM     33  C30 IB8 d   1      26.541   9.328   2.713  0.00  0.00     0.138 C 
ATOM     34  H   IB8 d   1      26.916   8.526   3.349  0.00  0.00     0.082 H 
ATOM     35  H   IB8 d   1      27.322  10.073   2.558  0.00  0.00     0.082 H 
BRANCH  33  36
ATOM     36  C26 IB8 d   1      26.119   8.744   1.355  0.00  0.00     0.137 C 
ATOM     37  H   IB8 d   1      25.527   9.502   0.843  0.00  0.00     0.082 H 
ATOM     38  H   IB8 d   1      25.571   7.822   1.551  0.00  0.00     0.082 H 
BRANCH  36  39
ATOM     39  N2  IB8 d   1      27.264   8.402   0.474  0.00  0.00     0.081 N 
BRANCH  39  40
ATOM     40  C25 IB8 d   1      28.067   7.268   0.984  0.00  0.00     0.095 C 
ATOM     41  H   IB8 d   1      27.430   6.389   1.085  0.00  0.00     0.071 H 
ATOM     42  H   IB8 d   1      28.875   7.054   0.285  0.00  0.00     0.071 H 
ATOM     43  H   IB8 d   1      28.485   7.529   1.956  0.00  0.00     0.071 H 
ENDBRANCH  39  40
BRANCH  39  44
ATOM     44  C24 IB8 d   1      26.719   7.999  -0.846  0.00  0.00     0.095 C 
ATOM     45  H   IB8 d   1      26.067   7.134  -0.720  0.00  0.00     0.071 H 
ATOM     46  H   IB8 d   1      26.149   8.826  -1.270  0.00  0.00     0.071 H 
ATOM     47  H   IB8 d   1      27.541   7.742  -1.514  0.00  0.00     0.071 H 
ENDBRANCH  39  44
ENDBRANCH  36  39
ENDBRANCH  33  36
ENDBRANCH  32  33
BRANCH  32  48
ATOM     48  C31 IB8 d   1      24.379   8.985   3.879  0.00  0.00     0.096 C 
ATOM     49  H   IB8 d   1      24.825   8.411   4.691  0.00  0.00     0.071 H 
ATOM     50  H   IB8 d   1      23.495   9.508   4.245  0.00  0.00     0.071 H 
ATOM     51  H   IB8 d   1      24.096   8.312   3.070  0.00  0.00     0.071 H 
ENDBRANCH  32  48
ENDBRANCH  11  32
BRANCH  10  52
ATOM     52  C16 IB8 d   1      29.410  14.003   7.922  0.00  0.00    -0.025 C 
ATOM     53  C17 IB8 d   1      30.634  13.584   8.773  0.00  0.00    -0.058 C 
ATOM     54  C20 IB8 d   1      31.203  14.738   9.635  0.00  0.00    -0.064 C 
ATOM     55  H   IB8 d   1      31.419  13.266   8.087  0.00  0.00     0.034 H 
ATOM     56  H   IB8 d   1      30.310  12.795   9.451  0.00  0.00     0.034 H 
ATOM     57  C21 IB8 d   1      31.623  15.892   8.723  0.00  0.00    -0.065 C 
ATOM     58  H   IB8 d   1      32.068  14.383  10.195  0.00  0.00     0.033 H 
ATOM     59  H   IB8 d   1      30.439  15.083  10.332  0.00  0.00     0.033 H 
ATOM     60  C19 IB8 d   1      30.379  16.397   7.967  0.00  0.00    -0.064 C 
ATOM     61  H   IB8 d   1      32.376  15.550   8.013  0.00  0.00     0.033 H 
ATOM     62  H   IB8 d   1      32.050  16.700   9.318  0.00  0.00     0.033 H 
ATOM     63  C18 IB8 d   1      29.735  15.286   7.116  0.00  0.00    -0.058 C 
ATOM     64  H   IB8 d   1      30.687  17.203   7.301  0.00  0.00     0.033 H 
ATOM     65  H   IB8 d   1      29.646  16.734   8.700  0.00  0.00     0.033 H 
ATOM     66  H   IB8 d   1      28.795  15.675   6.725  0.00  0.00     0.034 H 
ATOM     67  H   IB8 d   1      30.448  15.013   6.338  0.00  0.00     0.034 H 
ATOM     68  H   IB8 d   1      28.564  14.239   8.568  0.00  0.00     0.047 H 
ENDBRANCH  10  52
BRANCH   6  69
ATOM     69  C8  IB8 d   1      31.489   9.325   3.377  0.00  0.00     0.209 C 
ATOM     70  O2  IB8 d   1      30.670   8.878   2.518  0.00  0.00    -0.644 OA
ATOM     71  O1  IB8 d   1      32.689   8.960   3.552  0.00  0.00    -0.644 OA
ENDBRANCH   6  69
TORSDOF 9
