REMARK  2 active torsions:
REMARK  status: ('A' for Active; 'I' for Inactive)
REMARK    1  A    between atoms: C3_3  and  O3_19 
REMARK    2  A    between atoms: C5_5  and  O4_20 
ROOT
ATOM      1  C1  13C d   1      12.059  15.139   6.282  0.00  0.00     0.255 C 
ATOM      2  C2  13C d   1      11.301  15.810   5.133  0.00  0.00     0.073 A 
ATOM      3  C3  13C d   1      11.101  17.188   5.192  0.00  0.00     0.084 A 
ATOM      4  C4  13C d   1      10.433  17.855   4.168  0.00  0.00    -0.016 A 
ATOM      5  C5  13C d   1       9.959  17.101   3.091  0.00  0.00     0.090 A 
ATOM      6  C6  13C d   1      10.163  15.726   3.037  0.00  0.00     0.075 A 
ATOM      7  C7  13C d   1      10.833  15.068   4.056  0.00  0.00    -0.008 A 
ATOM      8  C8  13C d   1      11.030  13.543   3.962  0.00  0.00     0.017 C 
ATOM      9  C9  13C d   1       9.769  12.661   4.087  0.00  0.00     0.131 C 
ATOM     10  C10 13C d   1       9.871  11.148   3.867  0.00  0.00    -0.009 C 
ATOM     11  C11 13C d   1       9.994  10.470   5.249  0.00  0.00    -0.059 C 
ATOM     12  C12 13C d   1       8.604  10.417   5.912  0.00  0.00    -0.065 C 
ATOM     13  C13 13C d   1       8.775  10.398   7.442  0.00  0.00    -0.065 C 
ATOM     14  C14 13C d   1       9.335  11.741   7.945  0.00  0.00    -0.065 C 
ATOM     15  C15 13C d   1      10.683  11.800   8.526  0.00  0.00    -0.064 C 
ATOM     16  C16 13C d   1      11.137  13.033   9.334  0.00  0.00    -0.050 C 
ATOM     17  C17 13C d   1      12.072  13.912   8.479  0.00  0.00    -0.004 C 
ATOM     18  O2  13C d   1      13.248  15.298   6.370  0.00  0.00    -0.268 OA
ATOM     19 CL1  13C d   1       9.577  14.832   1.651  0.00  0.00    -0.081 Cl
ATOM     20  N1  13C d   1      11.350  14.331   7.269  0.00  0.00    -0.357 N 
ATOM     21  O5  13C d   1       8.709  13.146   4.386  0.00  0.00    -0.298 OA
ATOM     22  H1  13C d   1      10.285  18.928   4.205  0.00  0.00     0.092 H 
ATOM     23  H2  13C d   1      11.721  13.248   4.765  0.00  0.00     0.051 H 
ATOM     24  H3  13C d   1      11.489  13.328   2.986  0.00  0.00     0.051 H 
ATOM     25  H4  13C d   1      10.758  10.918   3.259  0.00  0.00     0.044 H 
ATOM     26  H5  13C d   1       8.970  10.784   3.352  0.00  0.00     0.044 H 
ATOM     27  H6  13C d   1      10.682  11.049   5.883  0.00  0.00     0.033 H 
ATOM     28  H7  13C d   1      10.382   9.448   5.125  0.00  0.00     0.033 H 
ATOM     29  H8  13C d   1       8.076   9.507   5.589  0.00  0.00     0.033 H 
ATOM     30  H9  13C d   1       8.022  11.303   5.618  0.00  0.00     0.033 H 
ATOM     31  H10 13C d   1       9.470   9.591   7.717  0.00  0.00     0.033 H 
ATOM     32  H11 13C d   1       7.797  10.216   7.912  0.00  0.00     0.033 H 
ATOM     33  H12 13C d   1       8.640  12.107   8.715  0.00  0.00     0.033 H 
ATOM     34  H13 13C d   1       9.328  12.430   7.088  0.00  0.00     0.033 H 
ATOM     35  H14 13C d   1      11.391  11.694   7.691  0.00  0.00     0.033 H 
ATOM     36  H15 13C d   1      10.775  10.933   9.197  0.00  0.00     0.033 H 
ATOM     37  H16 13C d   1      11.674  12.700  10.235  0.00  0.00     0.035 H 
ATOM     38  H17 13C d   1      10.255  13.620   9.629  0.00  0.00     0.035 H 
ATOM     39  H18 13C d   1      12.965  13.336   8.196  0.00  0.00     0.064 H 
ATOM     40  H19 13C d   1      12.375  14.799   9.055  0.00  0.00     0.064 H 
ATOM     41  H22 13C d   1      10.396  14.069   7.126  0.00  0.00     0.162 HD
ENDROOT
BRANCH   3  42
ATOM     42  O3  13C d   1      11.607  17.890   6.315  0.00  0.00    -0.360 OA
ATOM     43  H20 13C d   1      12.239  18.537   6.024  0.00  0.00     0.217 HD
ENDBRANCH   3  42
BRANCH   5  44
ATOM     44  O4  13C d   1       9.267  17.731   2.023  0.00  0.00    -0.359 OA
ATOM     45  H21 13C d   1       9.203  18.663   2.195  0.00  0.00     0.217 HD
ENDBRANCH   5  44
TORSDOF 2
