REMARK  6 active torsions:
REMARK  status: ('A' for Active; 'I' for Inactive)
REMARK    1  A    between atoms: C01_1  and  O28_28 
REMARK    2  A    between atoms: C03_3  and  O27_27 
REMARK    3  A    between atoms: C17_17  and  C21_21 
REMARK    4  A    between atoms: C21_21  and  O23_23 
REMARK    5  A    between atoms: O23_23  and  C24_24 
REMARK    6  A    between atoms: C24_24  and  C25_25 
ROOT
ATOM      1  C01 13I d   1     -19.869   4.606  -4.637  0.00  0.00     0.084 A 
ATOM      2  C02 13I d   1     -19.929   5.567  -3.511  0.00  0.00    -0.016 A 
ATOM      3  C03 13I d   1     -19.049   5.354  -2.382  0.00  0.00     0.090 A 
ATOM      4  C04 13I d   1     -18.101   4.190  -2.358  0.00  0.00     0.075 A 
ATOM      5  C05 13I d   1     -18.041   3.214  -3.485  0.00  0.00    -0.008 A 
ATOM      6  C06 13I d   1     -18.897   3.422  -4.605  0.00  0.00     0.073 A 
ATOM      7  C07 13I d   1     -18.932   2.476  -5.759  0.00  0.00     0.255 C 
ATOM      8  O08 13I d   1     -19.926   1.771  -5.916  0.00  0.00    -0.268 OA
ATOM      9  N09 13I d   1     -17.831   2.435  -6.665  0.00  0.00    -0.356 N 
ATOM     10  C10 13I d   1     -17.869   1.628  -7.887  0.00  0.00    -0.002 C 
ATOM     11  C11 13I d   1     -16.548   1.559  -8.622  0.00  0.00    -0.035 C 
ATOM     12  C12 13I d   1     -15.347   1.144  -7.818  0.00  0.00    -0.105 C 
ATOM     13  C13 13I d   1     -14.357   2.069  -7.438  0.00  0.00    -0.106 C 
ATOM     14  C14 13I d   1     -13.224   1.674  -6.484  0.00  0.00    -0.050 C 
ATOM     15  C15 13I d   1     -13.427   0.455  -5.631  0.00  0.00    -0.061 C 
ATOM     16  C16 13I d   1     -14.381   0.562  -4.445  0.00  0.00    -0.046 C 
ATOM     17  C17 13I d   1     -14.305   1.847  -3.685  0.00  0.00     0.088 C 
ATOM     18  C18 13I d   1     -15.605   2.682  -3.689  0.00  0.00     0.144 C 
ATOM     19  C19 13I d   1     -16.986   2.123  -3.456  0.00  0.00     0.018 C 
ATOM     20  O20 13I d   1     -15.479   3.861  -3.976  0.00  0.00    -0.297 OA
ATOM     21 CL   13I d   1     -17.133   3.916  -0.951  0.00  0.00    -0.081 Cl
ATOM     22  H1  13I d   1     -20.614   6.407  -3.532  0.00  0.00     0.092 H 
ATOM     23  H2  13I d   1     -17.012   2.971  -6.461  0.00  0.00     0.162 HD
ATOM     24  H3  13I d   1     -18.619   2.062  -8.565  0.00  0.00     0.064 H 
ATOM     25  H4  13I d   1     -18.168   0.605  -7.616  0.00  0.00     0.064 H 
ATOM     26  H5  13I d   1     -16.344   2.558  -9.034  0.00  0.00     0.041 H 
ATOM     27  H6  13I d   1     -16.662   0.839  -9.446  0.00  0.00     0.041 H 
ATOM     28  H7  13I d   1     -15.241   0.101  -7.522  0.00  0.00     0.076 H 
ATOM     29  H8  13I d   1     -14.396   3.085  -7.829  0.00  0.00     0.076 H 
ATOM     30  H9  13I d   1     -13.052   2.524  -5.808  0.00  0.00     0.038 H 
ATOM     31  H10 13I d   1     -12.325   1.503  -7.094  0.00  0.00     0.038 H 
ATOM     32  H11 13I d   1     -12.443   0.166  -5.234  0.00  0.00     0.033 H 
ATOM     33  H12 13I d   1     -13.807  -0.343  -6.286  0.00  0.00     0.033 H 
ATOM     34  H13 13I d   1     -14.154  -0.259  -3.749  0.00  0.00     0.034 H 
ATOM     35  H14 13I d   1     -15.408   0.449  -4.822  0.00  0.00     0.034 H 
ATOM     36  H15 13I d   1     -13.616   2.447  -4.298  0.00  0.00     0.067 H 
ATOM     37  H16 13I d   1     -17.211   1.387  -4.242  0.00  0.00     0.051 H 
ATOM     38  H17 13I d   1     -17.010   1.629  -2.474  0.00  0.00     0.051 H 
ENDROOT
BRANCH  17  39
ATOM     39  C21 13I d   1     -13.625   1.819  -2.347  0.00  0.00     0.270 C 
ATOM     40  O22 13I d   1     -13.410   2.907  -1.797  0.00  0.00    -0.264 OA
BRANCH  39  41
ATOM     41  O23 13I d   1     -12.861   0.835  -2.014  0.00  0.00    -0.321 OA
BRANCH  41  42
ATOM     42  C24 13I d   1     -12.345   0.846  -0.679  0.00  0.00     0.025 C 
ATOM     43  H18 13I d   1     -12.362  -0.190  -0.310  0.00  0.00     0.074 H 
ATOM     44  H19 13I d   1     -13.021   1.464  -0.069  0.00  0.00     0.074 H 
BRANCH  42  45
ATOM     45  C25 13I d   1     -10.958   1.370  -0.483  0.00  0.00    -0.056 C 
ATOM     46  H20 13I d   1     -10.694   1.320   0.584  0.00  0.00     0.030 H 
ATOM     47  H21 13I d   1     -10.909   2.415  -0.824  0.00  0.00     0.030 H 
ATOM     48  H22 13I d   1     -10.250   0.761  -1.065  0.00  0.00     0.030 H 
ENDBRANCH  42  45
ENDBRANCH  41  42
ENDBRANCH  39  41
ENDBRANCH  17  39
BRANCH   3  49
ATOM     49  O27 13I d   1     -19.042   6.234  -1.325  0.00  0.00    -0.359 OA
ATOM     50  H23 13I d   1     -19.688   6.914  -1.476  0.00  0.00     0.217 HD
ENDBRANCH   3  49
BRANCH   1  51
ATOM     51  O28 13I d   1     -20.654   4.741  -5.753  0.00  0.00    -0.360 OA
ATOM     52  H24 13I d   1     -21.210   5.505  -5.657  0.00  0.00     0.217 HD
ENDBRANCH   1  51
TORSDOF 6
