REMARK  3 active torsions:
REMARK  status: ('A' for Active; 'I' for Inactive)
REMARK    1  A    between atoms: CBC_6  and  CAT_7 
REMARK    2  A    between atoms: CAT_7  and  NAW_8 
REMARK       I    between atoms: NAW_8  and  CAZ_9 
REMARK    3  A    between atoms: CAZ_9  and  CBG_11 
ROOT
ATOM      1  CBG 13N d   1      14.835   1.575   4.484  0.00  0.00     0.081 C 
ATOM      2  CAS 13N d   1      13.658   2.220   5.159  0.00  0.00    -0.044 C 
ATOM      3  CAQ 13N d   1      13.030   1.224   6.090  0.00  0.00    -0.049 C 
ATOM      4  CAO 13N d   1      13.756   1.139   7.388  0.00  0.00    -0.106 C 
ATOM      5  CAG 13N d   1      15.088   0.837   7.249  0.00  0.00    -0.106 C 
ATOM      6  CAH 13N d   1      15.876   1.092   8.341  0.00  0.00    -0.049 C 
ATOM      7  CAP 13N d   1      17.220   0.851   8.349  0.00  0.00    -0.047 C 
ATOM      8  CAR 13N d   1      18.024   2.077   8.050  0.00  0.00    -0.004 C 
ATOM      9  NAV 13N d   1      17.918   2.496   6.681  0.00  0.00    -0.357 N 
ATOM     10  CAY 13N d   1      19.097   2.600   5.858  0.00  0.00     0.254 C 
ATOM     11  OAB 13N d   1      20.100   1.996   6.109  0.00  0.00    -0.268 OA
ATOM     12  CBF 13N d   1      19.054   3.509   4.670  0.00  0.00     0.068 A 
ATOM     13  CBB 13N d   1      19.934   4.566   4.685  0.00  0.00     0.104 A 
ATOM     14  OAE 13N d   1      20.707   4.719   5.728  0.00  0.00    -0.196 OA
ATOM     15  CAN 13N d   1      19.968   5.434   3.642  0.00  0.00     0.020 A 
ATOM     16  CBA 13N d   1      19.135   5.235   2.592  0.00  0.00     0.158 A 
ATOM     17  OAD 13N d   1      19.170   6.063   1.584  0.00  0.00    -0.223 OA
ATOM     18  CBD 13N d   1      18.270   4.160   2.574  0.00  0.00     0.077 A 
ATOM     19 CL1  13N d   1      17.265   3.973   1.231  0.00  0.00    -0.117 Cl
ATOM     20  CBE 13N d   1      18.216   3.279   3.621  0.00  0.00    -0.033 A 
ATOM     21  CAU 13N d   1      17.254   2.112   3.626  0.00  0.00     0.014 C 
ATOM     22  CAX 13N d   1      15.843   2.582   4.004  0.00  0.00     0.144 C 
ATOM     23  OAA 13N d   1      15.503   3.724   3.883  0.00  0.00    -0.297 OA
ATOM     24  H   13N d   1      15.290   0.917   5.224  0.00  0.00     0.066 H 
ATOM     25  H   13N d   1      12.931   2.537   4.411  0.00  0.00     0.035 H 
ATOM     26  H   13N d   1      13.987   3.094   5.720  0.00  0.00     0.035 H 
ATOM     27  H   13N d   1      13.065   0.244   5.615  0.00  0.00     0.038 H 
ATOM     28  H   13N d   1      12.008   1.543   6.292  0.00  0.00     0.038 H 
ATOM     29  H   13N d   1      13.277   1.301   8.354  0.00  0.00     0.076 H 
ATOM     30  H   13N d   1      15.494   0.420   6.327  0.00  0.00     0.076 H 
ATOM     31  H   13N d   1      15.492   0.404   9.095  0.00  0.00     0.038 H 
ATOM     32  H   13N d   1      15.814   2.175   8.449  0.00  0.00     0.038 H 
ATOM     33  H   13N d   1      17.434   0.112   7.577  0.00  0.00     0.035 H 
ATOM     34  H   13N d   1      17.494   0.504   9.346  0.00  0.00     0.035 H 
ATOM     35  H   13N d   1      19.071   1.844   8.246  0.00  0.00     0.064 H 
ATOM     36  H   13N d   1      17.644   2.885   8.675  0.00  0.00     0.064 H 
ATOM     37  H   13N d   1      17.004   2.721   6.289  0.00  0.00     0.162 HD
ATOM     38  H   13N d   1      20.971   5.334   3.227  0.00  0.00     0.048 H 
ATOM     39  H   13N d   1      19.663   6.391   4.064  0.00  0.00     0.048 H 
ATOM     40  H   13N d   1      18.545   3.307   3.194  0.00  0.00     0.076 H 
ATOM     41  H   13N d   1      17.591   1.378   4.358  0.00  0.00     0.051 H 
ATOM     42  H   13N d   1      17.226   1.671   2.629  0.00  0.00     0.051 H 
ENDROOT
BRANCH   1  43
ATOM     43  CAZ 13N d   1      14.379   0.851   3.277  0.00  0.00     0.229 C 
ATOM     44  NAW 13N d   1      15.002  -0.286   3.112  0.00  0.00    -0.356 N 
ATOM     45  H   13N d   1      15.731  -0.544   3.777  0.00  0.00     0.162 HD
ATOM     46  OAC 13N d   1      13.570   1.328   2.509  0.00  0.00    -0.273 OA
BRANCH  44  47
ATOM     47  CAT 13N d   1      14.704  -1.193   2.030  0.00  0.00     0.019 C 
ATOM     48  H   13N d   1      14.620  -2.205   2.427  0.00  0.00     0.071 H 
ATOM     49  H   13N d   1      13.767  -0.892   1.561  0.00  0.00     0.071 H 
BRANCH  47  50
ATOM     50  CBC 13N d   1      15.807  -1.158   0.997  0.00  0.00    -0.041 A 
ATOM     51  CAL 13N d   1      16.605  -2.254   0.820  0.00  0.00    -0.075 A 
ATOM     52  CAJ 13N d   1      17.605  -2.259  -0.112  0.00  0.00    -0.082 A 
ATOM     53  H   13N d   1      16.441  -3.140   1.433  0.00  0.00     0.084 H 
ATOM     54  CAI 13N d   1      17.812  -1.166  -0.869  0.00  0.00    -0.083 A 
ATOM     55  H   13N d   1      18.230  -3.142  -0.241  0.00  0.00     0.083 H 
ATOM     56  CAK 13N d   1      16.996  -0.078  -0.697  0.00  0.00    -0.082 A 
ATOM     57  H   13N d   1      18.615  -1.146  -1.606  0.00  0.00     0.083 H 
ATOM     58  CAM 13N d   1      16.007  -0.057   0.225  0.00  0.00    -0.075 A 
ATOM     59  H   13N d   1      17.149   0.800  -1.325  0.00  0.00     0.083 H 
ATOM     60  H   13N d   1      15.381   0.827   0.347  0.00  0.00     0.084 H 
ENDBRANCH  47  50
ENDBRANCH  44  47
ENDBRANCH   1  43
TORSDOF 3
