REMARK WARNING: 32 MAX_TORS EXCEEDED!!!
REMARK  60 active torsions:
REMARK  status: ('A' for Active; 'I' for Inactive)
REMARK    1  A    between atoms: N_1  and  CA_2 
REMARK    2  A    between atoms: CA_2  and  C_3 
REMARK    3  A    between atoms: CA_2  and  CB_5 
REMARK       I    between atoms: C_3  and  N_7 
REMARK    4  A    between atoms: CB_5  and  OG_6 
REMARK    5  A    between atoms: N_7  and  CA_8 
REMARK    6  A    between atoms: CA_8  and  C_9 
REMARK    7  A    between atoms: CA_8  and  CB_11 
REMARK       I    between atoms: C_9  and  N_14 
REMARK    8  A    between atoms: CB_11  and  CG1_12 
REMARK    9  A    between atoms: CB_11  and  CG2_13 
REMARK   10  A    between atoms: N_14  and  CA_15 
REMARK   11  A    between atoms: CA_15  and  C_16 
REMARK   12  A    between atoms: CA_15  and  CB_18 
REMARK       I    between atoms: C_16  and  N_28 
REMARK   13  A    between atoms: CB_18  and  CG_19 
REMARK   14  A    between atoms: N_28  and  CA_29 
REMARK   15  A    between atoms: CA_29  and  C_30 
REMARK   16  A    between atoms: CA_29  and  CB_32 
REMARK       I    between atoms: C_30  and  N_36 
REMARK   17  A    between atoms: CB_32  and  CG1_33 
REMARK   18  A    between atoms: CB_32  and  CG2_34 
REMARK   19  A    between atoms: CG1_33  and  CD1_35 
REMARK   20  A    between atoms: CA_37  and  C_38 
REMARK       I    between atoms: C_38  and  N_43 
REMARK   21  A    between atoms: N_43  and  CA_44 
REMARK   22  A    between atoms: CA_44  and  C_45 
REMARK   23  A    between atoms: CA_44  and  CB_47 
REMARK       I    between atoms: C_45  and  N_50 
REMARK   24  A    between atoms: CB_47  and  CG1_48 
REMARK   25  A    between atoms: CB_47  and  CG2_49 
REMARK   26  A    between atoms: N_50  and  CA_51 
REMARK   27  A    between atoms: CA_51  and  C_52 
REMARK   28  A    between atoms: CA_51  and  CB_54 
REMARK       I    between atoms: C_52  and  N_58 
REMARK   29  A    between atoms: CB_54  and  CG_55 
REMARK       I    between atoms: CG_55  and  ND2_57 
REMARK   30  A    between atoms: N_58  and  CA_59 
REMARK   31  A    between atoms: CA_59  and  C_60 
REMARK   32  A    between atoms: CA_59  and  CB_62 
REMARK       I    between atoms: C_60  and  N_67 
REMARK   33  A    between atoms: CB_62  and  CG_63 
REMARK   34  A    between atoms: CG_63  and  CD_64 
REMARK   35  A    between atoms: N_67  and  CA_68 
REMARK   36  A    between atoms: CA_68  and  C_69 
REMARK       I    between atoms: C_69  and  N_71 
REMARK   37  A    between atoms: N_71  and  CA_72 
REMARK   38  A    between atoms: CA_72  and  C_73 
REMARK   39  A    between atoms: CA_72  and  CB_75 
REMARK       I    between atoms: C_73  and  N_76 
REMARK   40  A    between atoms: N_76  and  CA_77 
REMARK   41  A    between atoms: CA_77  and  C_78 
REMARK   42  A    between atoms: CA_77  and  CB_80 
REMARK       I    between atoms: C_78  and  N_82 
REMARK   43  A    between atoms: CB_80  and  OG_81 
REMARK   44  A    between atoms: N_82  and  CA_83 
REMARK   45  A    between atoms: CA_83  and  C_84 
REMARK   46  A    between atoms: CA_83  and  CB_86 
REMARK       I    between atoms: C_84  and  N_89 
REMARK   47  A    between atoms: CB_86  and  OG1_87 
REMARK   48  A    between atoms: CB_86  and  CG2_88 
REMARK   49  A    between atoms: N_89  and  CA_90 
REMARK   50  A    between atoms: CA_90  and  C_91 
REMARK   51  A    between atoms: CA_90  and  CB_93 
REMARK       I    between atoms: C_91  and  N_95 
REMARK   52  A    between atoms: CB_93  and  OG_94 
REMARK   53  A    between atoms: N_95  and  CA_96 
REMARK   54  A    between atoms: CA_96  and  C_97 
REMARK       I    between atoms: C_97  and  N_99 
REMARK   55  A    between atoms: N_99  and  CA_100 
REMARK   56  A    between atoms: CA_100  and  C_101 
REMARK   57  A    between atoms: CA_100  and  CB_103 
REMARK   58  A    between atoms: CB_103  and  CG_104 
REMARK   59  A    between atoms: CG_104  and  SD_105 
REMARK   60  A    between atoms: SD_105  and  CE_106 
ROOT
ATOM      1  CA  ASN d   1     -29.161  -6.423   6.275  0.00  0.00     0.097 C 
ATOM      2  H   ASN d   1     -29.000  -6.110   5.243  0.00  0.00     0.088 H 
ENDROOT
BRANCH   1   3
ATOM      3  N   ASN d   1     -27.879  -7.082   6.585  0.00  0.00    -0.346 N 
ATOM      4  C   VAL d   1     -27.615  -7.737   7.719  0.00  0.00     0.241 C 
ATOM      5  O   VAL d   1     -28.354  -7.722   8.716  0.00  0.00    -0.271 OA
ATOM      6  H   ASN d   1     -27.140  -7.034   5.883  0.00  0.00     0.163 HD
BRANCH   4   7
ATOM      7  CA  VAL d   1     -26.267  -8.479   7.751  0.00  0.00     0.092 C 
ATOM      8  H   VAL d   1     -25.643  -8.049   6.968  0.00  0.00     0.088 H 
BRANCH   7   9
ATOM      9  N   VAL d   1     -25.597  -8.290   9.028  0.00  0.00    -0.346 N 
ATOM     10  C   PRO d   1     -25.424  -7.091   9.574  0.00  0.00     0.241 C 
ATOM     11  O   PRO d   1     -25.744  -6.023   9.019  0.00  0.00    -0.271 OA
ATOM     12  H   VAL d   1     -25.246  -9.110   9.524  0.00  0.00     0.163 HD
BRANCH  10  13
ATOM     13  CA  PRO d   1     -24.786  -7.106  10.960  0.00  0.00     0.091 C 
ATOM     14  N   PRO d   1     -23.998  -5.919  11.281  0.00  0.00    -0.337 N 
ATOM     15  C   ILE d   1     -22.996  -5.543  10.466  0.00  0.00     0.243 C 
ATOM     16  CD  PRO d   1     -24.402  -5.333  12.577  0.00  0.00    -0.001 C 
ATOM     17  O   ILE d   1     -22.688  -6.173   9.452  0.00  0.00    -0.271 OA
ATOM     18  CG  PRO d   1     -25.188  -6.443  13.212  0.00  0.00    -0.048 C 
ATOM     19  H   PRO d   1     -24.978  -4.414  12.466  0.00  0.00     0.064 H 
ATOM     20  H   PRO d   1     -23.553  -5.014  13.182  0.00  0.00     0.064 H 
ATOM     21  CB  PRO d   1     -25.863  -7.110  12.047  0.00  0.00    -0.036 C 
ATOM     22  H   PRO d   1     -24.558  -7.130  13.777  0.00  0.00     0.035 H 
ATOM     23  H   PRO d   1     -25.899  -6.079  13.953  0.00  0.00     0.035 H 
ATOM     24  H   PRO d   1     -26.212  -8.115  12.286  0.00  0.00     0.036 H 
ATOM     25  H   PRO d   1     -26.771  -6.592  11.738  0.00  0.00     0.036 H 
ATOM     26  H   PRO d   1     -24.155  -7.994  10.936  0.00  0.00     0.087 H 
BRANCH  15  27
ATOM     27  CA  ILE d   1     -22.173  -4.324  10.896  0.00  0.00     0.092 C 
ATOM     28  H   ILE d   1     -22.452  -4.062  11.917  0.00  0.00     0.088 H 
BRANCH  27  29
ATOM     29  N   ILE d   1     -20.743  -4.652  10.934  0.00  0.00    -0.346 N 
ATOM     30  C   TRP d   1     -20.336  -5.540  11.828  0.00  0.00     0.241 C 
ATOM     31  O   TRP d   1     -21.102  -6.115  12.546  0.00  0.00    -0.271 OA
ATOM     32  H   ILE d   1     -20.084  -4.210  10.293  0.00  0.00     0.163 HD
BRANCH  30  33
ATOM     33  CA  TRP d   1     -18.837  -5.775  11.972  0.00  0.00     0.093 C 
ATOM     34  H   TRP d   1     -18.713  -6.825  12.235  0.00  0.00     0.088 H 
BRANCH  33  35
ATOM     35  N   TRP d   1     -18.049  -5.652  10.748  0.00  0.00    -0.346 N 
ATOM     36  C   VAL d   1     -17.283  -6.659  10.325  0.00  0.00     0.241 C 
ATOM     37  O   VAL d   1     -17.193  -7.729  10.926  0.00  0.00    -0.271 OA
ATOM     38  H   TRP d   1     -18.085  -4.786  10.210  0.00  0.00     0.163 HD
BRANCH  36  39
ATOM     39  CA  VAL d   1     -16.490  -6.439   9.028  0.00  0.00     0.092 C 
ATOM     40  H   VAL d   1     -16.846  -5.517   8.569  0.00  0.00     0.088 H 
BRANCH  39  41
ATOM     41  N   VAL d   1     -15.054  -6.283   9.289  0.00  0.00    -0.346 N 
ATOM     42  C   SER d   1     -14.465  -5.102   9.454  0.00  0.00     0.251 C 
ATOM     43  O   SER d   1     -15.057  -4.027   9.460  0.00  0.00    -0.271 OA
ATOM     44  H   VAL d   1     -14.479  -7.123   9.347  0.00  0.00     0.163 HD
BRANCH  42  45
ATOM     45  CA  SER d   1     -12.959  -5.151   9.696  0.00  0.00     0.195 C 
ATOM     46  H   SER d   1     -12.617  -6.164   9.484  0.00  0.00     0.102 H 
BRANCH  45  47
ATOM     47  N   SER d   1     -12.218  -4.255   8.791  0.00  0.00    -0.064 N 
ATOM     48  H   SER d   1     -12.425  -4.504   7.824  0.00  0.00     0.275 HD
ATOM     49  H   SER d   1     -12.501  -3.290   8.963  0.00  0.00     0.275 HD
ATOM     50  H   SER d   1     -11.217  -4.353   8.962  0.00  0.00     0.275 HD
ENDBRANCH  45  47
BRANCH  45  51
ATOM     51  CB  SER d   1     -12.667  -4.800  11.162  0.00  0.00     0.051 C 
ATOM     52  H   SER d   1     -13.225  -5.493  11.791  0.00  0.00     0.077 H 
ATOM     53  H   SER d   1     -12.958  -3.762  11.323  0.00  0.00     0.077 H 
BRANCH  51  54
ATOM     54  OG  SER d   1     -11.294  -4.924  11.487  0.00  0.00    -0.398 OA
ATOM     55  H   SER d   1     -11.163  -4.695  12.410  0.00  0.00     0.209 HD
ENDBRANCH  51  54
ENDBRANCH  45  51
ENDBRANCH  42  45
ENDBRANCH  39  41
BRANCH  39  56
ATOM     56  CB  VAL d   1     -16.723  -7.626   8.069  0.00  0.00    -0.033 C 
ATOM     57  H   VAL d   1     -16.340  -8.526   8.550  0.00  0.00     0.042 H 
BRANCH  56  58
ATOM     58  CG1 VAL d   1     -18.179  -7.854   7.804  0.00  0.00    -0.071 C 
ATOM     59  H   VAL d   1     -18.689  -8.069   8.743  0.00  0.00     0.028 H 
ATOM     60  H   VAL d   1     -18.609  -6.960   7.352  0.00  0.00     0.028 H 
ATOM     61  H   VAL d   1     -18.296  -8.698   7.125  0.00  0.00     0.028 H 
ENDBRANCH  56  58
BRANCH  56  62
ATOM     62  CG2 VAL d   1     -15.969  -7.390   6.761  0.00  0.00    -0.071 C 
ATOM     63  H   VAL d   1     -16.330  -6.473   6.295  0.00  0.00     0.028 H 
ATOM     64  H   VAL d   1     -14.903  -7.298   6.969  0.00  0.00     0.028 H 
ATOM     65  H   VAL d   1     -16.138  -8.231   6.089  0.00  0.00     0.028 H 
ENDBRANCH  56  62
ENDBRANCH  39  56
ENDBRANCH  36  39
ENDBRANCH  33  35
BRANCH  33  66
ATOM     66  CB  TRP d   1     -18.304  -4.851  13.088  0.00  0.00    -0.012 C 
ATOM     67  H   TRP d   1     -18.829  -5.146  13.996  0.00  0.00     0.044 H 
ATOM     68  H   TRP d   1     -18.465  -3.833  12.735  0.00  0.00     0.044 H 
BRANCH  66  69
ATOM     69  CG  TRP d   1     -16.827  -4.950  13.412  0.00  0.00    -0.028 A 
ATOM     70  CD1 TRP d   1     -15.924  -3.938  13.392  0.00  0.00    -0.015 A 
ATOM     71  NE1 TRP d   1     -14.693  -4.389  13.759  0.00  0.00    -0.365 N 
ATOM     72  H   TRP d   1     -16.152  -2.907  13.120  0.00  0.00     0.112 H 
ATOM     73  CE2 TRP d   1     -14.779  -5.722  14.031  0.00  0.00     0.042 A 
ATOM     74  H   TRP d   1     -13.847  -3.823  13.820  0.00  0.00     0.165 HD
ATOM     75  CD2 TRP d   1     -16.115  -6.103  13.843  0.00  0.00    -0.002 A 
ATOM     76  CZ2 TRP d   1     -13.802  -6.611  14.437  0.00  0.00    -0.056 A 
ATOM     77  CE3 TRP d   1     -16.466  -7.433  14.055  0.00  0.00    -0.070 A 
ATOM     78  CZ3 TRP d   1     -15.487  -8.311  14.452  0.00  0.00    -0.082 A 
ATOM     79  H   TRP d   1     -17.492  -7.770  13.910  0.00  0.00     0.084 H 
ATOM     80  CH2 TRP d   1     -14.180  -7.901  14.643  0.00  0.00    -0.081 A 
ATOM     81  H   TRP d   1     -15.746  -9.356  14.621  0.00  0.00     0.083 H 
ATOM     82  H   TRP d   1     -13.436  -8.629  14.966  0.00  0.00     0.083 H 
ATOM     83  H   TRP d   1     -12.771  -6.291  14.586  0.00  0.00     0.086 H 
ENDBRANCH  66  69
ENDBRANCH  33  66
ENDBRANCH  30  33
ENDBRANCH  27  29
BRANCH  27  84
ATOM     84  CB  ILE d   1     -22.519  -3.054  10.071  0.00  0.00    -0.030 C 
ATOM     85  H   ILE d   1     -21.885  -2.235  10.410  0.00  0.00     0.043 H 
BRANCH  84  86
ATOM     86  CG1 ILE d   1     -23.989  -2.686  10.302  0.00  0.00    -0.063 C 
ATOM     87  H   ILE d   1     -24.179  -2.795  11.370  0.00  0.00     0.033 H 
ATOM     88  H   ILE d   1     -24.584  -3.340   9.664  0.00  0.00     0.033 H 
BRANCH  86  89
ATOM     89  CD1 ILE d   1     -24.344  -1.290   9.940  0.00  0.00    -0.076 C 
ATOM     90  H   ILE d   1     -23.748  -0.599  10.536  0.00  0.00     0.027 H 
ATOM     91  H   ILE d   1     -24.141  -1.128   8.882  0.00  0.00     0.027 H 
ATOM     92  H   ILE d   1     -25.403  -1.123  10.138  0.00  0.00     0.027 H 
ENDBRANCH  86  89
ENDBRANCH  84  86
BRANCH  84  93
ATOM     93  CG2 ILE d   1     -22.230  -3.248   8.592  0.00  0.00    -0.071 C 
ATOM     94  H   ILE d   1     -21.171  -3.468   8.456  0.00  0.00     0.028 H 
ATOM     95  H   ILE d   1     -22.827  -4.077   8.212  0.00  0.00     0.028 H 
ATOM     96  H   ILE d   1     -22.486  -2.337   8.051  0.00  0.00     0.028 H 
ENDBRANCH  84  93
ENDBRANCH  27  84
ENDBRANCH  15  27
ENDBRANCH  10  13
ENDBRANCH   7   9
BRANCH   7  97
ATOM     97  CB  VAL d   1     -26.438  -9.994   7.442  0.00  0.00    -0.033 C 
ATOM     98  H   VAL d   1     -25.456 -10.456   7.541  0.00  0.00     0.042 H 
BRANCH  97  99
ATOM     99  CG1 VAL d   1     -27.376 -10.680   8.450  0.00  0.00    -0.071 C 
ATOM    100  H   VAL d   1     -26.964 -10.579   9.454  0.00  0.00     0.028 H 
ATOM    101  H   VAL d   1     -28.358 -10.209   8.409  0.00  0.00     0.028 H 
ATOM    102  H   VAL d   1     -27.468 -11.736   8.198  0.00  0.00     0.028 H 
ENDBRANCH  97  99
BRANCH  97 103
ATOM    103  CG2 VAL d   1     -26.923 -10.209   6.028  0.00  0.00    -0.071 C 
ATOM    104  H   VAL d   1     -27.886  -9.715   5.896  0.00  0.00     0.028 H 
ATOM    105  H   VAL d   1     -26.199  -9.790   5.329  0.00  0.00     0.028 H 
ATOM    106  H   VAL d   1     -27.033 -11.277   5.841  0.00  0.00     0.028 H 
ENDBRANCH  97 103
ENDBRANCH   7  97
ENDBRANCH   4   7
ENDBRANCH   1   3
BRANCH   1 107
ATOM    107  C   ASN d   1     -29.498  -5.127   7.012  0.00  0.00     0.241 C 
ATOM    108  O   ASN d   1     -30.617  -4.625   6.880  0.00  0.00    -0.271 OA
ATOM    109  N   GLU d   1     -28.558  -4.575   7.777  0.00  0.00    -0.346 N 
ATOM    110  H   GLU d   1     -27.645  -5.020   7.868  0.00  0.00     0.163 HD
BRANCH 109 111
ATOM    111  CA  GLU d   1     -28.843  -3.323   8.488  0.00  0.00     0.090 C 
ATOM    112  H   GLU d   1     -29.741  -3.469   9.088  0.00  0.00     0.087 H 
BRANCH 111 113
ATOM    113  C   GLU d   1     -29.089  -2.205   7.488  0.00  0.00     0.240 C 
ATOM    114  O   GLU d   1     -28.200  -1.850   6.723  0.00  0.00    -0.271 OA
ATOM    115  N   GLY d   1     -30.312  -1.684   7.479  0.00  0.00    -0.351 N 
ATOM    116  H   GLY d   1     -30.994  -2.010   8.164  0.00  0.00     0.163 HD
BRANCH 115 117
ATOM    117  CA  GLY d   1     -30.707  -0.656   6.514  0.00  0.00     0.069 C 
ATOM    118  H   GLY d   1     -29.853   0.012   6.404  0.00  0.00     0.078 H 
ATOM    119  H   GLY d   1     -31.614  -0.194   6.904  0.00  0.00     0.078 H 
BRANCH 117 120
ATOM    120  C   GLY d   1     -31.044  -1.166   5.118  0.00  0.00     0.236 C 
ATOM    121  O   GLY d   1     -31.222  -0.361   4.198  0.00  0.00    -0.272 OA
ATOM    122  N   ALA d   1     -31.129  -2.489   4.955  0.00  0.00    -0.347 N 
ATOM    123  H   ALA d   1     -31.001  -3.096   5.765  0.00  0.00     0.163 HD
BRANCH 122 124
ATOM    124  CA  ALA d   1     -31.401  -3.098   3.644  0.00  0.00     0.086 C 
ATOM    125  H   ALA d   1     -30.916  -2.466   2.900  0.00  0.00     0.086 H 
BRANCH 124 126
ATOM    126  C   ALA d   1     -32.889  -3.128   3.314  0.00  0.00     0.240 C 
ATOM    127  O   ALA d   1     -33.739  -3.230   4.210  0.00  0.00    -0.271 OA
ATOM    128  N   SER d   1     -33.188  -3.060   2.019  0.00  0.00    -0.344 N 
ATOM    129  H   SER d   1     -32.427  -2.957   1.348  0.00  0.00     0.163 HD
BRANCH 128 130
ATOM    130  CA  SER d   1     -34.557  -3.127   1.517  0.00  0.00     0.109 C 
ATOM    131  H   SER d   1     -35.085  -3.932   2.027  0.00  0.00     0.090 H 
BRANCH 130 132
ATOM    132  C   SER d   1     -34.520  -3.379   0.016  0.00  0.00     0.243 C 
ATOM    133  O   SER d   1     -33.441  -3.407  -0.588  0.00  0.00    -0.271 OA
ATOM    134  N   THR d   1     -35.696  -3.550  -0.586  0.00  0.00    -0.344 N 
ATOM    135  H   THR d   1     -36.526  -3.732  -0.021  0.00  0.00     0.163 HD
BRANCH 134 136
ATOM    136  CA  THR d   1     -35.820  -3.481  -2.042  0.00  0.00     0.113 C 
ATOM    137  H   THR d   1     -35.045  -4.115  -2.473  0.00  0.00     0.091 H 
BRANCH 136 138
ATOM    138  C   THR d   1     -35.665  -2.020  -2.478  0.00  0.00     0.243 C 
ATOM    139  O   THR d   1     -35.740  -1.102  -1.654  0.00  0.00    -0.271 OA
ATOM    140  N   SER d   1     -35.459  -1.800  -3.770  0.00  0.00    -0.344 N 
ATOM    141  H   SER d   1     -35.383  -2.590  -4.411  0.00  0.00     0.163 HD
BRANCH 140 142
ATOM    142  CA  SER d   1     -35.339  -0.436  -4.286  0.00  0.00     0.109 C 
ATOM    143  H   SER d   1     -34.747   0.119  -3.559  0.00  0.00     0.090 H 
BRANCH 142 144
ATOM    144  C   SER d   1     -36.691   0.261  -4.417  0.00  0.00     0.242 C 
ATOM    145  O   SER d   1     -36.757   1.490  -4.457  0.00  0.00    -0.271 OA
ATOM    146  N   GLY d   1     -37.758  -0.527  -4.501  0.00  0.00    -0.350 N 
ATOM    147  H   GLY d   1     -37.647  -1.531  -4.357  0.00  0.00     0.163 HD
BRANCH 146 148
ATOM    148  CA  GLY d   1     -39.087   0.009  -4.795  0.00  0.00     0.069 C 
ATOM    149  H   GLY d   1     -39.159   0.993  -4.332  0.00  0.00     0.078 H 
ATOM    150  H   GLY d   1     -39.823  -0.696  -4.409  0.00  0.00     0.078 H 
BRANCH 148 151
ATOM    151  C   GLY d   1     -39.342   0.177  -6.286  0.00  0.00     0.236 C 
ATOM    152  O   GLY d   1     -40.440   0.568  -6.691  0.00  0.00    -0.272 OA
ATOM    153  N   MET d   1     -38.332  -0.122  -7.104  0.00  0.00    -0.345 N 
ATOM    154  H   MET d   1     -37.448  -0.429  -6.699  0.00  0.00     0.163 HD
BRANCH 153 155
ATOM    155  CA  MET d   1     -38.442  -0.027  -8.564  0.00  0.00     0.097 C 
ATOM    156  H   MET d   1     -38.946   0.911  -8.797  0.00  0.00     0.089 H 
BRANCH 155 157
ATOM    157  C   MET d   1     -39.267  -1.182  -9.125  0.00  0.00     0.196 C 
ATOM    158  O   MET d   1     -39.044  -2.345  -8.778  0.00  0.00    -0.646 OA
ATOM    159  O1  MET d   1     -40.187  -0.945  -9.953  0.00  0.00    -0.646 OA
ENDBRANCH 155 157
BRANCH 155 160
ATOM    160  CB  MET d   1     -37.054  -0.022  -9.214  0.00  0.00    -0.029 C 
ATOM    161  H   MET d   1     -37.212   0.070 -10.289  0.00  0.00     0.037 H 
ATOM    162  H   MET d   1     -36.556  -0.938  -8.895  0.00  0.00     0.037 H 
BRANCH 160 163
ATOM    163  CG  MET d   1     -36.147   1.137  -8.803  0.00  0.00    -0.021 C 
ATOM    164  H   MET d   1     -35.123   0.765  -8.818  0.00  0.00     0.049 H 
ATOM    165  H   MET d   1     -36.483   1.478  -7.824  0.00  0.00     0.049 H 
BRANCH 163 166
ATOM    166  SD  MET d   1     -36.215   2.556  -9.914  0.00  0.00    -0.173 SA
BRANCH 166 167
ATOM    167  CE  MET d   1     -35.453   1.874 -11.388  0.00  0.00    -0.035 C 
ATOM    168  H   MET d   1     -34.438   1.552 -11.155  0.00  0.00     0.041 H 
ATOM    169  H   MET d   1     -36.036   1.021 -11.735  0.00  0.00     0.041 H 
ATOM    170  H   MET d   1     -35.424   2.636 -12.166  0.00  0.00     0.041 H 
ENDBRANCH 166 167
ENDBRANCH 163 166
ENDBRANCH 160 163
ENDBRANCH 155 160
ENDBRANCH 153 155
ENDBRANCH 148 151
ENDBRANCH 146 148
ENDBRANCH 142 144
BRANCH 142 171
ATOM    171  CB  SER d   1     -34.632  -0.432  -5.639  0.00  0.00     0.044 C 
ATOM    172  H   SER d   1     -33.703  -0.995  -5.554  0.00  0.00     0.077 H 
ATOM    173  H   SER d   1     -34.430   0.599  -5.929  0.00  0.00     0.077 H 
BRANCH 171 174
ATOM    174  OG  SER d   1     -35.445  -1.035  -6.626  0.00  0.00    -0.398 OA
ATOM    175  H   SER d   1     -35.632  -1.942  -6.375  0.00  0.00     0.209 HD
ENDBRANCH 171 174
ENDBRANCH 142 171
ENDBRANCH 140 142
ENDBRANCH 136 138
BRANCH 136 176
ATOM    176  CB  THR d   1     -37.188  -3.993  -2.536  0.00  0.00     0.060 C 
ATOM    177  H   THR d   1     -37.201  -3.950  -3.625  0.00  0.00     0.086 H 
BRANCH 176 178
ATOM    178  OG1 THR d   1     -38.227  -3.161  -2.003  0.00  0.00    -0.393 OA
ATOM    179  H   THR d   1     -38.199  -3.192  -1.044  0.00  0.00     0.210 HD
ENDBRANCH 176 178
BRANCH 176 180
ATOM    180  CG2 THR d   1     -37.418  -5.438  -2.121  0.00  0.00    -0.050 C 
ATOM    181  H   THR d   1     -36.636  -6.066  -2.548  0.00  0.00     0.031 H 
ATOM    182  H   THR d   1     -37.391  -5.511  -1.034  0.00  0.00     0.031 H 
ATOM    183  H   THR d   1     -38.391  -5.769  -2.485  0.00  0.00     0.031 H 
ENDBRANCH 176 180
ENDBRANCH 136 176
ENDBRANCH 134 136
ENDBRANCH 130 132
BRANCH 130 184
ATOM    184  CB  SER d   1     -35.282  -1.806   1.778  0.00  0.00     0.044 C 
ATOM    185  H   SER d   1     -35.120  -1.517   2.817  0.00  0.00     0.077 H 
ATOM    186  H   SER d   1     -36.343  -1.943   1.572  0.00  0.00     0.077 H 
BRANCH 184 187
ATOM    187  OG  SER d   1     -34.782  -0.776   0.935  0.00  0.00    -0.398 OA
ATOM    188  H   SER d   1     -34.913  -1.024   0.017  0.00  0.00     0.209 HD
ENDBRANCH 184 187
ENDBRANCH 130 184
ENDBRANCH 128 130
ENDBRANCH 124 126
BRANCH 124 189
ATOM    189  CB  ALA d   1     -30.811  -4.499   3.559  0.00  0.00    -0.049 C 
ATOM    190  H   ALA d   1     -29.732  -4.447   3.703  0.00  0.00     0.030 H 
ATOM    191  H   ALA d   1     -31.253  -5.125   4.334  0.00  0.00     0.030 H 
ATOM    192  H   ALA d   1     -31.028  -4.924   2.579  0.00  0.00     0.030 H 
ENDBRANCH 124 189
ENDBRANCH 122 124
ENDBRANCH 117 120
ENDBRANCH 115 117
ENDBRANCH 111 113
BRANCH 111 193
ATOM    193  CB  GLU d   1     -27.710  -2.952   9.444  0.00  0.00    -0.029 C 
ATOM    194  H   GLU d   1     -27.876  -1.925   9.769  0.00  0.00     0.037 H 
ATOM    195  H   GLU d   1     -26.770  -3.088   8.910  0.00  0.00     0.037 H 
BRANCH 193 196
ATOM    196  CG  GLU d   1     -27.663  -3.826  10.687  0.00  0.00     0.018 C 
ATOM    197  H   GLU d   1     -26.738  -3.606  11.220  0.00  0.00     0.049 H 
ATOM    198  H   GLU d   1     -27.722  -4.867  10.370  0.00  0.00     0.049 H 
BRANCH 196 199
ATOM    199  CD  GLU d   1     -28.824  -3.555  11.629  0.00  0.00     0.172 C 
ATOM    200  OE1 GLU d   1     -28.771  -2.539  12.356  0.00  0.00    -0.648 OA
ATOM    201  OE2 GLU d   1     -29.779  -4.365  11.647  0.00  0.00    -0.648 OA
ENDBRANCH 196 199
ENDBRANCH 193 196
ENDBRANCH 111 193
ENDBRANCH 109 111
ENDBRANCH   1 107
BRANCH   1 202
ATOM    202  CB  ASN d   1     -30.342  -7.397   6.394  0.00  0.00     0.036 C 
ATOM    203  H   ASN d   1     -31.260  -6.810   6.374  0.00  0.00     0.051 H 
ATOM    204  H   ASN d   1     -30.217  -7.960   7.319  0.00  0.00     0.051 H 
BRANCH 202 205
ATOM    205  CG  ASN d   1     -30.405  -8.393   5.252  0.00  0.00     0.217 C 
ATOM    206  OD1 ASN d   1     -29.924  -8.131   4.144  0.00  0.00    -0.274 OA
ATOM    207  ND2 ASN d   1     -31.022  -9.539   5.513  0.00  0.00    -0.370 N 
ATOM    208  H   ASN d   1     -31.114 -10.246   4.784  0.00  0.00     0.159 HD
ATOM    209  H   ASN d   1     -31.404  -9.712   6.443  0.00  0.00     0.159 HD
ENDBRANCH 202 205
ENDBRANCH   1 202
TORSDOF 60
