REMARK  5 active torsions:
REMARK  status: ('A' for Active; 'I' for Inactive)
REMARK    1  A    between atoms: N_1  and  CA_2 
REMARK    2  A    between atoms: CA_2  and  C_3 
REMARK    3  A    between atoms: CA_2  and  CB_5 
REMARK    4  A    between atoms: CB_5  and  CG_6 
REMARK    5  A    between atoms: CG_6  and  CD_7 
ROOT
ATOM      1  CA  GLU d   1     -22.587  -6.103 -21.856  0.00  0.00     0.183 C 
ATOM      2  H4  GLU d   1     -22.522  -7.193 -21.989  0.00  0.00     0.101 H 
ENDROOT
BRANCH   1   3
ATOM      3  N   GLU d   1     -21.917  -5.472 -22.983  0.00  0.00    -0.065 N 
ATOM      4  H1  GLU d   1     -20.947  -5.744 -22.992  0.00  0.00     0.275 HD
ATOM      5  H2  GLU d   1     -21.984  -4.470 -22.896  0.00  0.00     0.275 HD
ATOM      6  H3  GLU d   1     -22.356  -5.765 -23.842  0.00  0.00     0.275 HD
ENDBRANCH   1   3
BRANCH   1   7
ATOM      7  C   GLU d   1     -24.064  -5.723 -21.795  0.00  0.00     0.204 C 
ATOM      8  O   GLU d   1     -24.650  -5.315 -22.793  0.00  0.00    -0.646 OA
ATOM      9  OXT GLU d   1     -24.714  -5.822 -20.753  0.00  0.00    -0.646 OA
ENDBRANCH   1   7
BRANCH   1  10
ATOM     10  CB  GLU d   1     -21.887  -5.740 -20.546  0.00  0.00    -0.020 C 
ATOM     11  H5  GLU d   1     -22.580  -5.942 -19.716  0.00  0.00     0.037 H 
ATOM     12  H6  GLU d   1     -21.645  -4.667 -20.569  0.00  0.00     0.037 H 
BRANCH  10  13
ATOM     13  CG  GLU d   1     -20.603  -6.514 -20.296  0.00  0.00     0.018 C 
ATOM     14  H7  GLU d   1     -19.996  -5.962 -19.563  0.00  0.00     0.049 H 
ATOM     15  H8  GLU d   1     -20.050  -6.595 -21.244  0.00  0.00     0.049 H 
BRANCH  13  16
ATOM     16  CD  GLU d   1     -20.859  -7.910 -19.762  0.00  0.00     0.172 C 
ATOM     17  OE1 GLU d   1     -21.967  -8.154 -19.238  0.00  0.00    -0.648 OA
ATOM     18  OE2 GLU d   1     -19.948  -8.760 -19.861  0.00  0.00    -0.648 OA
ENDBRANCH  13  16
ENDBRANCH  10  13
ENDBRANCH   1  10
TORSDOF 5
