REMARK  6 active torsions:
REMARK  status: ('A' for Active; 'I' for Inactive)
REMARK    1  A    between atoms: CG2_10  and  CD1_3 
REMARK    2  A    between atoms: CG2_10  and  CD2_4 
REMARK    3  A    between atoms: CA_5  and  C_11 
REMARK    4  A    between atoms: CB_6  and  CB1_7 
REMARK    5  A    between atoms: CB1_7  and  CG1_9 
REMARK    6  A    between atoms: CG_8  and  CG2_10 
ROOT
ATOM      1  N   KAI d   1     -11.323   1.205 -23.432  0.00  0.00    -0.060 N 
ATOM      2  CD  KAI d   1     -12.135   1.512 -24.627  0.00  0.00     0.087 C 
ATOM      3  CA  KAI d   1      -9.925   1.438 -23.763  0.00  0.00     0.188 C 
ATOM      4  CB  KAI d   1      -9.827   1.441 -25.276  0.00  0.00    -0.002 C 
ATOM      5  CG  KAI d   1     -11.160   2.015 -25.688  0.00  0.00    -0.022 C 
ATOM      6  H   KAI d   1     -11.461   0.234 -23.153  0.00  0.00     0.278 HD
ATOM      7  H   KAI d   1     -11.604   1.801 -22.654  0.00  0.00     0.278 HD
ATOM      8  H   KAI d   1     -12.894   2.262 -24.404  0.00  0.00     0.076 H 
ATOM      9  H   KAI d   1     -12.672   0.629 -24.974  0.00  0.00     0.076 H 
ATOM     10  H   KAI d   1      -9.250   0.679 -23.366  0.00  0.00     0.102 H 
ATOM     11  H   KAI d   1      -8.937   1.979 -25.603  0.00  0.00     0.045 H 
ATOM     12  H   KAI d   1     -11.141   3.104 -25.731  0.00  0.00     0.043 H 
ENDROOT
BRANCH   5  13
ATOM     13  CG2 KAI d   1     -11.561   1.620 -27.112  0.00  0.00    -0.056 C 
ATOM     14  H   KAI d   1     -11.047   0.683 -27.325  0.00  0.00     0.039 H 
BRANCH  13  15
ATOM     15  CD1 KAI d   1     -13.061   1.364 -27.244  0.00  0.00    -0.073 C 
ATOM     16  H   KAI d   1     -13.350   0.554 -26.575  0.00  0.00     0.028 H 
ATOM     17  H   KAI d   1     -13.607   2.269 -26.978  0.00  0.00     0.028 H 
ATOM     18  H   KAI d   1     -13.292   1.087 -28.273  0.00  0.00     0.028 H 
ENDBRANCH  13  15
BRANCH  13  19
ATOM     19  CD2 KAI d   1     -11.109   2.662 -28.130  0.00  0.00    -0.073 C 
ATOM     20  H   KAI d   1     -11.570   3.621 -27.895  0.00  0.00     0.028 H 
ATOM     21  H   KAI d   1     -10.024   2.759 -28.091  0.00  0.00     0.028 H 
ATOM     22  H   KAI d   1     -11.411   2.347 -29.129  0.00  0.00     0.028 H 
ENDBRANCH  13  19
ENDBRANCH   5  13
BRANCH   4  23
ATOM     23  CB1 KAI d   1      -9.736   0.049 -25.881  0.00  0.00     0.022 C 
ATOM     24  H   KAI d   1      -9.960   0.152 -26.943  0.00  0.00     0.049 H 
ATOM     25  H   KAI d   1     -10.428  -0.582 -25.324  0.00  0.00     0.049 H 
BRANCH  23  26
ATOM     26  CG1 KAI d   1      -8.377  -0.601 -25.782  0.00  0.00     0.172 C 
ATOM     27  OD1 KAI d   1      -8.377  -1.853 -25.792  0.00  0.00    -0.648 OA
ATOM     28  OD2 KAI d   1      -7.325   0.093 -25.726  0.00  0.00    -0.648 OA
ENDBRANCH  23  26
ENDBRANCH   4  23
BRANCH   3  29
ATOM     29  C   KAI d   1      -9.553   2.770 -23.178  0.00  0.00     0.205 C 
ATOM     30  O   KAI d   1     -10.116   3.209 -22.173  0.00  0.00    -0.646 OA
ATOM     31  OXT KAI d   1      -8.672   3.456 -23.692  0.00  0.00    -0.646 OA
ENDBRANCH   3  29
TORSDOF 6
