REMARK  9 active torsions:
REMARK  status: ('A' for Active; 'I' for Inactive)
REMARK    1  A    between atoms: N1_1  and  C7_7 
REMARK    2  A    between atoms: N4_4  and  C8_8 
REMARK    3  A    between atoms: C10_10  and  N14_14 
REMARK    4  A    between atoms: C12_12  and  S23_21 
REMARK    5  A    between atoms: N14_14  and  C15_15 
REMARK    6  A    between atoms: C18_17  and  C21_20 
REMARK    7  A    between atoms: S23_21  and  C24_22 
REMARK    8  A    between atoms: C27_25  and  N30_28 
REMARK       I    between atoms: N30_28  and  C31_29 
REMARK    9  A    between atoms: C31_29  and  C33_31 
ROOT
ATOM      1  C8  VX6 d   1     -52.456  45.927  -6.359  0.00  0.00     0.132 A 
ATOM      2  C9  VX6 d   1     -52.203  47.070  -5.597  0.00  0.00     0.006 A 
ATOM      3  C10 VX6 d   1     -52.651  48.306  -6.036  0.00  0.00     0.135 A 
ATOM      4  N11 VX6 d   1     -53.317  48.380  -7.179  0.00  0.00    -0.205 NA
ATOM      5  C12 VX6 d   1     -53.552  47.293  -7.926  0.00  0.00     0.197 A 
ATOM      6  N13 VX6 d   1     -53.122  46.064  -7.530  0.00  0.00    -0.205 NA
ATOM      7  H13 VX6 d   1     -51.657  46.990  -4.664  0.00  0.00     0.095 H 
ENDROOT
BRANCH   5   8
ATOM      8  S23 VX6 d   1     -54.441  47.472  -9.425  0.00  0.00    -0.050 SA
BRANCH   8   9
ATOM      9  C24 VX6 d   1     -54.899  49.122  -9.761  0.00  0.00     0.008 A 
ATOM     10  C25 VX6 d   1     -54.021  49.998 -10.363  0.00  0.00    -0.064 A 
ATOM     11  C26 VX6 d   1     -54.383  51.310 -10.661  0.00  0.00    -0.056 A 
ATOM     12  H20 VX6 d   1     -53.022  49.657 -10.611  0.00  0.00     0.085 H 
ATOM     13  C27 VX6 d   1     -55.653  51.786 -10.368  0.00  0.00     0.034 A 
ATOM     14  H21 VX6 d   1     -53.661  51.969 -11.129  0.00  0.00     0.087 H 
ATOM     15  C28 VX6 d   1     -56.532  50.867  -9.792  0.00  0.00    -0.056 A 
ATOM     16  C29 VX6 d   1     -56.170  49.556  -9.500  0.00  0.00    -0.064 A 
ATOM     17  H22 VX6 d   1     -57.541  51.189  -9.562  0.00  0.00     0.087 H 
ATOM     18  H23 VX6 d   1     -56.895  48.878  -9.065  0.00  0.00     0.085 H 
BRANCH  13  19
ATOM     19  N30 VX6 d   1     -56.064  53.067 -10.649  0.00  0.00    -0.327 N 
ATOM     20  C31 VX6 d   1     -55.222  54.066 -10.932  0.00  0.00     0.226 C 
ATOM     21  O32 VX6 d   1     -54.019  53.932 -11.003  0.00  0.00    -0.273 OA
ATOM     22  H24 VX6 d   1     -57.045  53.262 -10.641  0.00  0.00     0.169 HD
BRANCH  20  23
ATOM     23  C33 VX6 d   1     -55.801  55.402 -11.348  0.00  0.00     0.024 A 
ATOM     24  C34 VX6 d   1     -56.827  56.093 -10.440  0.00  0.00    -0.053 A 
ATOM     25  C35 VX6 d   1     -55.370  56.574 -10.488  0.00  0.00    -0.053 A 
ATOM     26  H26 VX6 d   1     -57.209  55.578  -9.546  0.00  0.00     0.034 H 
ATOM     27  H27 VX6 d   1     -57.626  56.708 -10.878  0.00  0.00     0.034 H 
ATOM     28  H28 VX6 d   1     -55.126  57.538 -10.957  0.00  0.00     0.034 H 
ATOM     29  H29 VX6 d   1     -54.708  56.408  -9.625  0.00  0.00     0.034 H 
ATOM     30  H25 VX6 d   1     -55.881  55.478 -12.443  0.00  0.00     0.054 H 
ENDBRANCH  20  23
ENDBRANCH  13  19
ENDBRANCH   8   9
ENDBRANCH   5   8
BRANCH   3  31
ATOM     31  N14 VX6 d   1     -52.408  49.395  -5.328  0.00  0.00    -0.326 N 
ATOM     32  H14 VX6 d   1     -51.917  49.280  -4.430  0.00  0.00     0.169 HD
BRANCH  31  33
ATOM     33  C15 VX6 d   1     -52.752  50.636  -5.691  0.00  0.00     0.125 A 
ATOM     34  C17 VX6 d   1     -53.474  51.073  -6.733  0.00  0.00    -0.014 A 
ATOM     35  C18 VX6 d   1     -53.496  52.396  -6.573  0.00  0.00     0.054 A 
ATOM     36  H15 VX6 d   1     -53.935  50.484  -7.525  0.00  0.00     0.092 H 
ATOM     37  N19 VX6 d   1     -52.822  52.700  -5.471  0.00  0.00    -0.178 NA
ATOM     38  N20 VX6 d   1     -52.381  51.671  -4.948  0.00  0.00    -0.262 N 
ATOM     39  H16 VX6 d   1     -51.822  51.625  -4.084  0.00  0.00     0.191 HD
BRANCH  35  40
ATOM     40  C21 VX6 d   1     -54.168  53.452  -7.455  0.00  0.00    -0.034 C 
ATOM     41  H17 VX6 d   1     -53.989  54.451  -7.032  0.00  0.00     0.035 H 
ATOM     42  H18 VX6 d   1     -55.250  53.260  -7.497  0.00  0.00     0.035 H 
ATOM     43  H19 VX6 d   1     -53.748  53.403  -8.470  0.00  0.00     0.035 H 
ENDBRANCH  35  40
ENDBRANCH  31  33
ENDBRANCH   3  31
BRANCH   1  44
ATOM     44  N4  VX6 d   1     -51.976  44.677  -5.884  0.00  0.00    -0.362 N 
ATOM     45  C3  VX6 d   1     -51.633  43.597  -6.823  0.00  0.00     0.019 C 
ATOM     46  C2  VX6 d   1     -51.758  42.211  -6.194  0.00  0.00     0.098 C 
ATOM     47  H4  VX6 d   1     -52.310  43.654  -7.688  0.00  0.00     0.066 H 
ATOM     48  H5  VX6 d   1     -50.595  43.739  -7.160  0.00  0.00     0.066 H 
ATOM     49  N1  VX6 d   1     -51.224  42.136  -4.828  0.00  0.00    -0.072 N 
ATOM     50  H2  VX6 d   1     -52.823  41.936  -6.167  0.00  0.00     0.078 H 
ATOM     51  H3  VX6 d   1     -51.210  41.493  -6.822  0.00  0.00     0.078 H 
ATOM     52  C6  VX6 d   1     -51.947  43.106  -3.983  0.00  0.00     0.098 C 
ATOM     53  H1  VX6 d   1     -50.240  42.355  -4.833  0.00  0.00     0.279 HD
ATOM     54  C5  VX6 d   1     -51.615  44.517  -4.457  0.00  0.00     0.019 C 
ATOM     55  H8  VX6 d   1     -51.637  42.986  -2.935  0.00  0.00     0.078 H 
ATOM     56  H9  VX6 d   1     -53.030  42.934  -4.067  0.00  0.00     0.078 H 
ATOM     57  H6  VX6 d   1     -52.180  45.244  -3.856  0.00  0.00     0.066 H 
ATOM     58  H7  VX6 d   1     -50.537  44.697  -4.333  0.00  0.00     0.066 H 
BRANCH  49  59
ATOM     59  C7  VX6 d   1     -51.429  40.762  -4.295  0.00  0.00     0.066 C 
ATOM     60  H10 VX6 d   1     -50.890  40.040  -4.926  0.00  0.00     0.068 H 
ATOM     61  H11 VX6 d   1     -52.503  40.523  -4.300  0.00  0.00     0.068 H 
ATOM     62  H12 VX6 d   1     -51.046  40.707  -3.265  0.00  0.00     0.068 H 
ENDBRANCH  49  59
ENDBRANCH   1  44
TORSDOF 9
