REMARK  12 active torsions:
REMARK  status: ('A' for Active; 'I' for Inactive)
REMARK    1  A    between atoms: N_1  and  CA_2 
REMARK    2  A    between atoms: CA_2  and  C_3 
REMARK    3  A    between atoms: CA_2  and  CB_6 
REMARK    4  A    between atoms: CB_6  and  CG_7 
REMARK    5  A    between atoms: CG_7  and  CD_8 
REMARK    6  A    between atoms: CD_8  and  NE_9 
REMARK    7  A    between atoms: CD_8  and  C5'_10 
REMARK    8  A    between atoms: C5'_10  and  C4'_11 
REMARK    9  A    between atoms: C3'_13  and  O3'_14 
REMARK   10  A    between atoms: C2'_15  and  O2'_16 
REMARK   11  A    between atoms: C1'_17  and  N9_18 
REMARK   12  A    between atoms: C6_22  and  N6_23 
ROOT
ATOM      1  C4' SFG d   1      45.638  62.342  -1.765  0.00  0.00     0.070 C 
ATOM      2  O4' SFG d   1      46.381  63.544  -2.012  0.00  0.00    -0.355 OA
ATOM      3  C3' SFG d   1      46.637  61.335  -1.205  0.00  0.00     0.089 C 
ATOM      4  C2' SFG d   1      47.982  62.013  -1.327  0.00  0.00     0.105 C 
ATOM      5  C1' SFG d   1      47.718  63.144  -2.309  0.00  0.00     0.139 C 
ATOM      6  H   SFG d   1      45.187  61.939  -2.672  0.00  0.00     0.087 H 
ATOM      7  H   SFG d   1      46.426  61.041  -0.177  0.00  0.00     0.091 H 
ATOM      8  H   SFG d   1      48.364  62.350  -0.363  0.00  0.00     0.093 H 
ATOM      9  H   SFG d   1      47.810  62.845  -3.353  0.00  0.00     0.122 H 
ENDROOT
BRANCH   1  10
ATOM     10  C5' SFG d   1      44.456  62.615  -0.840  0.00  0.00    -0.012 C 
ATOM     11  H   SFG d   1      44.839  62.741   0.173  0.00  0.00     0.040 H 
ATOM     12  H   SFG d   1      43.943  63.508  -1.198  0.00  0.00     0.040 H 
BRANCH  10  13
ATOM     13  CD  SFG d   1      43.455  61.462  -0.831  0.00  0.00     0.102 C 
ATOM     14  H   SFG d   1      43.994  60.517  -0.770  0.00  0.00     0.084 H 
BRANCH  13  15
ATOM     15  CG  SFG d   1      42.631  61.482  -2.119  0.00  0.00    -0.036 C 
ATOM     16  H   SFG d   1      42.125  62.446  -2.170  0.00  0.00     0.036 H 
ATOM     17  H   SFG d   1      43.315  61.307  -2.949  0.00  0.00     0.036 H 
BRANCH  15  18
ATOM     18  CB  SFG d   1      41.557  60.395  -2.171  0.00  0.00    -0.027 C 
ATOM     19  H   SFG d   1      41.972  59.483  -1.743  0.00  0.00     0.036 H 
ATOM     20  H   SFG d   1      40.688  60.745  -1.614  0.00  0.00     0.036 H 
BRANCH  18  21
ATOM     21  CA  SFG d   1      41.120  60.097  -3.606  0.00  0.00     0.182 C 
ATOM     22  H   SFG d   1      41.981  59.647  -4.100  0.00  0.00     0.101 H 
BRANCH  21  23
ATOM     23  N   SFG d   1      40.711  61.349  -4.311  0.00  0.00    -0.065 N 
ATOM     24  H   SFG d   1      40.425  61.123  -5.264  0.00  0.00     0.275 HD
ATOM     25  H   SFG d   1      39.931  61.779  -3.813  0.00  0.00     0.275 HD
ATOM     26  H   SFG d   1      41.499  61.997  -4.336  0.00  0.00     0.275 HD
ENDBRANCH  21  23
BRANCH  21  27
ATOM     27  C   SFG d   1      39.960  59.141  -3.652  0.00  0.00     0.204 C 
ATOM     28  O   SFG d   1      39.188  59.147  -4.606  0.00  0.00    -0.646 OA
ATOM     29  OXT SFG d   1      39.750  58.314  -2.767  0.00  0.00    -0.646 OA
ENDBRANCH  21  27
ENDBRANCH  18  21
ENDBRANCH  15  18
ENDBRANCH  13  15
BRANCH  13  30
ATOM     30  NE  SFG d   1      42.575  61.587   0.325  0.00  0.00    -0.075 N 
ATOM     31  H   SFG d   1      43.133  61.573   1.179  0.00  0.00     0.274 HD
ATOM     32  H   SFG d   1      42.062  62.467   0.267  0.00  0.00     0.274 HD
ATOM     33  H   SFG d   1      41.916  60.808   0.335  0.00  0.00     0.274 HD
ENDBRANCH  13  30
ENDBRANCH  10  13
ENDBRANCH   1  10
BRANCH   3  34
ATOM     34  O3' SFG d   1      46.602  60.175  -2.027  0.00  0.00    -0.390 OA
ATOM     35  H   SFG d   1      46.840  60.414  -2.926  0.00  0.00     0.210 HD
ENDBRANCH   3  34
BRANCH   5  36
ATOM     36  N9  SFG d   1      48.734  64.229  -2.204  0.00  0.00    -0.294 N 
ATOM     37  C8  SFG d   1      49.013  64.980  -1.132  0.00  0.00     0.071 A 
ATOM     38  N7  SFG d   1      50.016  65.840  -1.435  0.00  0.00    -0.236 NA
ATOM     39  H   SFG d   1      48.512  64.911  -0.166  0.00  0.00     0.144 H 
ATOM     40  C5  SFG d   1      50.362  65.624  -2.716  0.00  0.00     0.149 A 
ATOM     41  C6  SFG d   1      51.312  66.198  -3.564  0.00  0.00     0.155 A 
ATOM     42  C4  SFG d   1      49.551  64.604  -3.190  0.00  0.00     0.167 A 
ATOM     43  N1  SFG d   1      51.426  65.743  -4.837  0.00  0.00    -0.222 NA
ATOM     44  C2  SFG d   1      50.625  64.746  -5.264  0.00  0.00     0.091 A 
ATOM     45  N3  SFG d   1      49.697  64.180  -4.465  0.00  0.00    -0.222 NA
ATOM     46  H   SFG d   1      50.731  64.386  -6.287  0.00  0.00     0.146 H 
BRANCH  41  47
ATOM     47  N6  SFG d   1      52.118  67.200  -3.127  0.00  0.00    -0.382 N 
ATOM     48  H   SFG d   1      52.033  67.542  -2.170  0.00  0.00     0.157 HD
ATOM     49  H   SFG d   1      52.808  67.611  -3.756  0.00  0.00     0.157 HD
ENDBRANCH  41  47
ENDBRANCH   5  36
BRANCH   4  50
ATOM     50  O2' SFG d   1      48.975  61.129  -1.845  0.00  0.00    -0.388 OA
ATOM     51  H   SFG d   1      48.709  60.826  -2.716  0.00  0.00     0.210 HD
ENDBRANCH   4  50
TORSDOF 12
