REMARK  3 active torsions:
REMARK  status: ('A' for Active; 'I' for Inactive)
REMARK    1  A    between atoms: C06_6  and  C07_7 
REMARK    2  A    between atoms: C14_14  and  N15_15 
REMARK    3  A    between atoms: C21_21  and  C22_22 
ROOT
ATOM      1  N01 Q9G d   1       3.079  12.670  19.513  0.00  0.00    -0.225 NA
ATOM      2  C02 Q9G d   1       4.069  13.586  19.844  0.00  0.00     0.184 A 
ATOM      3  C03 Q9G d   1       5.428  13.350  20.096  0.00  0.00     0.070 A 
ATOM      4  C04 Q9G d   1       5.860  11.958  19.989  0.00  0.00    -0.006 A 
ATOM      5  C05 Q9G d   1       4.957  11.001  19.672  0.00  0.00     0.005 A 
ATOM      6  C06 Q9G d   1       3.537  11.382  19.422  0.00  0.00     0.081 A 
ATOM      7  C08 Q9G d   1       7.296  11.593  20.244  0.00  0.00    -0.071 C 
ATOM      8  C09 Q9G d   1       7.443  10.179  20.678  0.00  0.00    -0.082 C 
ATOM      9  C10 Q9G d   1       6.823   9.292  19.668  0.00  0.00    -0.082 C 
ATOM     10  C11 Q9G d   1       5.361   9.557  19.555  0.00  0.00    -0.070 C 
ATOM     11  N12 Q9G d   1       3.873  14.949  20.005  0.00  0.00    -0.152 NA
ATOM     12  N13 Q9G d   1       4.973  15.622  20.322  0.00  0.00    -0.260 N 
ATOM     13  C14 Q9G d   1       5.939  14.660  20.389  0.00  0.00     0.130 A 
ATOM     14  H   Q9G d   1       8.131  12.284  20.125  0.00  0.00     0.084 H 
ATOM     15  H   Q9G d   1       7.930   9.848  21.595  0.00  0.00     0.083 H 
ATOM     16  H   Q9G d   1       7.363   8.546  19.085  0.00  0.00     0.083 H 
ATOM     17  H   Q9G d   1       4.635   8.759  19.398  0.00  0.00     0.084 H 
ATOM     18  H   Q9G d   1       5.073  16.625  20.479  0.00  0.00     0.191 HD
ENDROOT
BRANCH   6  19
ATOM     19  C07 Q9G d   1       2.561  10.311  19.077  0.00  0.00     0.002 A 
ATOM     20  C16 Q9G d   1       1.907   9.630  20.104  0.00  0.00    -0.033 A 
ATOM     21  C17 Q9G d   1       0.996   8.639  19.828  0.00  0.00     0.117 A 
ATOM     22  H   Q9G d   1       2.122   9.888  21.141  0.00  0.00     0.089 H 
ATOM     23  F18 Q9G d   1       0.412   8.004  20.855  0.00  0.00    -0.206 F 
ATOM     24  C19 Q9G d   1       0.693   8.303  18.522  0.00  0.00    -0.045 A 
ATOM     25  C20 Q9G d   1       1.318   8.975  17.482  0.00  0.00    -0.073 A 
ATOM     26  H   Q9G d   1      -0.031   7.516  18.311  0.00  0.00     0.088 H 
ATOM     27  C21 Q9G d   1       2.260   9.985  17.744  0.00  0.00    -0.049 A 
ATOM     28  H   Q9G d   1       1.076   8.717  16.451  0.00  0.00     0.084 H 
BRANCH  27  29
ATOM     29  C22 Q9G d   1       2.940  10.713  16.630  0.00  0.00    -0.050 C 
ATOM     30  H   Q9G d   1       3.495  10.002  16.018  0.00  0.00     0.033 H 
ATOM     31  H   Q9G d   1       2.192  11.216  16.017  0.00  0.00     0.033 H 
ATOM     32  H   Q9G d   1       3.627  11.450  17.045  0.00  0.00     0.033 H 
ENDBRANCH  27  29
ENDBRANCH   6  19
BRANCH  13  33
ATOM     33  N15 Q9G d   1       7.290  14.993  20.722  0.00  0.00    -0.384 N 
ATOM     34  H   Q9G d   1       7.999  14.261  20.769  0.00  0.00     0.157 HD
ATOM     35  H   Q9G d   1       7.544  15.962  20.913  0.00  0.00     0.157 HD
ENDBRANCH  13  33
TORSDOF 3
