REMARK  8 active torsions:
REMARK  status: ('A' for Active; 'I' for Inactive)
REMARK    1  A    between atoms: N1_1  and  C2_2 
REMARK    2  A    between atoms: N1_1  and  C8_8 
REMARK    3  A    between atoms: N1_1  and  C9_9 
REMARK    4  A    between atoms: N1_1  and  C10_10 
REMARK    5  A    between atoms: C2_2  and  C3_3 
REMARK    6  A    between atoms: C3_3  and  O4_4 
REMARK    7  A    between atoms: O4_4  and  C5_5 
REMARK    8  A    between atoms: C5_5  and  C6_7 
ROOT
ATOM      1  N1  ACH d   1     -14.119 -11.215  36.271  0.00  0.00    -0.077 N 
ENDROOT
BRANCH   1   2
ATOM      2  C2  ACH d   1     -12.731 -11.943  35.963  0.00  0.00     0.104 C 
ATOM      3  H   ACH d   1     -12.302 -11.531  35.050  0.00  0.00     0.079 H 
ATOM      4  H   ACH d   1     -12.904 -13.012  35.839  0.00  0.00     0.079 H 
BRANCH   2   5
ATOM      5  C3  ACH d   1     -11.737 -11.713  37.152  0.00  0.00     0.051 C 
ATOM      6  H   ACH d   1     -10.985 -11.064  36.704  0.00  0.00     0.077 H 
ATOM      7  H   ACH d   1     -11.556 -12.729  37.504  0.00  0.00     0.077 H 
BRANCH   5   8
ATOM      8  O4  ACH d   1     -12.106 -10.907  38.566  0.00  0.00    -0.320 OA
BRANCH   8   9
ATOM      9  C5  ACH d   1     -11.548 -10.596  39.819  0.00  0.00     0.254 C 
ATOM     10  O7  ACH d   1     -10.425 -10.079  39.643  0.00  0.00    -0.266 OA
BRANCH   9  11
ATOM     11  C6  ACH d   1     -12.304 -10.838  41.174  0.00  0.00     0.004 C 
ATOM     12  H   ACH d   1     -11.705 -11.488  41.812  0.00  0.00     0.041 H 
ATOM     13  H   ACH d   1     -12.465  -9.883  41.674  0.00  0.00     0.041 H 
ATOM     14  H   ACH d   1     -13.265 -11.311  40.973  0.00  0.00     0.041 H 
ENDBRANCH   9  11
ENDBRANCH   8   9
ENDBRANCH   5   8
ENDBRANCH   2   5
ENDBRANCH   1   2
BRANCH   1  15
ATOM     15  C8  ACH d   1     -14.940 -11.387  37.597  0.00  0.00     0.067 C 
ATOM     16  H   ACH d   1     -14.398 -10.924  38.421  0.00  0.00     0.068 H 
ATOM     17  H   ACH d   1     -15.912 -10.908  37.486  0.00  0.00     0.068 H 
ATOM     18  H   ACH d   1     -15.078 -12.449  37.802  0.00  0.00     0.068 H 
ENDBRANCH   1  15
BRANCH   1  19
ATOM     19  C9  ACH d   1     -13.899  -9.894  35.938  0.00  0.00     0.067 C 
ATOM     20  H   ACH d   1     -14.856  -9.391  35.802  0.00  0.00     0.068 H 
ATOM     21  H   ACH d   1     -13.341  -9.407  36.738  0.00  0.00     0.068 H 
ATOM     22  H   ACH d   1     -13.326  -9.845  35.012  0.00  0.00     0.068 H 
ENDBRANCH   1  19
BRANCH   1  23
ATOM     23  C10 ACH d   1     -15.352 -11.406  35.550  0.00  0.00     0.067 C 
ATOM     24  H   ACH d   1     -15.765 -12.385  35.792  0.00  0.00     0.068 H 
ATOM     25  H   ACH d   1     -16.062 -10.630  35.836  0.00  0.00     0.068 H 
ATOM     26  H   ACH d   1     -15.158 -11.347  34.479  0.00  0.00     0.068 H 
ENDBRANCH   1  23
TORSDOF 8
