REMARK  4 active torsions:
REMARK  status: ('A' for Active; 'I' for Inactive)
REMARK    1  A    between atoms: P_13  and  C1_1 
REMARK    2  A    between atoms: O2_12  and  C7_7 
REMARK    3  A    between atoms: N_10  and  C14_18 
REMARK    4  A    between atoms: O2_12  and  P_13 
ROOT
ATOM      1  C7  XOP d   1     -14.472  -2.107   1.166  0.00  0.00     0.049 C 
ATOM      2  C8  XOP d   1     -16.011  -2.016   1.093  0.00  0.00    -0.011 C 
ATOM      3  C9  XOP d   1     -16.567  -2.113  -0.318  0.00  0.00     0.137 C 
ATOM      4  N   XOP d   1     -16.061  -3.415  -0.879  0.00  0.00     0.093 N 
ATOM      5  C10 XOP d   1     -15.950  -1.125  -1.327  0.00  0.00    -0.034 C 
ATOM      6  C11 XOP d   1     -14.623  -1.781  -1.866  0.00  0.00    -0.034 C 
ATOM      7  C12 XOP d   1     -14.631  -3.187  -1.237  0.00  0.00     0.137 C 
ATOM      8  C13 XOP d   1     -13.864  -3.099   0.112  0.00  0.00    -0.011 C 
ATOM      9  H   XOP d   1     -14.317  -2.391   2.207  0.00  0.00     0.084 H 
ATOM     10  H   XOP d   1     -16.297  -1.041   1.488  0.00  0.00     0.040 H 
ATOM     11  H   XOP d   1     -16.413  -2.857   1.658  0.00  0.00     0.040 H 
ATOM     12  H   XOP d   1     -17.642  -1.957  -0.222  0.00  0.00     0.088 H 
ATOM     13  H   XOP d   1     -15.739  -0.168  -0.849  0.00  0.00     0.036 H 
ATOM     14  H   XOP d   1     -16.642  -0.929  -2.146  0.00  0.00     0.036 H 
ATOM     15  H   XOP d   1     -13.736  -1.209  -1.595  0.00  0.00     0.036 H 
ATOM     16  H   XOP d   1     -14.586  -1.812  -2.955  0.00  0.00     0.036 H 
ATOM     17  H   XOP d   1     -14.202  -3.948  -1.889  0.00  0.00     0.088 H 
ATOM     18  H   XOP d   1     -13.904  -4.092   0.559  0.00  0.00     0.040 H 
ATOM     19  H   XOP d   1     -12.864  -2.733  -0.121  0.00  0.00     0.040 H 
ENDROOT
BRANCH   1  20
ATOM     20  O2  XOP d   1     -13.785  -0.853   0.760  0.00  0.00    -0.328 OA
BRANCH  20  21
ATOM     21  P   XOP d   1     -13.030  -0.096   1.869  0.00  0.00     0.242 P 
ATOM     22  O1  XOP d   1     -11.755  -0.704   2.202  0.00  0.00    -0.173 OA
BRANCH  21  23
ATOM     23  C1  XOP d   1     -12.906   1.527   1.292  0.00  0.00     0.025 A 
ATOM     24  C2  XOP d   1     -11.857   2.317   1.660  0.00  0.00    -0.068 A 
ATOM     25  C3  XOP d   1     -11.667   3.628   1.263  0.00  0.00    -0.082 A 
ATOM     26  H   XOP d   1     -11.108   1.880   2.320  0.00  0.00     0.085 H 
ATOM     27  C4  XOP d   1     -12.574   4.243   0.453  0.00  0.00    -0.083 A 
ATOM     28  H   XOP d   1     -10.786   4.173   1.600  0.00  0.00     0.083 H 
ATOM     29  C5  XOP d   1     -13.625   3.495   0.022  0.00  0.00    -0.082 A 
ATOM     30  H   XOP d   1     -12.462   5.288   0.163  0.00  0.00     0.083 H 
ATOM     31  C6  XOP d   1     -13.811   2.162   0.444  0.00  0.00    -0.068 A 
ATOM     32  H   XOP d   1     -14.343   3.938  -0.668  0.00  0.00     0.083 H 
ATOM     33  H   XOP d   1     -14.687   1.614   0.097  0.00  0.00     0.085 H 
ENDBRANCH  21  23
ENDBRANCH  20  21
ENDBRANCH   1  20
BRANCH   4  34
ATOM     34  C14 XOP d   1     -16.763  -3.947  -2.126  0.00  0.00     0.096 C 
ATOM     35  H   XOP d   1     -17.818  -4.110  -1.906  0.00  0.00     0.071 H 
ATOM     36  H   XOP d   1     -16.667  -3.221  -2.933  0.00  0.00     0.071 H 
ATOM     37  H   XOP d   1     -16.303  -4.888  -2.426  0.00  0.00     0.071 H 
ENDBRANCH   4  34
TORSDOF 4
