REMARK  4 active torsions:
REMARK  status: ('A' for Active; 'I' for Inactive)
REMARK    1  A    between atoms: CAQ_3  and  NAA_4 
REMARK    2  A    between atoms: CAR_7  and  CAP_8 
REMARK    3  A    between atoms: CAP_8  and  NAZ_9 
REMARK    4  A    between atoms: CAS_15  and  SBA_16 
ROOT
ATOM      1  NAZ VH1 d   1      47.490  -9.962  24.313  0.00  0.00    -0.276 N 
ATOM      2  CAU VH1 d   1      48.410  -9.827  23.298  0.00  0.00     0.262 A 
ATOM      3  OAC VH1 d   1      48.157  -9.013  22.429  0.00  0.00    -0.267 OA
ATOM      4  CAX VH1 d   1      49.574 -10.597  23.292  0.00  0.00     0.046 A 
ATOM      5  CAY VH1 d   1      49.759 -11.529  24.349  0.00  0.00     0.006 A 
ATOM      6  CAO VH1 d   1      50.505 -10.467  22.275  0.00  0.00    -0.043 A 
ATOM      7  CAS VH1 d   1      51.640 -11.256  22.308  0.00  0.00     0.082 A 
ATOM      8  CAN VH1 d   1      51.843 -12.177  23.342  0.00  0.00    -0.049 A 
ATOM      9  CAV VH1 d   1      50.909 -12.340  24.374  0.00  0.00    -0.022 A 
ATOM     10  CAL VH1 d   1      51.120 -13.250  25.426  0.00  0.00    -0.072 A 
ATOM     11  CAG VH1 d   1      50.186 -13.396  26.460  0.00  0.00    -0.081 A 
ATOM     12  CAM VH1 d   1      49.023 -12.595  26.420  0.00  0.00    -0.067 A 
ATOM     13  CAW VH1 d   1      48.809 -11.669  25.368  0.00  0.00     0.044 A 
ATOM     14  CAT VH1 d   1      47.653 -10.887  25.330  0.00  0.00     0.261 A 
ATOM     15  OAB VH1 d   1      46.796 -10.934  26.195  0.00  0.00    -0.267 OA
ATOM     16  H9  VH1 d   1      50.347  -9.760  21.468  0.00  0.00     0.087 H 
ATOM     17  H10 VH1 d   1      52.745 -12.779  23.345  0.00  0.00     0.087 H 
ATOM     18  H11 VH1 d   1      52.023 -13.850  25.437  0.00  0.00     0.084 H 
ATOM     19  H12 VH1 d   1      50.351 -14.102  27.266  0.00  0.00     0.083 H 
ATOM     20  H13 VH1 d   1      48.283 -12.690  27.206  0.00  0.00     0.085 H 
ENDROOT
BRANCH   1  21
ATOM     21  CAP VH1 d   1      46.263  -9.156  24.281  0.00  0.00     0.030 C 
ATOM     22  H7  VH1 d   1      45.971  -9.026  23.229  0.00  0.00     0.072 H 
ATOM     23  H8  VH1 d   1      45.478  -9.713  24.813  0.00  0.00     0.072 H 
BRANCH  21  24
ATOM     24  CAR VH1 d   1      46.368  -7.776  24.912  0.00  0.00    -0.040 A 
ATOM     25  CAJ VH1 d   1      46.083  -7.562  26.251  0.00  0.00    -0.073 A 
ATOM     26  CAH VH1 d   1      46.175  -6.267  26.783  0.00  0.00    -0.057 A 
ATOM     27  H1  VH1 d   1      45.790  -8.391  26.885  0.00  0.00     0.084 H 
ATOM     28  CAQ VH1 d   1      46.519  -5.194  25.959  0.00  0.00     0.025 A 
ATOM     29  H2  VH1 d   1      45.979  -6.099  27.836  0.00  0.00     0.086 H 
ATOM     30  CAI VH1 d   1      46.792  -5.412  24.605  0.00  0.00    -0.057 A 
ATOM     31  CAK VH1 d   1      46.726  -6.707  24.082  0.00  0.00    -0.073 A 
ATOM     32  H5  VH1 d   1      47.054  -4.579  23.962  0.00  0.00     0.086 H 
ATOM     33  H6  VH1 d   1      46.952  -6.883  23.036  0.00  0.00     0.084 H 
BRANCH  28  34
ATOM     34  NAA VH1 d   1      46.591  -3.940  26.474  0.00  0.00    -0.399 N 
ATOM     35  H3  VH1 d   1      46.845  -3.148  25.867  0.00  0.00     0.156 HD
ATOM     36  H4  VH1 d   1      46.392  -3.781  27.472  0.00  0.00     0.156 HD
ENDBRANCH  28  34
ENDBRANCH  21  24
ENDBRANCH   1  21
BRANCH   7  37
ATOM     37  SBA VH1 d   1      52.845 -11.172  21.020  0.00  0.00     0.137 S 
ATOM     38  OAF VH1 d   1      52.613 -12.271  20.183  0.00  0.00    -0.591 OA
ATOM     39  OAE VH1 d   1      54.156 -11.415  21.663  0.00  0.00    -0.591 OA
ATOM     40  OAD VH1 d   1      52.809  -9.895  20.252  0.00  0.00    -0.591 OA
ENDBRANCH   7  37
TORSDOF 4
