REMARK WARNING: 32 MAX_TORS EXCEEDED!!!
REMARK  37 active torsions:
REMARK  status: ('A' for Active; 'I' for Inactive)
REMARK    1  A    between atoms: N_1  and  CA_2 
REMARK    2  A    between atoms: CA_2  and  C_3 
REMARK    3  A    between atoms: CA_2  and  CB_5 
REMARK       I    between atoms: C_3  and  N_13 
REMARK    4  A    between atoms: CB_5  and  CG_6 
REMARK    5  A    between atoms: CZ_11  and  OH_12 
REMARK    6  A    between atoms: N_13  and  CA_14 
REMARK    7  A    between atoms: CA_14  and  C_15 
REMARK    8  A    between atoms: CA_14  and  CB_17 
REMARK       I    between atoms: C_15  and  N_22 
REMARK    9  A    between atoms: CB_17  and  CG_18 
REMARK   10  A    between atoms: CG_18  and  CD_19 
REMARK       I    between atoms: CD_19  and  NE2_21 
REMARK   11  A    between atoms: N_22  and  CA_23 
REMARK   12  A    between atoms: CA_23  and  C_24 
REMARK   13  A    between atoms: CA_23  and  CB_26 
REMARK       I    between atoms: C_24  and  N_27 
REMARK   14  A    between atoms: N_27  and  CA_28 
REMARK   15  A    between atoms: CA_28  and  C_29 
REMARK   16  A    between atoms: CA_28  and  CB_31 
REMARK       I    between atoms: C_29  and  N_38 
REMARK   17  A    between atoms: CB_31  and  CG_32 
REMARK   18  A    between atoms: CG_32  and  CD_33 
REMARK   19  A    between atoms: CD_33  and  NE_34 
REMARK       I    between atoms: NE_34  and  CZ_35 
REMARK       I    between atoms: CZ_35  and  NH1_36 
REMARK   20  A    between atoms: CA_39  and  C_40 
REMARK       I    between atoms: C_40  and  N_45 
REMARK   21  A    between atoms: N_45  and  CA_46 
REMARK   22  A    between atoms: CA_46  and  C_47 
REMARK   23  A    between atoms: CA_46  and  CB_49 
REMARK       I    between atoms: C_47  and  N_53 
REMARK   24  A    between atoms: CB_49  and  CG_50 
REMARK       I    between atoms: CG_50  and  ND2_52 
REMARK   25  A    between atoms: N_53  and  CA_54 
REMARK   26  A    between atoms: CA_54  and  C_55 
REMARK   27  A    between atoms: CA_54  and  CB_57 
REMARK       I    between atoms: C_55  and  N_58 
REMARK   28  A    between atoms: N_58  and  CA_59 
REMARK   29  A    between atoms: CA_59  and  C_60 
REMARK   30  A    between atoms: CA_59  and  CB_62 
REMARK       I    between atoms: C_60  and  N_67 
REMARK   31  A    between atoms: CB_62  and  CG_63 
REMARK   32  A    between atoms: CG_63  and  CD_64 
REMARK   33  A    between atoms: N_67  and  CA_68 
REMARK   34  A    between atoms: CA_68  and  C_69 
REMARK   35  A    between atoms: CA_68  and  CB_71 
REMARK   36  A    between atoms: CB_71  and  OG1_72 
REMARK   37  A    between atoms: CB_71  and  CG2_73 
ROOT
ATOM      1  CA  ARG d   1     -22.912   5.821  -2.560  0.00  0.00     0.089 C 
ATOM      2  H   ARG d   1     -22.177   5.314  -1.935  0.00  0.00     0.087 H 
ENDROOT
BRANCH   1   3
ATOM      3  N   ARG d   1     -22.135   6.962  -3.116  0.00  0.00    -0.346 N 
ATOM      4  C   LEU d   1     -21.751   7.185  -4.381  0.00  0.00     0.240 C 
ATOM      5  O   LEU d   1     -21.866   6.354  -5.277  0.00  0.00    -0.271 OA
ATOM      6  H   ARG d   1     -21.856   7.673  -2.441  0.00  0.00     0.163 HD
BRANCH   4   7
ATOM      7  CA  LEU d   1     -21.003   8.544  -4.596  0.00  0.00     0.086 C 
ATOM      8  H   LEU d   1     -20.204   8.096  -5.187  0.00  0.00     0.086 H 
BRANCH   7   9
ATOM      9  N   LEU d   1     -21.230   9.640  -5.607  0.00  0.00    -0.346 N 
ATOM     10  C   GLN d   1     -21.870  10.793  -5.329  0.00  0.00     0.241 C 
ATOM     11  O   GLN d   1     -22.434  10.977  -4.248  0.00  0.00    -0.271 OA
ATOM     12  H   LEU d   1     -20.879   9.501  -6.555  0.00  0.00     0.163 HD
BRANCH  10  13
ATOM     13  CA  GLN d   1     -21.967  11.921  -6.407  0.00  0.00     0.090 C 
ATOM     14  H   GLN d   1     -22.951  12.347  -6.213  0.00  0.00     0.087 H 
BRANCH  13  15
ATOM     15  N   GLN d   1     -20.949  12.961  -6.273  0.00  0.00    -0.346 N 
ATOM     16  C   TYR d   1     -20.726  13.668  -5.166  0.00  0.00     0.249 C 
ATOM     17  O   TYR d   1     -21.342  13.506  -4.107  0.00  0.00    -0.271 OA
ATOM     18  H   GLN d   1     -20.367  13.160  -7.086  0.00  0.00     0.163 HD
BRANCH  16  19
ATOM     19  CA  TYR d   1     -19.616  14.710  -5.293  0.00  0.00     0.179 C 
ATOM     20  H   TYR d   1     -19.056  14.810  -4.363  0.00  0.00     0.099 H 
BRANCH  19  21
ATOM     21  N   TYR d   1     -18.746  14.255  -6.413  0.00  0.00    -0.066 N 
ATOM     22  H   TYR d   1     -18.346  13.345  -6.183  0.00  0.00     0.275 HD
ATOM     23  H   TYR d   1     -19.302  14.178  -7.264  0.00  0.00     0.275 HD
ATOM     24  H   TYR d   1     -17.996  14.931  -6.556  0.00  0.00     0.275 HD
ENDBRANCH  19  21
BRANCH  19  25
ATOM     25  CB  TYR d   1     -20.220  16.077  -5.634  0.00  0.00    -0.006 C 
ATOM     26  H   TYR d   1     -20.328  16.629  -4.700  0.00  0.00     0.043 H 
ATOM     27  H   TYR d   1     -21.166  15.898  -6.146  0.00  0.00     0.043 H 
BRANCH  25  28
ATOM     28  CG  TYR d   1     -19.353  16.909  -6.557  0.00  0.00    -0.056 A 
ATOM     29  CD1 TYR d   1     -18.255  17.614  -6.075  0.00  0.00    -0.074 A 
ATOM     30  CE1 TYR d   1     -17.443  18.342  -6.933  0.00  0.00    -0.051 A 
ATOM     31  H   TYR d   1     -18.029  17.594  -5.009  0.00  0.00     0.084 H 
ATOM     32  CZ  TYR d   1     -17.731  18.365  -8.282  0.00  0.00     0.065 A 
ATOM     33  H   TYR d   1     -16.585  18.891  -6.545  0.00  0.00     0.087 H 
ATOM     34  CE2 TYR d   1     -18.815  17.673  -8.774  0.00  0.00    -0.051 A 
ATOM     35  CD2 TYR d   1     -19.614  16.957  -7.919  0.00  0.00    -0.074 A 
ATOM     36  H   TYR d   1     -19.038  17.694  -9.841  0.00  0.00     0.087 H 
ATOM     37  H   TYR d   1     -20.471  16.415  -8.318  0.00  0.00     0.084 H 
BRANCH  32  38
ATOM     38  OH  TYR d   1     -16.918  19.079  -9.137  0.00  0.00    -0.361 OA
ATOM     39  H   TYR d   1     -16.216  19.498  -8.634  0.00  0.00     0.217 HD
ENDBRANCH  32  38
ENDBRANCH  25  28
ENDBRANCH  19  25
ENDBRANCH  16  19
ENDBRANCH  13  15
BRANCH  13  40
ATOM     40  CB  GLN d   1     -21.895  11.402  -7.847  0.00  0.00    -0.030 C 
ATOM     41  H   GLN d   1     -22.871  11.589  -8.295  0.00  0.00     0.037 H 
ATOM     42  H   GLN d   1     -21.603  10.354  -7.786  0.00  0.00     0.037 H 
BRANCH  40  43
ATOM     43  CG  GLN d   1     -20.831  12.114  -8.770  0.00  0.00     0.011 C 
ATOM     44  H   GLN d   1     -20.733  11.495  -9.662  0.00  0.00     0.047 H 
ATOM     45  H   GLN d   1     -19.928  12.226  -8.169  0.00  0.00     0.047 H 
BRANCH  43  46
ATOM     46  CD  GLN d   1     -21.206  13.525  -9.259  0.00  0.00     0.215 C 
ATOM     47  OE1 GLN d   1     -22.369  13.817  -9.539  0.00  0.00    -0.274 OA
ATOM     48  NE2 GLN d   1     -20.200  14.389  -9.395  0.00  0.00    -0.370 N 
ATOM     49  H   GLN d   1     -20.380  15.331  -9.742  0.00  0.00     0.159 HD
ATOM     50  H   GLN d   1     -19.250  14.108  -9.152  0.00  0.00     0.159 HD
ENDBRANCH  43  46
ENDBRANCH  40  43
ENDBRANCH  13  40
ENDBRANCH  10  13
ENDBRANCH   7   9
BRANCH   7  51
ATOM     51  CB  LEU d   1     -20.795   9.191  -3.205  0.00  0.00    -0.049 C 
ATOM     52  H   LEU d   1     -19.928   9.851  -3.239  0.00  0.00     0.030 H 
ATOM     53  H   LEU d   1     -21.681   9.766  -2.937  0.00  0.00     0.030 H 
ATOM     54  H   LEU d   1     -20.630   8.410  -2.463  0.00  0.00     0.030 H 
ENDBRANCH   7  51
ENDBRANCH   4   7
ENDBRANCH   1   3
BRANCH   1  55
ATOM     55  C   ARG d   1     -23.389   4.598  -3.384  0.00  0.00     0.243 C 
ATOM     56  O   ARG d   1     -22.774   4.230  -4.378  0.00  0.00    -0.271 OA
ATOM     57  N   PRO d   1     -24.459   3.904  -2.909  0.00  0.00    -0.337 N 
ATOM     58  CA  PRO d   1     -25.014   2.740  -3.622  0.00  0.00     0.091 C 
ATOM     59  CD  PRO d   1     -24.834   3.815  -1.484  0.00  0.00    -0.001 C 
ATOM     60  CB  PRO d   1     -25.344   1.741  -2.499  0.00  0.00    -0.036 C 
ATOM     61  H   PRO d   1     -24.355   2.295  -4.368  0.00  0.00     0.087 H 
ATOM     62  CG  PRO d   1     -24.749   2.344  -1.239  0.00  0.00    -0.048 C 
ATOM     63  H   PRO d   1     -24.930   0.754  -2.706  0.00  0.00     0.036 H 
ATOM     64  H   PRO d   1     -26.419   1.587  -2.401  0.00  0.00     0.036 H 
ATOM     65  H   PRO d   1     -23.728   2.009  -1.057  0.00  0.00     0.035 H 
ATOM     66  H   PRO d   1     -25.281   2.039  -0.338  0.00  0.00     0.035 H 
ATOM     67  H   PRO d   1     -25.816   4.236  -1.266  0.00  0.00     0.064 H 
ATOM     68  H   PRO d   1     -24.191   4.402  -0.828  0.00  0.00     0.064 H 
BRANCH  58  69
ATOM     69  C   PRO d   1     -26.297   3.221  -4.318  0.00  0.00     0.241 C 
ATOM     70  O   PRO d   1     -26.250   4.123  -5.163  0.00  0.00    -0.271 OA
ATOM     71  N   ASN d   1     -27.422   2.614  -3.919  0.00  0.00    -0.346 N 
ATOM     72  H   ASN d   1     -27.323   1.877  -3.221  0.00  0.00     0.163 HD
BRANCH  71  73
ATOM     73  CA  ASN d   1     -28.793   2.904  -4.388  0.00  0.00     0.097 C 
ATOM     74  H   ASN d   1     -29.310   3.298  -3.513  0.00  0.00     0.088 H 
BRANCH  73  75
ATOM     75  C   ASN d   1     -29.528   1.651  -4.874  0.00  0.00     0.241 C 
ATOM     76  O   ASN d   1     -29.224   0.532  -4.445  0.00  0.00    -0.271 OA
ATOM     77  N   ALA d   1     -30.509   1.848  -5.754  0.00  0.00    -0.346 N 
ATOM     78  H   ALA d   1     -30.728   2.800  -6.046  0.00  0.00     0.163 HD
BRANCH  77  79
ATOM     79  CA  ALA d   1     -31.280   0.740  -6.312  0.00  0.00     0.086 C 
ATOM     80  H   ALA d   1     -31.067  -0.181  -5.769  0.00  0.00     0.086 H 
BRANCH  79  81
ATOM     81  C   ALA d   1     -30.885   0.581  -7.780  0.00  0.00     0.240 C 
ATOM     82  O   ALA d   1     -31.538  -0.135  -8.546  0.00  0.00    -0.271 OA
ATOM     83  N   GLU d   1     -29.803   1.263  -8.151  0.00  0.00    -0.346 N 
ATOM     84  H   GLU d   1     -29.328   1.838  -7.456  0.00  0.00     0.163 HD
BRANCH  83  85
ATOM     85  CA  GLU d   1     -29.267   1.224  -9.508  0.00  0.00     0.090 C 
ATOM     86  H   GLU d   1     -29.873   0.584 -10.149  0.00  0.00     0.087 H 
BRANCH  85  87
ATOM     87  C   GLU d   1     -27.831   0.683  -9.418  0.00  0.00     0.241 C 
ATOM     88  O   GLU d   1     -27.461  -0.246 -10.138  0.00  0.00    -0.271 OA
ATOM     89  N   THR d   1     -27.045   1.273  -8.514  0.00  0.00    -0.343 N 
ATOM     90  H   THR d   1     -27.445   2.038  -7.971  0.00  0.00     0.163 HD
BRANCH  89  91
ATOM     91  CA  THR d   1     -25.645   0.905  -8.239  0.00  0.00     0.120 C 
ATOM     92  H   THR d   1     -25.209   1.879  -8.015  0.00  0.00     0.093 H 
BRANCH  91  93
ATOM     93  C   THR d   1     -24.805   0.334  -9.383  0.00  0.00     0.199 C 
ATOM     94  O   THR d   1     -23.971  -0.562  -9.102  0.00  0.00    -0.646 OA
ATOM     95  O1  THR d   1     -24.945   0.748 -10.565  0.00  0.00    -0.646 OA
ENDBRANCH  91  93
BRANCH  91  96
ATOM     96  CB  THR d   1     -25.563  -0.100  -7.076  0.00  0.00     0.061 C 
ATOM     97  H   THR d   1     -24.519  -0.375  -6.926  0.00  0.00     0.086 H 
BRANCH  96  98
ATOM     98  OG1 THR d   1     -26.335  -1.265  -7.394  0.00  0.00    -0.393 OA
ATOM     99  H   THR d   1     -25.987  -1.670  -8.192  0.00  0.00     0.210 HD
ENDBRANCH  96  98
BRANCH  96 100
ATOM    100  CG2 THR d   1     -26.096   0.518  -5.803  0.00  0.00    -0.050 C 
ATOM    101  H   THR d   1     -25.505   1.399  -5.553  0.00  0.00     0.031 H 
ATOM    102  H   THR d   1     -27.137   0.807  -5.949  0.00  0.00     0.031 H 
ATOM    103  H   THR d   1     -26.029  -0.208  -4.993  0.00  0.00     0.031 H 
ENDBRANCH  96 100
ENDBRANCH  91  96
ENDBRANCH  89  91
ENDBRANCH  85  87
BRANCH  85 104
ATOM    104  CB  GLU d   1     -29.275   2.635 -10.112  0.00  0.00    -0.029 C 
ATOM    105  H   GLU d   1     -28.335   3.108  -9.827  0.00  0.00     0.037 H 
ATOM    106  H   GLU d   1     -30.168   3.136  -9.737  0.00  0.00     0.037 H 
BRANCH 104 107
ATOM    107  CG  GLU d   1     -29.349   2.675 -11.635  0.00  0.00     0.018 C 
ATOM    108  H   GLU d   1     -30.317   3.092 -11.913  0.00  0.00     0.049 H 
ATOM    109  H   GLU d   1     -29.208   1.659 -12.005  0.00  0.00     0.049 H 
BRANCH 107 110
ATOM    110  CD  GLU d   1     -28.272   3.548 -12.248  0.00  0.00     0.172 C 
ATOM    111  OE1 GLU d   1     -27.353   3.958 -11.509  0.00  0.00    -0.648 OA
ATOM    112  OE2 GLU d   1     -28.335   3.823 -13.464  0.00  0.00    -0.648 OA
ENDBRANCH 107 110
ENDBRANCH 104 107
ENDBRANCH  85 104
ENDBRANCH  83  85
ENDBRANCH  79  81
BRANCH  79 113
ATOM    113  CB  ALA d   1     -32.778   1.017  -6.181  0.00  0.00    -0.049 C 
ATOM    114  H   ALA d   1     -33.034   1.135  -5.128  0.00  0.00     0.030 H 
ATOM    115  H   ALA d   1     -33.026   1.931  -6.721  0.00  0.00     0.030 H 
ATOM    116  H   ALA d   1     -33.339   0.182  -6.601  0.00  0.00     0.030 H 
ENDBRANCH  79 113
ENDBRANCH  77  79
ENDBRANCH  73  75
BRANCH  73 117
ATOM    117  CB  ASN d   1     -28.822   3.960  -5.504  0.00  0.00     0.036 C 
ATOM    118  H   ASN d   1     -28.995   3.447  -6.450  0.00  0.00     0.051 H 
ATOM    119  H   ASN d   1     -27.871   4.493  -5.490  0.00  0.00     0.051 H 
BRANCH 117 120
ATOM    120  CG  ASN d   1     -29.938   4.979  -5.308  0.00  0.00     0.217 C 
ATOM    121  OD1 ASN d   1     -29.863   5.832  -4.420  0.00  0.00    -0.274 OA
ATOM    122  ND2 ASN d   1     -30.983   4.888  -6.127  0.00  0.00    -0.370 N 
ATOM    123  H   ASN d   1     -31.762   5.539  -6.034  0.00  0.00     0.159 HD
ATOM    124  H   ASN d   1     -31.005   4.167  -6.848  0.00  0.00     0.159 HD
ENDBRANCH 117 120
ENDBRANCH  73 117
ENDBRANCH  71  73
ENDBRANCH  58  69
ENDBRANCH   1  55
BRANCH   1 125
ATOM    125  CB  ARG d   1     -24.140   6.477  -1.952  0.00  0.00    -0.036 C 
ATOM    126  H   ARG d   1     -23.836   7.096  -1.108  0.00  0.00     0.036 H 
ATOM    127  H   ARG d   1     -24.831   5.704  -1.616  0.00  0.00     0.036 H 
BRANCH 125 128
ATOM    128  CG  ARG d   1     -24.821   7.337  -2.976  0.00  0.00    -0.048 C 
ATOM    129  H   ARG d   1     -25.095   6.692  -3.811  0.00  0.00     0.035 H 
ATOM    130  H   ARG d   1     -24.127   8.134  -3.244  0.00  0.00     0.035 H 
BRANCH 128 131
ATOM    131  CD  ARG d   1     -26.074   7.985  -2.484  0.00  0.00     0.009 C 
ATOM    132  H   ARG d   1     -25.976   8.227  -1.426  0.00  0.00     0.064 H 
ATOM    133  H   ARG d   1     -26.917   7.305  -2.608  0.00  0.00     0.064 H 
BRANCH 131 134
ATOM    134  NE  ARG d   1     -26.300   9.201  -3.253  0.00  0.00    -0.227 N 
ATOM    135  CZ  ARG d   1     -27.487   9.761  -3.450  0.00  0.00     0.665 C 
ATOM    136  NH1 ARG d   1     -28.578   9.210  -2.935  0.00  0.00    -0.235 N 
ATOM    137  NH2 ARG d   1     -27.579  10.877  -4.162  0.00  0.00    -0.235 N 
ATOM    138  H   ARG d   1     -28.506   8.354  -2.386  0.00  0.00     0.174 HD
ATOM    139  H   ARG d   1     -29.489   9.643  -3.088  0.00  0.00     0.174 HD
ATOM    140  H   ARG d   1     -26.739  11.302  -4.556  0.00  0.00     0.174 HD
ATOM    141  H   ARG d   1     -28.489  11.310  -4.316  0.00  0.00     0.174 HD
ATOM    142  H   ARG d   1     -25.488   9.655  -3.670  0.00  0.00     0.177 HD
ENDBRANCH 131 134
ENDBRANCH 128 131
ENDBRANCH 125 128
ENDBRANCH   1 125
TORSDOF 37
