REMARK  4 active torsions:
REMARK  status: ('A' for Active; 'I' for Inactive)
REMARK    1  A    between atoms: C1_1  and  C2_4 
REMARK    2  A    between atoms: C2_4  and  C3_6 
REMARK    3  A    between atoms: C3_6  and  C4_7 
REMARK    4  A    between atoms: C4_7  and  C5_8 
ROOT
ATOM      1  C3  AKG d   1     -11.211 -22.722 -24.155  0.00  0.00     0.010 C 
ATOM      2  H   AKG d   1     -10.944 -23.728 -24.479  0.00  0.00     0.045 H 
ATOM      3  H   AKG d   1     -11.531 -22.167 -25.037  0.00  0.00     0.045 H 
ENDROOT
BRANCH   1   4
ATOM      4  C2  AKG d   1     -10.018 -22.040 -23.501  0.00  0.00     0.225 C 
ATOM      5  O5  AKG d   1     -10.031 -21.893 -22.274  0.00  0.00    -0.286 OA
BRANCH   4   6
ATOM      6  C1  AKG d   1      -8.855 -21.497 -24.242  0.00  0.00     0.246 C 
ATOM      7  O1  AKG d   1      -8.855 -21.420 -25.457  0.00  0.00    -0.642 OA
ATOM      8  O2  AKG d   1      -7.885 -21.046 -23.609  0.00  0.00    -0.642 OA
ENDBRANCH   4   6
ENDBRANCH   1   4
BRANCH   1   9
ATOM      9  C4  AKG d   1     -12.356 -22.776 -23.101  0.00  0.00     0.022 C 
ATOM     10  H   AKG d   1     -11.925 -22.948 -22.114  0.00  0.00     0.049 H 
ATOM     11  H   AKG d   1     -13.040 -23.585 -23.358  0.00  0.00     0.049 H 
BRANCH   9  12
ATOM     12  C5  AKG d   1     -13.134 -21.438 -23.089  0.00  0.00     0.172 C 
ATOM     13  O3  AKG d   1     -14.369 -21.437 -22.849  0.00  0.00    -0.648 OA
ATOM     14  O4  AKG d   1     -12.570 -20.326 -23.319  0.00  0.00    -0.648 OA
ENDBRANCH   9  12
ENDBRANCH   1   9
TORSDOF 4
