REMARK  28 active torsions:
REMARK  status: ('A' for Active; 'I' for Inactive)
REMARK    1  A    between atoms: N_1  and  CA_2 
REMARK    2  A    between atoms: CA_2  and  C_3 
REMARK    3  A    between atoms: CA_2  and  CB_5 
REMARK       I    between atoms: C_3  and  N_9 
REMARK    4  A    between atoms: CB_5  and  CG_6 
REMARK    5  A    between atoms: CA_10  and  C_11 
REMARK       I    between atoms: C_11  and  N_16 
REMARK    6  A    between atoms: N_16  and  CA_17 
REMARK    7  A    between atoms: CA_17  and  C_18 
REMARK    8  A    between atoms: CA_17  and  CB_20 
REMARK       I    between atoms: C_18  and  N_21 
REMARK    9  A    between atoms: CA_22  and  C_23 
REMARK       I    between atoms: C_23  and  N_28 
REMARK   10  A    between atoms: N_28  and  CA_29 
REMARK   11  A    between atoms: CA_29  and  C_30 
REMARK   12  A    between atoms: CA_29  and  CB_32 
REMARK       I    between atoms: C_30  and  N_34 
REMARK   13  A    between atoms: CB_32  and  OG_33 
REMARK   14  A    between atoms: N_34  and  CA_35 
REMARK   15  A    between atoms: CA_35  and  C_36 
REMARK   16  A    between atoms: CA_35  and  CB_38 
REMARK       I    between atoms: C_36  and  N_46 
REMARK   17  A    between atoms: CB_38  and  CG_39 
REMARK   18  A    between atoms: CZ_44  and  OH_45 
REMARK   19  A    between atoms: N_46  and  CA_47 
REMARK   20  A    between atoms: CA_47  and  C_48 
REMARK       I    between atoms: C_48  and  N_50 
REMARK   21  A    between atoms: N_50  and  CA_51 
REMARK   22  A    between atoms: CA_51  and  C_52 
REMARK   23  A    between atoms: CA_51  and  CB_54 
REMARK       I    between atoms: C_52  and  N_56 
REMARK   24  A    between atoms: CB_54  and  OG_55 
REMARK   25  A    between atoms: N_56  and  CA_57 
REMARK   26  A    between atoms: CA_57  and  C_58 
REMARK   27  A    between atoms: CA_57  and  CB_60 
REMARK       I    between atoms: C_58  and  N_66 
REMARK   28  A    between atoms: CB_60  and  CG_61 
ROOT
ATOM      1  CA  SER d   1       3.175   0.894  50.774  0.00  0.00     0.109 C 
ATOM      2  H   SER d   1       3.517   1.662  50.080  0.00  0.00     0.090 H 
ENDROOT
BRANCH   1   3
ATOM      3  N   SER d   1       3.172   1.661  52.039  0.00  0.00    -0.344 N 
ATOM      4  C   PRO d   1       2.189   2.525  52.344  0.00  0.00     0.241 C 
ATOM      5  O   PRO d   1       1.209   2.715  51.600  0.00  0.00    -0.271 OA
ATOM      6  H   SER d   1       3.939   1.530  52.699  0.00  0.00     0.163 HD
BRANCH   4   7
ATOM      7  CA  PRO d   1       2.300   3.337  53.660  0.00  0.00     0.091 C 
ATOM      8  N   PRO d   1       2.362   2.785  55.036  0.00  0.00    -0.337 N 
ATOM      9  C   ARG d   1       1.422   1.973  55.607  0.00  0.00     0.243 C 
ATOM     10  CD  PRO d   1       3.500   3.384  55.762  0.00  0.00    -0.001 C 
ATOM     11  O   ARG d   1       0.422   1.613  54.975  0.00  0.00    -0.271 OA
ATOM     12  CG  PRO d   1       3.680   4.688  55.026  0.00  0.00    -0.048 C 
ATOM     13  H   PRO d   1       4.393   2.759  55.763  0.00  0.00     0.064 H 
ATOM     14  H   PRO d   1       3.317   3.509  56.829  0.00  0.00     0.064 H 
ATOM     15  CB  PRO d   1       3.516   4.270  53.606  0.00  0.00    -0.036 C 
ATOM     16  H   PRO d   1       2.972   5.457  55.333  0.00  0.00     0.035 H 
ATOM     17  H   PRO d   1       4.638   5.167  55.226  0.00  0.00     0.035 H 
ATOM     18  H   PRO d   1       3.372   5.114  52.931  0.00  0.00     0.036 H 
ATOM     19  H   PRO d   1       4.404   3.784  53.203  0.00  0.00     0.036 H 
ATOM     20  H   PRO d   1       1.281   3.721  53.602  0.00  0.00     0.087 H 
BRANCH   9  21
ATOM     21  CA  ARG d   1       1.621   1.486  57.085  0.00  0.00     0.086 C 
ATOM     22  H   ARG d   1       0.951   0.627  57.126  0.00  0.00     0.086 H 
BRANCH  21  23
ATOM     23  N   ARG d   1       2.895   0.848  57.512  0.00  0.00    -0.346 N 
ATOM     24  C   PRO d   1       3.556   1.128  58.650  0.00  0.00     0.241 C 
ATOM     25  O   PRO d   1       3.205   2.004  59.453  0.00  0.00    -0.271 OA
ATOM     26  H   ARG d   1       3.299   0.144  56.894  0.00  0.00     0.163 HD
BRANCH  24  27
ATOM     27  CA  PRO d   1       4.846   0.319  58.924  0.00  0.00     0.091 C 
ATOM     28  N   PRO d   1       4.892  -1.029  58.330  0.00  0.00    -0.337 N 
ATOM     29  C   ASP d   1       4.803  -2.118  59.130  0.00  0.00     0.251 C 
ATOM     30  CD  PRO d   1       5.572  -0.986  57.020  0.00  0.00    -0.001 C 
ATOM     31  O   ASP d   1       4.674  -2.018  60.356  0.00  0.00    -0.271 OA
ATOM     32  CG  PRO d   1       6.099   0.453  56.946  0.00  0.00    -0.048 C 
ATOM     33  H   PRO d   1       4.907  -1.233  56.193  0.00  0.00     0.064 H 
ATOM     34  H   PRO d   1       6.365  -1.729  56.933  0.00  0.00     0.064 H 
ATOM     35  CB  PRO d   1       6.097   0.977  58.349  0.00  0.00    -0.036 C 
ATOM     36  H   PRO d   1       7.102   0.481  56.520  0.00  0.00     0.035 H 
ATOM     37  H   PRO d   1       5.472   1.066  56.299  0.00  0.00     0.035 H 
ATOM     38  H   PRO d   1       7.006   0.740  58.902  0.00  0.00     0.036 H 
ATOM     39  H   PRO d   1       6.080   2.065  58.406  0.00  0.00     0.036 H 
ATOM     40  H   PRO d   1       4.826   0.274  60.013  0.00  0.00     0.087 H 
BRANCH  29  41
ATOM     41  CA  ASP d   1       4.853  -3.515  58.474  0.00  0.00     0.185 C 
ATOM     42  H   ASP d   1       4.144  -4.147  59.009  0.00  0.00     0.100 H 
BRANCH  41  43
ATOM     43  N   ASP d   1       4.431  -3.491  57.046  0.00  0.00    -0.066 N 
ATOM     44  H   ASP d   1       3.491  -3.102  56.977  0.00  0.00     0.275 HD
ATOM     45  H   ASP d   1       5.080  -2.914  56.511  0.00  0.00     0.275 HD
ATOM     46  H   ASP d   1       4.435  -4.441  56.676  0.00  0.00     0.275 HD
ENDBRANCH  41  43
BRANCH  41  47
ATOM     47  CB  ASP d   1       6.267  -4.099  58.592  0.00  0.00     0.050 C 
ATOM     48  H   ASP d   1       6.978  -3.288  58.433  0.00  0.00     0.052 H 
ATOM     49  H   ASP d   1       6.364  -4.894  57.853  0.00  0.00     0.052 H 
BRANCH  47  50
ATOM     50  CG  ASP d   1       6.544  -4.705  59.975  0.00  0.00     0.175 C 
ATOM     51  OD1 ASP d   1       6.632  -3.939  60.961  0.00  0.00    -0.648 OA
ATOM     52  OD2 ASP d   1       6.661  -5.952  60.076  0.00  0.00    -0.648 OA
ENDBRANCH  47  50
ENDBRANCH  41  47
ENDBRANCH  29  41
ENDBRANCH  24  27
ENDBRANCH  21  23
BRANCH  21  53
ATOM     53  CB  ARG d   1       1.242   2.636  58.055  0.00  0.00    -0.049 C 
ATOM     54  H   ARG d   1       1.120   2.235  59.061  0.00  0.00     0.030 H 
ATOM     55  H   ARG d   1       2.033   3.386  58.054  0.00  0.00     0.030 H 
ATOM     56  H   ARG d   1       0.307   3.092  57.728  0.00  0.00     0.030 H 
ENDBRANCH  21  53
ENDBRANCH   9  21
ENDBRANCH   4   7
ENDBRANCH   1   3
BRANCH   1  57
ATOM     57  C   SER d   1       1.846   0.391  50.255  0.00  0.00     0.243 C 
ATOM     58  O   SER d   1       1.631   0.370  49.033  0.00  0.00    -0.271 OA
ATOM     59  N   TYR d   1       0.956  -0.028  51.154  0.00  0.00    -0.346 N 
ATOM     60  H   TYR d   1       1.166   0.002  52.152  0.00  0.00     0.163 HD
BRANCH  59  61
ATOM     61  CA  TYR d   1      -0.320  -0.528  50.676  0.00  0.00     0.093 C 
ATOM     62  H   TYR d   1      -0.093  -1.046  49.744  0.00  0.00     0.088 H 
BRANCH  61  63
ATOM     63  C   TYR d   1      -1.327   0.560  50.294  0.00  0.00     0.241 C 
ATOM     64  O   TYR d   1      -0.939   1.707  49.982  0.00  0.00    -0.271 OA
ATOM     65  N   ILE d   1      -2.613   0.196  50.322  0.00  0.00    -0.351 N 
ATOM     66  H   ILE d   1      -2.860  -0.744  50.633  0.00  0.00     0.163 HD
BRANCH  65  67
ATOM     67  CA  ILE d   1      -3.664   1.109  49.920  0.00  0.00     0.069 C 
ATOM     68  H   ILE d   1      -3.333   2.142  49.810  0.00  0.00     0.078 H 
ATOM     69  H   ILE d   1      -4.457   1.223  50.660  0.00  0.00     0.078 H 
BRANCH  67  70
ATOM     70  C   ILE d   1      -4.121   0.470  48.625  0.00  0.00     0.236 C 
ATOM     71  O   ILE d   1      -4.447   1.151  47.646  0.00  0.00    -0.272 OA
ATOM     72  N   SER d   1      -4.093  -0.870  48.659  0.00  0.00    -0.344 N 
ATOM     73  H   SER d   1      -3.781  -1.292  49.534  0.00  0.00     0.163 HD
BRANCH  72  74
ATOM     74  CA  SER d   1      -4.460  -1.806  47.580  0.00  0.00     0.109 C 
ATOM     75  H   SER d   1      -3.586  -2.457  47.557  0.00  0.00     0.090 H 
BRANCH  74  76
ATOM     76  C   SER d   1      -4.525  -1.338  46.116  0.00  0.00     0.243 C 
ATOM     77  O   SER d   1      -3.774  -0.446  45.689  0.00  0.00    -0.271 OA
ATOM     78  N   HIS d   1      -5.411  -1.984  45.353  0.00  0.00    -0.346 N 
ATOM     79  H   HIS d   1      -5.970  -2.723  45.780  0.00  0.00     0.163 HD
BRANCH  78  80
ATOM     80  CA  HIS d   1      -5.621  -1.685  43.934  0.00  0.00     0.094 C 
ATOM     81  H   HIS d   1      -6.388  -2.357  43.549  0.00  0.00     0.088 H 
BRANCH  80  82
ATOM     82  C   HIS d   1      -4.335  -1.931  43.116  0.00  0.00     0.238 C 
ATOM     83  O   HIS d   1      -3.340  -1.164  43.240  0.00  0.00    -0.271 OA
ATOM     84  N   LEU d   1      -4.327  -2.929  42.364  0.00  0.00    -0.368 N 
ATOM     85  H   LEU d   1      -3.493  -3.151  41.820  0.00  0.00     0.159 HD
ATOM     86  H   LEU d   1      -5.154  -3.522  42.294  0.00  0.00     0.159 HD
ENDBRANCH  80  82
BRANCH  80  87
ATOM     87  CB  HIS d   1      -6.103  -0.235  43.771  0.00  0.00     0.004 C 
ATOM     88  H   HIS d   1      -6.631  -0.173  42.819  0.00  0.00     0.046 H 
ATOM     89  H   HIS d   1      -5.225   0.408  43.830  0.00  0.00     0.046 H 
BRANCH  87  90
ATOM     90  CG  HIS d   1      -7.055   0.211  44.840  0.00  0.00     0.053 A 
ATOM     91  ND1 HIS d   1      -6.650   0.456  46.130  0.00  0.00    -0.247 NA
ATOM     92  CE1 HIS d   1      -7.699   0.798  46.868  0.00  0.00     0.064 A 
ATOM     93  NE2 HIS d   1      -8.769   0.788  46.095  0.00  0.00    -0.359 N 
ATOM     94  H   HIS d   1      -7.680   1.045  47.930  0.00  0.00     0.143 H 
ATOM     95  CD2 HIS d   1      -8.395   0.424  44.816  0.00  0.00     0.002 A 
ATOM     96  H   HIS d   1      -9.718   1.013  46.394  0.00  0.00     0.166 HD
ATOM     97  H   HIS d   1      -9.052   0.326  43.952  0.00  0.00     0.114 H 
ENDBRANCH  87  90
ENDBRANCH  80  87
ENDBRANCH  78  80
ENDBRANCH  74  76
BRANCH  74  98
ATOM     98  CB  SER d   1      -5.778  -2.501  47.944  0.00  0.00     0.044 C 
ATOM     99  H   SER d   1      -5.994  -3.268  47.200  0.00  0.00     0.077 H 
ATOM    100  H   SER d   1      -6.578  -1.760  47.965  0.00  0.00     0.077 H 
BRANCH  98 101
ATOM    101  OG  SER d   1      -5.676  -3.107  49.217  0.00  0.00    -0.398 OA
ATOM    102  H   SER d   1      -6.506  -3.538  49.432  0.00  0.00     0.209 HD
ENDBRANCH  98 101
ENDBRANCH  74  98
ENDBRANCH  72  74
ENDBRANCH  67  70
ENDBRANCH  65  67
ENDBRANCH  61  63
BRANCH  61 103
ATOM    103  CB  TYR d   1      -0.931  -1.528  51.666  0.00  0.00    -0.014 C 
ATOM    104  H   TYR d   1      -1.778  -1.066  52.172  0.00  0.00     0.043 H 
ATOM    105  H   TYR d   1      -0.180  -1.815  52.402  0.00  0.00     0.043 H 
BRANCH 103 106
ATOM    106  CG  TYR d   1      -1.400  -2.757  50.918  0.00  0.00    -0.056 A 
ATOM    107  CD1 TYR d   1      -2.658  -2.794  50.311  0.00  0.00    -0.074 A 
ATOM    108  CE1 TYR d   1      -3.026  -3.842  49.469  0.00  0.00    -0.051 A 
ATOM    109  H   TYR d   1      -3.366  -1.987  50.500  0.00  0.00     0.084 H 
ATOM    110  CZ  TYR d   1      -2.139  -4.877  49.226  0.00  0.00     0.065 A 
ATOM    111  H   TYR d   1      -4.011  -3.847  49.002  0.00  0.00     0.087 H 
ATOM    112  CE2 TYR d   1      -0.886  -4.878  49.826  0.00  0.00    -0.051 A 
ATOM    113  CD2 TYR d   1      -0.523  -3.820  50.672  0.00  0.00    -0.074 A 
ATOM    114  H   TYR d   1      -0.190  -5.696  49.640  0.00  0.00     0.087 H 
ATOM    115  H   TYR d   1       0.459  -3.825  51.146  0.00  0.00     0.084 H 
BRANCH 110 116
ATOM    116  OH  TYR d   1      -2.505  -5.897  48.367  0.00  0.00    -0.361 OA
ATOM    117  H   TYR d   1      -3.396  -5.739  48.046  0.00  0.00     0.217 HD
ENDBRANCH 110 116
ENDBRANCH 103 106
ENDBRANCH  61 103
ENDBRANCH  59  61
ENDBRANCH   1  57
BRANCH   1 118
ATOM    118  CB  SER d   1       4.108  -0.314  50.827  0.00  0.00     0.044 C 
ATOM    119  H   SER d   1       3.837  -0.939  51.678  0.00  0.00     0.077 H 
ATOM    120  H   SER d   1       5.136   0.032  50.930  0.00  0.00     0.077 H 
BRANCH 118 121
ATOM    121  OG  SER d   1       3.988  -1.076  49.629  0.00  0.00    -0.398 OA
ATOM    122  H   SER d   1       3.082  -1.380  49.534  0.00  0.00     0.209 HD
ENDBRANCH 118 121
ENDBRANCH   1 118
TORSDOF 28
