REMARK  15 active torsions:
REMARK  status: ('A' for Active; 'I' for Inactive)
REMARK    1  A    between atoms: CA_2  and  C_3 
REMARK       I    between atoms: C_3  and  N_8 
REMARK    2  A    between atoms: CA_9  and  C_10 
REMARK       I    between atoms: C_10  and  N_15 
REMARK    3  A    between atoms: N_15  and  CA_16 
REMARK    4  A    between atoms: CA_16  and  C_17 
REMARK    5  A    between atoms: CA_16  and  CB_19 
REMARK       I    between atoms: C_17  and  N_27 
REMARK    6  A    between atoms: CB_19  and  CG_20 
REMARK    7  A    between atoms: CZ_25  and  OH_26 
REMARK    8  A    between atoms: CA_28  and  C_29 
REMARK       I    between atoms: C_29  and  N_34 
REMARK    9  A    between atoms: N_34  and  CA_35 
REMARK   10  A    between atoms: CA_35  and  C_36 
REMARK   11  A    between atoms: CA_35  and  CB_38 
REMARK       I    between atoms: C_36  and  N_39 
REMARK   12  A    between atoms: N_39  and  CA_40 
REMARK   13  A    between atoms: CA_40  and  C_41 
REMARK   14  A    between atoms: CA_40  and  CB_43 
REMARK   15  A    between atoms: CB_43  and  CG_44 
ROOT
ATOM      1  N   PRO d   1      -0.372   8.810  50.883  0.00  0.00    -0.337 N 
ATOM      2  CA  PRO d   1       0.833   9.587  50.566  0.00  0.00     0.091 C 
ATOM      3  CB  PRO d   1       0.508  10.100  49.165  0.00  0.00    -0.036 C 
ATOM      4  CG  PRO d   1      -1.042  10.367  49.255  0.00  0.00    -0.048 C 
ATOM      5  CD  PRO d   1      -1.553   9.604  50.517  0.00  0.00    -0.001 C 
ATOM      6  H   PRO d   1       1.699   8.937  50.688  0.00  0.00     0.087 H 
ATOM      7  H   PRO d   1       0.776   9.395  48.378  0.00  0.00     0.036 H 
ATOM      8  H   PRO d   1       1.080  10.986  48.890  0.00  0.00     0.036 H 
ATOM      9  H   PRO d   1      -1.550  10.018  48.356  0.00  0.00     0.035 H 
ATOM     10  H   PRO d   1      -1.249  11.434  49.335  0.00  0.00     0.035 H 
ATOM     11  H   PRO d   1      -1.897  10.263  51.314  0.00  0.00     0.064 H 
ATOM     12  H   PRO d   1      -2.442   9.001  50.330  0.00  0.00     0.064 H 
ATOM     13  C   TYR d   1      -0.204   7.476  50.778  0.00  0.00     0.243 C 
ATOM     14  O   TYR d   1       0.884   6.987  50.447  0.00  0.00    -0.271 OA
ENDROOT
BRANCH  13  15
ATOM     15  CA  TYR d   1      -1.409   6.557  51.068  0.00  0.00     0.093 C 
ATOM     16  H   TYR d   1      -1.024   5.781  51.730  0.00  0.00     0.088 H 
BRANCH  15  17
ATOM     17  N   TYR d   1      -2.527   7.120  51.828  0.00  0.00    -0.346 N 
ATOM     18  C   PRO d   1      -3.699   6.479  51.947  0.00  0.00     0.241 C 
ATOM     19  O   PRO d   1      -3.925   5.362  51.418  0.00  0.00    -0.271 OA
ATOM     20  H   TYR d   1      -2.411   8.027  52.280  0.00  0.00     0.163 HD
BRANCH  18  21
ATOM     21  CA  PRO d   1      -4.787   7.240  52.725  0.00  0.00     0.091 C 
ATOM     22  N   PRO d   1      -6.016   6.627  53.240  0.00  0.00    -0.337 N 
ATOM     23  C   PRO d   1      -6.284   5.485  53.921  0.00  0.00     0.251 C 
ATOM     24  CD  PRO d   1      -6.767   7.713  53.901  0.00  0.00    -0.001 C 
ATOM     25  O   PRO d   1      -5.388   4.726  54.316  0.00  0.00    -0.271 OA
ATOM     26  CG  PRO d   1      -5.609   8.649  54.466  0.00  0.00    -0.048 C 
ATOM     27  H   PRO d   1      -7.439   7.352  54.680  0.00  0.00     0.064 H 
ATOM     28  H   PRO d   1      -7.442   8.235  53.224  0.00  0.00     0.064 H 
ATOM     29  CB  PRO d   1      -4.269   7.981  53.950  0.00  0.00    -0.036 C 
ATOM     30  H   PRO d   1      -5.711   9.678  54.121  0.00  0.00     0.035 H 
ATOM     31  H   PRO d   1      -5.637   8.721  55.553  0.00  0.00     0.035 H 
ATOM     32  H   PRO d   1      -3.469   8.690  53.738  0.00  0.00     0.036 H 
ATOM     33  H   PRO d   1      -3.776   7.343  54.684  0.00  0.00     0.036 H 
ATOM     34  H   PRO d   1      -5.071   7.817  51.844  0.00  0.00     0.087 H 
BRANCH  23  35
ATOM     35  CA  PRO d   1      -7.771   5.207  54.251  0.00  0.00     0.178 C 
ATOM     36  N   PRO d   1      -8.374   4.227  53.295  0.00  0.00    -0.062 N 
ATOM     37  CD  PRO d   1      -9.266   3.292  54.009  0.00  0.00     0.083 C 
ATOM     38  H   PRO d   1      -7.626   3.696  52.848  0.00  0.00     0.278 HD
ATOM     39  H   PRO d   1      -8.917   4.735  52.597  0.00  0.00     0.278 HD
ATOM     40  CG  PRO d   1      -9.311   3.900  55.424  0.00  0.00    -0.040 C 
ATOM     41  H   PRO d   1      -8.909   2.262  53.995  0.00  0.00     0.075 H 
ATOM     42  H   PRO d   1     -10.250   3.201  53.549  0.00  0.00     0.075 H 
ATOM     43  CB  PRO d   1      -7.963   4.625  55.637  0.00  0.00    -0.028 C 
ATOM     44  H   PRO d   1     -10.146   4.594  55.523  0.00  0.00     0.035 H 
ATOM     45  H   PRO d   1      -9.459   3.125  56.176  0.00  0.00     0.035 H 
ATOM     46  H   PRO d   1      -7.963   5.359  56.443  0.00  0.00     0.036 H 
ATOM     47  H   PRO d   1      -7.150   3.984  55.978  0.00  0.00     0.036 H 
ATOM     48  H   PRO d   1      -8.258   6.179  54.180  0.00  0.00     0.099 H 
ENDBRANCH  23  35
ENDBRANCH  18  21
ENDBRANCH  15  17
BRANCH  15  49
ATOM     49  CB  TYR d   1      -1.929   6.037  49.708  0.00  0.00    -0.014 C 
ATOM     50  H   TYR d   1      -2.647   5.248  49.932  0.00  0.00     0.043 H 
ATOM     51  H   TYR d   1      -1.053   5.727  49.139  0.00  0.00     0.043 H 
BRANCH  49  52
ATOM     52  CG  TYR d   1      -2.669   7.070  48.843  0.00  0.00    -0.056 A 
ATOM     53  CD1 TYR d   1      -3.679   7.882  49.387  0.00  0.00    -0.074 A 
ATOM     54  CE1 TYR d   1      -4.414   8.779  48.591  0.00  0.00    -0.051 A 
ATOM     55  H   TYR d   1      -3.898   7.815  50.453  0.00  0.00     0.084 H 
ATOM     56  CZ  TYR d   1      -4.156   8.875  47.231  0.00  0.00     0.065 A 
ATOM     57  H   TYR d   1      -5.188   9.400  49.043  0.00  0.00     0.087 H 
ATOM     58  CE2 TYR d   1      -3.150   8.085  46.657  0.00  0.00    -0.051 A 
ATOM     59  CD2 TYR d   1      -2.406   7.188  47.468  0.00  0.00    -0.074 A 
ATOM     60  H   TYR d   1      -2.939   8.159  45.590  0.00  0.00     0.087 H 
ATOM     61  H   TYR d   1      -1.620   6.582  47.017  0.00  0.00     0.084 H 
BRANCH  56  62
ATOM     62  OH  TYR d   1      -4.945   9.710  46.457  0.00  0.00    -0.361 OA
ATOM     63  H   TYR d   1      -5.573  10.167  47.020  0.00  0.00     0.217 HD
ENDBRANCH  56  62
ENDBRANCH  49  52
ENDBRANCH  15  49
ENDBRANCH  13  15
BRANCH   2  64
ATOM     64  C   PRO d   1       1.299  10.734  51.490  0.00  0.00     0.241 C 
ATOM     65  O   PRO d   1       1.908  10.508  52.534  0.00  0.00    -0.271 OA
ATOM     66  N   ALA d   1       1.029  11.968  51.056  0.00  0.00    -0.346 N 
ATOM     67  H   ALA d   1       0.516  12.073  50.181  0.00  0.00     0.163 HD
BRANCH  66  68
ATOM     68  CA  ALA d   1       1.435  13.182  51.779  0.00  0.00     0.086 C 
ATOM     69  H   ALA d   1       1.671  12.854  52.791  0.00  0.00     0.086 H 
BRANCH  68  70
ATOM     70  C   ALA d   1       0.337  14.245  51.932  0.00  0.00     0.240 C 
ATOM     71  O   ALA d   1       0.581  15.327  52.489  0.00  0.00    -0.271 OA
ATOM     72  N   TRP d   1      -0.857  13.955  51.428  0.00  0.00    -0.344 N 
ATOM     73  H   TRP d   1      -1.009  13.064  50.955  0.00  0.00     0.163 HD
BRANCH  72  74
ATOM     74  CA  TRP d   1      -1.950  14.910  51.551  0.00  0.00     0.100 C 
ATOM     75  H   TRP d   1      -1.639  15.838  51.072  0.00  0.00     0.090 H 
BRANCH  74  76
ATOM     76  C   TRP d   1      -2.258  15.225  53.031  0.00  0.00     0.197 C 
ATOM     77  O   TRP d   1      -3.138  14.526  53.643  0.00  0.00    -0.646 OA
ATOM     78  O1  TRP d   1      -1.652  16.156  53.627  0.00  0.00    -0.646 OA
ENDBRANCH  74  76
BRANCH  74  79
ATOM     79  CB  TRP d   1      -3.205  14.383  50.839  0.00  0.00    -0.011 C 
ATOM     80  H   TRP d   1      -2.955  14.318  49.780  0.00  0.00     0.044 H 
ATOM     81  H   TRP d   1      -4.014  15.068  51.092  0.00  0.00     0.044 H 
BRANCH  79  82
ATOM     82  CG  TRP d   1      -3.664  13.007  51.256  0.00  0.00    -0.028 A 
ATOM     83  CD1 TRP d   1      -2.998  12.121  52.065  0.00  0.00    -0.015 A 
ATOM     84  NE1 TRP d   1      -3.746  10.969  52.224  0.00  0.00    -0.365 N 
ATOM     85  H   TRP d   1      -2.022  12.299  52.516  0.00  0.00     0.112 H 
ATOM     86  CE2 TRP d   1      -4.911  11.092  51.514  0.00  0.00     0.042 A 
ATOM     87  H   TRP d   1      -3.474  10.158  52.780  0.00  0.00     0.165 HD
ATOM     88  CD2 TRP d   1      -4.897  12.364  50.888  0.00  0.00    -0.002 A 
ATOM     89  CZ2 TRP d   1      -5.982  10.189  51.366  0.00  0.00    -0.056 A 
ATOM     90  CE3 TRP d   1      -5.988  12.741  50.093  0.00  0.00    -0.070 A 
ATOM     91  CZ3 TRP d   1      -7.062  11.838  49.944  0.00  0.00    -0.082 A 
ATOM     92  H   TRP d   1      -6.006  13.713  49.599  0.00  0.00     0.084 H 
ATOM     93  CH2 TRP d   1      -7.044  10.578  50.581  0.00  0.00    -0.081 A 
ATOM     94  H   TRP d   1      -7.917  12.117  49.329  0.00  0.00     0.083 H 
ATOM     95  H   TRP d   1      -7.887   9.900  50.449  0.00  0.00     0.083 H 
ATOM     96  H   TRP d   1      -5.970   9.216  51.856  0.00  0.00     0.086 H 
ENDBRANCH  79  82
ENDBRANCH  74  79
ENDBRANCH  72  74
ENDBRANCH  68  70
BRANCH  68  97
ATOM     97  CB  ALA d   1       2.663  13.812  51.081  0.00  0.00    -0.049 C 
ATOM     98  H   ALA d   1       3.486  13.097  51.080  0.00  0.00     0.030 H 
ATOM     99  H   ALA d   1       2.403  14.070  50.054  0.00  0.00     0.030 H 
ATOM    100  H   ALA d   1       2.963  14.712  51.618  0.00  0.00     0.030 H 
ENDBRANCH  68  97
ENDBRANCH  66  68
ENDBRANCH   2  64
TORSDOF 15
