REMARK  6 active torsions:
REMARK  status: ('A' for Active; 'I' for Inactive)
REMARK       I    between atoms: N1_2  and  C1_1 
REMARK    1  A    between atoms: C2_5  and  N1_2 
REMARK    2  A    between atoms: N1_2  and  O2_6 
REMARK    3  A    between atoms: C3_8  and  C2_5 
REMARK    4  A    between atoms: C4_9  and  C3_8 
REMARK    5  A    between atoms: C6_10  and  C4_9 
REMARK    6  A    between atoms: C4_9  and  PA1_16 
ROOT
ATOM      1  C4  34F d   1      43.423   8.531  23.637  0.00  0.00     0.082 C 
ATOM      2  H   34F d   1      42.560   7.933  23.932  0.00  0.00     0.069 H 
ENDROOT
BRANCH   1   3
ATOM      3  C3  34F d   1      43.786   9.493  24.761  0.00  0.00    -0.029 C 
ATOM      4  H   34F d   1      43.835   8.914  25.683  0.00  0.00     0.037 H 
ATOM      5  H   34F d   1      44.730   9.968  24.492  0.00  0.00     0.037 H 
BRANCH   3   6
ATOM      6  C2  34F d   1      42.753  10.611  24.974  0.00  0.00     0.024 C 
ATOM      7  H   34F d   1      43.145  11.358  25.664  0.00  0.00     0.068 H 
ATOM      8  H   34F d   1      42.535  11.105  24.027  0.00  0.00     0.068 H 
BRANCH   6   9
ATOM      9  N1  34F d   1      41.538  10.011  25.520  0.00  0.00    -0.236 N 
ATOM     10  C1  34F d   1      40.434  10.112  24.900  0.00  0.00     0.193 C 
ATOM     11  O1  34F d   1      39.389   9.666  25.362  0.00  0.00    -0.281 OA
ATOM     12  H   34F d   1      40.415  10.609  23.930  0.00  0.00     0.183 H 
BRANCH   9  13
ATOM     13  O2  34F d   1      41.611   9.339  26.731  0.00  0.00    -0.285 OA
ATOM     14  H   34F d   1      40.742   9.001  26.961  0.00  0.00     0.245 HD
ENDBRANCH   9  13
ENDBRANCH   6   9
ENDBRANCH   3   6
ENDBRANCH   1   3
BRANCH   1  15
ATOM     15  C6  34F d   1      43.048   9.338  22.417  0.00  0.00    -0.039 A 
ATOM     16  C7  34F d   1      43.932  10.284  21.869  0.00  0.00    -0.053 A 
ATOM     17  C8  34F d   1      43.546  11.039  20.756  0.00  0.00     0.056 A 
ATOM     18  H   34F d   1      44.918  10.429  22.311  0.00  0.00     0.087 H 
ATOM     19 CL1  34F d   1      44.717  12.228  20.094  0.00  0.00    -0.083 Cl
ATOM     20  C9  34F d   1      42.269  10.853  20.187  0.00  0.00     0.055 A 
ATOM     21 CL2  34F d   1      41.748  11.798  18.752  0.00  0.00    -0.083 Cl
ATOM     22  C10 34F d   1      41.379   9.913  20.736  0.00  0.00    -0.060 A 
ATOM     23  C11 34F d   1      41.770   9.161  21.851  0.00  0.00    -0.074 A 
ATOM     24  H   34F d   1      40.392   9.771  20.297  0.00  0.00     0.086 H 
ATOM     25  H   34F d   1      41.082   8.435  22.283  0.00  0.00     0.084 H 
ENDBRANCH   1  15
BRANCH   1  26
ATOM     26  PA1 34F d   1      44.586   7.432  23.359  0.00  0.00     0.268 P 
ATOM     27  OP1 34F d   1      44.839   6.795  24.706  0.00  0.00    -0.639 OA
ATOM     28  OP2 34F d   1      43.964   6.487  22.359  0.00  0.00    -0.639 OA
ATOM     29  OP3 34F d   1      45.792   8.141  22.810  0.00  0.00    -0.639 OA
ENDBRANCH   1  26
TORSDOF 6
