REMARK  7 active torsions:
REMARK  status: ('A' for Active; 'I' for Inactive)
REMARK    1  A    between atoms: C6_8  and  C4_9 
REMARK    2  A    between atoms: C4_9  and  PA1_10 
REMARK    3  A    between atoms: C4_9  and  C3_14 
REMARK    4  A    between atoms: C3_14  and  C2_15 
REMARK    5  A    between atoms: C2_15  and  N1_16 
REMARK    6  A    between atoms: N1_16  and  O2_17 
REMARK       I    between atoms: N1_16  and  C1_18 
REMARK    7  A    between atoms: C1_18  and  C5_20 
ROOT
ATOM      1  C4  FM5 d   1      13.799  -4.196   1.424  0.00  0.00     0.082 C 
ATOM      2  H   FM5 d   1      14.410  -3.603   2.104  0.00  0.00     0.069 H 
ENDROOT
BRANCH   1   3
ATOM      3  C6  FM5 d   1      12.389  -4.201   2.044  0.00  0.00    -0.039 A 
ATOM      4  C11 FM5 d   1      11.354  -5.022   1.550  0.00  0.00    -0.074 A 
ATOM      5  C10 FM5 d   1      10.078  -4.967   2.137  0.00  0.00    -0.060 A 
ATOM      6  H   FM5 d   1      11.543  -5.697   0.715  0.00  0.00     0.084 H 
ATOM      7  C9  FM5 d   1       9.834  -4.085   3.211  0.00  0.00     0.055 A 
ATOM      8  H   FM5 d   1       9.278  -5.605   1.763  0.00  0.00     0.086 H 
ATOM      9 CL2  FM5 d   1       8.199  -4.019   3.952  0.00  0.00    -0.083 Cl
ATOM     10  C8  FM5 d   1      10.857  -3.260   3.708  0.00  0.00     0.056 A 
ATOM     11 CL1  FM5 d   1      10.545  -2.133   5.086  0.00  0.00    -0.083 Cl
ATOM     12  C7  FM5 d   1      12.130  -3.322   3.117  0.00  0.00    -0.053 A 
ATOM     13  H   FM5 d   1      12.929  -2.682   3.493  0.00  0.00     0.087 H 
ENDBRANCH   1   3
BRANCH   1  14
ATOM     14  PA1 FM5 d   1      14.603  -5.827   1.348  0.00  0.00     0.268 P 
ATOM     15  OP1 FM5 d   1      14.880  -6.158   2.787  0.00  0.00    -0.639 OA
ATOM     16  OP2 FM5 d   1      15.863  -5.636   0.553  0.00  0.00    -0.639 OA
ATOM     17  OP3 FM5 d   1      13.650  -6.784   0.702  0.00  0.00    -0.639 OA
ENDBRANCH   1  14
BRANCH   1  18
ATOM     18  C3  FM5 d   1      13.775  -3.545   0.034  0.00  0.00    -0.029 C 
ATOM     19  H   FM5 d   1      13.237  -4.220  -0.631  0.00  0.00     0.037 H 
ATOM     20  H   FM5 d   1      14.810  -3.369  -0.260  0.00  0.00     0.037 H 
BRANCH  18  21
ATOM     21  C2  FM5 d   1      13.053  -2.194  -0.005  0.00  0.00     0.025 C 
ATOM     22  H   FM5 d   1      12.084  -2.285   0.485  0.00  0.00     0.068 H 
ATOM     23  H   FM5 d   1      12.908  -1.889  -1.041  0.00  0.00     0.068 H 
BRANCH  21  24
ATOM     24  N1  FM5 d   1      13.862  -1.187   0.693  0.00  0.00    -0.229 N 
ATOM     25  C1  FM5 d   1      13.459  -0.378   1.697  0.00  0.00     0.239 C 
ATOM     26  O1  FM5 d   1      14.251   0.159   2.457  0.00  0.00    -0.272 OA
BRANCH  24  27
ATOM     27  O2  FM5 d   1      15.172  -1.014   0.231  0.00  0.00    -0.285 OA
ATOM     28  H   FM5 d   1      15.608  -0.337   0.754  0.00  0.00     0.245 HD
ENDBRANCH  24  27
BRANCH  25  29
ATOM     29  C5  FM5 d   1      11.984  -0.113   1.848  0.00  0.00    -0.001 C 
ATOM     30  H   FM5 d   1      11.659  -0.428   2.840  0.00  0.00     0.040 H 
ATOM     31  H   FM5 d   1      11.793   0.953   1.724  0.00  0.00     0.040 H 
ATOM     32  H   FM5 d   1      11.436  -0.672   1.090  0.00  0.00     0.040 H 
ENDBRANCH  25  29
ENDBRANCH  21  24
ENDBRANCH  18  21
ENDBRANCH   1  18
TORSDOF 7
