REMARK  31 active torsions:
REMARK  status: ('A' for Active; 'I' for Inactive)
REMARK    1  A    between atoms: N_1  and  CA_2 
REMARK    2  A    between atoms: CA_2  and  C_3 
REMARK    3  A    between atoms: CA_2  and  CB_5 
REMARK       I    between atoms: C_3  and  N_7 
REMARK    4  A    between atoms: CB_5  and  OG_6 
REMARK    5  A    between atoms: N_7  and  CA_8 
REMARK    6  A    between atoms: CA_8  and  C_9 
REMARK    7  A    between atoms: CA_8  and  CB_11 
REMARK       I    between atoms: C_9  and  N_15 
REMARK    8  A    between atoms: CB_11  and  CG_12 
REMARK    9  A    between atoms: N_15  and  CA_16 
REMARK   10  A    between atoms: CA_16  and  C_17 
REMARK       I    between atoms: C_17  and  N_19 
REMARK   11  A    between atoms: N_19  and  CA_20 
REMARK   12  A    between atoms: CA_20  and  C_21 
REMARK   13  A    between atoms: CA_20  and  CB_23 
REMARK       I    between atoms: C_21  and  N_35 
REMARK   14  A    between atoms: CB_23  and  CG_24 
REMARK   15  A    between atoms: CZ_29  and  OH_30 
REMARK   16  A    between atoms: OH_30  and  P_31 
REMARK   17  A    between atoms: N_35  and  CA_36 
REMARK   18  A    between atoms: CA_36  and  C_37 
REMARK   19  A    between atoms: CA_36  and  CB_39 
REMARK       I    between atoms: C_37  and  N_42 
REMARK   20  A    between atoms: CB_39  and  OG1_40 
REMARK   21  A    between atoms: CB_39  and  CG2_41 
REMARK   22  A    between atoms: CA_43  and  C_44 
REMARK       I    between atoms: C_44  and  N_49 
REMARK   23  A    between atoms: N_49  and  CA_50 
REMARK   24  A    between atoms: CA_50  and  C_51 
REMARK   25  A    between atoms: CA_50  and  CB_53 
REMARK       I    between atoms: C_51  and  N_58 
REMARK   26  A    between atoms: CB_53  and  CG_54 
REMARK   27  A    between atoms: CG_54  and  CD_55 
REMARK   28  A    between atoms: CA_59  and  C_60 
REMARK       I    between atoms: C_60  and  N_65 
REMARK   29  A    between atoms: N_65  and  CA_66 
REMARK   30  A    between atoms: CA_66  and  C_67 
REMARK   31  A    between atoms: CA_66  and  CB_69 
ROOT
ATOM      1  CA  THR d   1      40.660 -45.184   0.129  0.00  0.00     0.114 C 
ATOM      2  H   THR d   1      40.354 -44.788  -0.839  0.00  0.00     0.091 H 
ENDROOT
BRANCH   1   3
ATOM      3  N   THR d   1      42.096 -45.402   0.082  0.00  0.00    -0.344 N 
ATOM      4  C   PTR d   1      42.885 -44.699  -0.725  0.00  0.00     0.241 C 
ATOM      5  O   PTR d   1      42.457 -43.824  -1.491  0.00  0.00    -0.271 OA
ATOM      6  H   THR d   1      42.510 -46.114   0.684  0.00  0.00     0.163 HD
BRANCH   4   7
ATOM      7  CA  PTR d   1      44.379 -45.043  -0.659  0.00  0.00     0.093 C 
ATOM      8  H   PTR d   1      44.482 -45.907  -0.002  0.00  0.00     0.088 H 
BRANCH   7   9
ATOM      9  N   PTR d   1      44.902 -45.433  -1.975  0.00  0.00    -0.346 N 
ATOM     10  C   GLY d   1      45.001 -46.710  -2.321  0.00  0.00     0.236 C 
ATOM     11  O   GLY d   1      44.746 -47.637  -1.545  0.00  0.00    -0.272 OA
ATOM     12  H   PTR d   1      45.194 -44.711  -2.633  0.00  0.00     0.163 HD
BRANCH  10  13
ATOM     13  CA  GLY d   1      45.442 -46.979  -3.744  0.00  0.00     0.069 C 
ATOM     14  H   GLY d   1      44.704 -46.534  -4.411  0.00  0.00     0.078 H 
ATOM     15  H   GLY d   1      46.438 -46.554  -3.870  0.00  0.00     0.078 H 
BRANCH  13  16
ATOM     16  N   GLY d   1      45.522 -48.394  -4.052  0.00  0.00    -0.351 N 
ATOM     17  C   ASP d   1      46.683 -48.946  -4.372  0.00  0.00     0.241 C 
ATOM     18  O   ASP d   1      47.734 -48.312  -4.417  0.00  0.00    -0.271 OA
ATOM     19  H   GLY d   1      44.679 -48.968  -4.022  0.00  0.00     0.163 HD
BRANCH  17  20
ATOM     20  CA  ASP d   1      46.644 -50.414  -4.713  0.00  0.00     0.098 C 
ATOM     21  H   ASP d   1      47.290 -50.995  -4.054  0.00  0.00     0.088 H 
BRANCH  20  22
ATOM     22  N   ASP d   1      45.270 -50.867  -4.570  0.00  0.00    -0.345 N 
ATOM     23  C   SER d   1      44.947 -52.059  -4.071  0.00  0.00     0.251 C 
ATOM     24  O   SER d   1      45.779 -52.841  -3.589  0.00  0.00    -0.271 OA
ATOM     25  H   ASP d   1      44.519 -50.243  -4.865  0.00  0.00     0.163 HD
BRANCH  23  26
ATOM     26  CA  SER d   1      43.454 -52.414  -4.112  0.00  0.00     0.195 C 
ATOM     27  H   SER d   1      43.244 -53.074  -3.270  0.00  0.00     0.102 H 
BRANCH  26  28
ATOM     28  N   SER d   1      42.628 -51.214  -3.976  0.00  0.00    -0.064 N 
ATOM     29  H   SER d   1      42.869 -50.733  -3.109  0.00  0.00     0.275 HD
ATOM     30  H   SER d   1      42.797 -50.595  -4.769  0.00  0.00     0.275 HD
ATOM     31  H   SER d   1      41.644 -51.481  -3.956  0.00  0.00     0.275 HD
ENDBRANCH  26  28
BRANCH  26  32
ATOM     32  CB  SER d   1      43.105 -53.155  -5.415  0.00  0.00     0.051 C 
ATOM     33  H   SER d   1      43.491 -52.573  -6.252  0.00  0.00     0.077 H 
ATOM     34  H   SER d   1      42.022 -53.270  -5.463  0.00  0.00     0.077 H 
BRANCH  32  35
ATOM     35  OG  SER d   1      43.692 -54.449  -5.465  0.00  0.00    -0.398 OA
ATOM     36  H   SER d   1      43.451 -54.877  -6.290  0.00  0.00     0.209 HD
ENDBRANCH  32  35
ENDBRANCH  26  32
ENDBRANCH  23  26
ENDBRANCH  20  22
BRANCH  20  37
ATOM     37  CB  ASP d   1      47.126 -50.595  -6.159  0.00  0.00     0.043 C 
ATOM     38  H   ASP d   1      48.005 -49.966  -6.298  0.00  0.00     0.052 H 
ATOM     39  H   ASP d   1      46.303 -50.325  -6.821  0.00  0.00     0.052 H 
BRANCH  37  40
ATOM     40  CG  ASP d   1      47.524 -52.024  -6.473  0.00  0.00     0.175 C 
ATOM     41  OD1 ASP d   1      48.178 -52.659  -5.624  0.00  0.00    -0.648 OA
ATOM     42  OD2 ASP d   1      47.194 -52.514  -7.573  0.00  0.00    -0.648 OA
ENDBRANCH  37  40
ENDBRANCH  20  37
ENDBRANCH  17  20
ENDBRANCH  13  16
ENDBRANCH  10  13
ENDBRANCH   7   9
BRANCH   7  43
ATOM     43  CB  PTR d   1      45.202 -43.901  -0.033  0.00  0.00    -0.014 C 
ATOM     44  H   PTR d   1      44.697 -43.596   0.883  0.00  0.00     0.043 H 
ATOM     45  H   PTR d   1      45.274 -43.104  -0.773  0.00  0.00     0.043 H 
BRANCH  43  46
ATOM     46  CG  PTR d   1      46.615 -44.311   0.338  0.00  0.00    -0.056 A 
ATOM     47  CD1 PTR d   1      46.833 -45.332   1.255  0.00  0.00    -0.074 A 
ATOM     48  CE1 PTR d   1      48.114 -45.724   1.589  0.00  0.00    -0.050 A 
ATOM     49  H   PTR d   1      45.981 -45.830   1.717  0.00  0.00     0.084 H 
ATOM     50  CZ  PTR d   1      49.200 -45.098   1.002  0.00  0.00     0.082 A 
ATOM     51  H   PTR d   1      48.270 -46.524   2.313  0.00  0.00     0.087 H 
ATOM     52  CE2 PTR d   1      49.019 -44.084   0.087  0.00  0.00    -0.050 A 
ATOM     53  CD2 PTR d   1      47.732 -43.696  -0.247  0.00  0.00    -0.074 A 
ATOM     54  H   PTR d   1      49.879 -43.593  -0.369  0.00  0.00     0.087 H 
ATOM     55  H   PTR d   1      47.585 -42.900  -0.977  0.00  0.00     0.084 H 
BRANCH  50  56
ATOM     56  OH  PTR d   1      50.326 -45.471   1.325  0.00  0.00    -0.240 OA
BRANCH  56  57
ATOM     57  P   PTR d   1      51.655 -44.653   0.939  0.00  0.00     0.427 P 
ATOM     58  O1P PTR d   1      51.905 -44.825  -0.502  0.00  0.00    -0.617 OA
ATOM     59  O2P PTR d   1      52.788 -45.268   1.769  0.00  0.00    -0.617 OA
ATOM     60  O3P PTR d   1      51.520 -43.146   1.258  0.00  0.00    -0.617 OA
ENDBRANCH  56  57
ENDBRANCH  50  56
ENDBRANCH  43  46
ENDBRANCH   7  43
ENDBRANCH   4   7
ENDBRANCH   1   3
BRANCH   1  61
ATOM     61  C   THR d   1      40.272 -44.145   1.191  0.00  0.00     0.245 C 
ATOM     62  O   THR d   1      41.067 -43.831   2.082  0.00  0.00    -0.271 OA
ATOM     63  N   PRO d   1      39.049 -43.587   1.091  0.00  0.00    -0.337 N 
ATOM     64  CA  PRO d   1      38.642 -42.660   2.149  0.00  0.00     0.091 C 
ATOM     65  CD  PRO d   1      37.939 -43.880   0.167  0.00  0.00    -0.001 C 
ATOM     66  CB  PRO d   1      37.289 -42.110   1.652  0.00  0.00    -0.036 C 
ATOM     67  H   PRO d   1      39.363 -41.868   2.350  0.00  0.00     0.087 H 
ATOM     68  CG  PRO d   1      37.112 -42.631   0.249  0.00  0.00    -0.048 C 
ATOM     69  H   PRO d   1      37.278 -41.020   1.670  0.00  0.00     0.036 H 
ATOM     70  H   PRO d   1      36.472 -42.434   2.297  0.00  0.00     0.036 H 
ATOM     71  H   PRO d   1      37.432 -41.896  -0.489  0.00  0.00     0.035 H 
ATOM     72  H   PRO d   1      36.064 -42.836   0.032  0.00  0.00     0.035 H 
ATOM     73  H   PRO d   1      37.384 -44.779   0.436  0.00  0.00     0.064 H 
ATOM     74  H   PRO d   1      38.274 -44.105  -0.846  0.00  0.00     0.064 H 
BRANCH  64  75
ATOM     75  C   PRO d   1      38.443 -43.459   3.430  0.00  0.00     0.241 C 
ATOM     76  O   PRO d   1      38.183 -44.672   3.382  0.00  0.00    -0.271 OA
ATOM     77  N   GLU d   1      38.588 -42.786   4.564  0.00  0.00    -0.346 N 
ATOM     78  H   GLU d   1      38.842 -41.799   4.525  0.00  0.00     0.163 HD
BRANCH  77  79
ATOM     79  CA  GLU d   1      38.396 -43.413   5.859  0.00  0.00     0.090 C 
ATOM     80  H   GLU d   1      39.131 -44.203   6.011  0.00  0.00     0.087 H 
BRANCH  79  81
ATOM     81  C   GLU d   1      36.996 -44.018   5.906  0.00  0.00     0.243 C 
ATOM     82  O   GLU d   1      36.017 -43.343   5.579  0.00  0.00    -0.271 OA
ATOM     83  N   PRO d   1      36.890 -45.295   6.305  0.00  0.00    -0.337 N 
ATOM     84  CA  PRO d   1      35.608 -46.020   6.368  0.00  0.00     0.091 C 
ATOM     85  CD  PRO d   1      37.985 -46.091   6.879  0.00  0.00    -0.001 C 
ATOM     86  CB  PRO d   1      35.969 -47.283   7.170  0.00  0.00    -0.036 C 
ATOM     87  H   PRO d   1      35.224 -46.190   5.362  0.00  0.00     0.087 H 
ATOM     88  CG  PRO d   1      37.263 -46.954   7.858  0.00  0.00    -0.048 C 
ATOM     89  H   PRO d   1      36.067 -48.156   6.524  0.00  0.00     0.036 H 
ATOM     90  H   PRO d   1      35.188 -47.543   7.884  0.00  0.00     0.036 H 
ATOM     91  H   PRO d   1      37.831 -47.847   8.118  0.00  0.00     0.035 H 
ATOM     92  H   PRO d   1      37.106 -46.453   8.813  0.00  0.00     0.035 H 
ATOM     93  H   PRO d   1      38.767 -45.483   7.335  0.00  0.00     0.064 H 
ATOM     94  H   PRO d   1      38.542 -46.658   6.133  0.00  0.00     0.064 H 
BRANCH  84  95
ATOM     95  C   PRO d   1      34.449 -45.269   7.063  0.00  0.00     0.241 C 
ATOM     96  O   PRO d   1      34.678 -44.427   7.939  0.00  0.00    -0.271 OA
ATOM     97  N   ALA d   1      33.216 -45.591   6.673  0.00  0.00    -0.345 N 
ATOM     98  H   ALA d   1      33.104 -46.274   5.924  0.00  0.00     0.163 HD
BRANCH  97  99
ATOM     99  CA  ALA d   1      32.012 -45.005   7.275  0.00  0.00     0.093 C 
ATOM    100  H   ALA d   1      31.906 -44.012   6.839  0.00  0.00     0.089 H 
BRANCH  99 101
ATOM    101  C   ALA d   1      32.115 -44.793   8.792  0.00  0.00     0.196 C 
ATOM    102  O   ALA d   1      31.535 -45.544   9.583  0.00  0.00    -0.646 OA
ATOM    103  O1  ALA d   1      32.803 -43.836   9.238  0.00  0.00    -0.646 OA
ENDBRANCH  99 101
BRANCH  99 104
ATOM    104  CB  ALA d   1      30.791 -45.860   6.943  0.00  0.00    -0.048 C 
ATOM    105  H   ALA d   1      30.665 -45.907   5.861  0.00  0.00     0.030 H 
ATOM    106  H   ALA d   1      30.936 -46.866   7.337  0.00  0.00     0.030 H 
ATOM    107  H   ALA d   1      29.904 -45.416   7.395  0.00  0.00     0.030 H 
ENDBRANCH  99 104
ENDBRANCH  97  99
ENDBRANCH  84  95
ENDBRANCH  79  81
BRANCH  79 108
ATOM    108  CB  GLU d   1      38.582 -42.371   6.971  0.00  0.00    -0.029 C 
ATOM    109  H   GLU d   1      38.958 -42.898   7.848  0.00  0.00     0.037 H 
ATOM    110  H   GLU d   1      37.618 -41.886   7.123  0.00  0.00     0.037 H 
BRANCH 108 111
ATOM    111  CG  GLU d   1      39.599 -41.266   6.633  0.00  0.00     0.018 C 
ATOM    112  H   GLU d   1      39.170 -40.650   5.842  0.00  0.00     0.049 H 
ATOM    113  H   GLU d   1      40.530 -41.750   6.338  0.00  0.00     0.049 H 
BRANCH 111 114
ATOM    114  CD  GLU d   1      39.903 -40.358   7.814  0.00  0.00     0.172 C 
ATOM    115  OE1 GLU d   1      40.059 -40.877   8.933  0.00  0.00    -0.648 OA
ATOM    116  OE2 GLU d   1      39.986 -39.125   7.623  0.00  0.00    -0.648 OA
ENDBRANCH 111 114
ENDBRANCH 108 111
ENDBRANCH  79 108
ENDBRANCH  77  79
ENDBRANCH  64  75
ENDBRANCH   1  61
BRANCH   1 117
ATOM    117  CB  THR d   1      39.935 -46.505   0.383  0.00  0.00     0.060 C 
ATOM    118  H   THR d   1      39.002 -46.299   0.907  0.00  0.00     0.086 H 
BRANCH 117 119
ATOM    119  OG1 THR d   1      40.780 -47.359   1.154  0.00  0.00    -0.393 OA
ATOM    120  H   THR d   1      41.593 -47.523   0.671  0.00  0.00     0.210 HD
ENDBRANCH 117 119
BRANCH 117 121
ATOM    121  CG2 THR d   1      39.654 -47.200  -0.927  0.00  0.00    -0.050 C 
ATOM    122  H   THR d   1      39.028 -46.560  -1.549  0.00  0.00     0.031 H 
ATOM    123  H   THR d   1      40.595 -47.400  -1.440  0.00  0.00     0.031 H 
ATOM    124  H   THR d   1      39.137 -48.140  -0.735  0.00  0.00     0.031 H 
ENDBRANCH 117 121
ENDBRANCH   1 117
TORSDOF 31
