REMARK  11 active torsions:
REMARK  status: ('A' for Active; 'I' for Inactive)
REMARK    1  A    between atoms: CG_4  and  CD_2 
REMARK    2  A    between atoms: CB_5  and  CG_4 
REMARK    3  A    between atoms: CA_33  and  CB_5 
REMARK    4  A    between atoms: CA_33  and  C_6 
REMARK       I    between atoms: CAU_10  and  N_9 
REMARK    5  A    between atoms: N_9  and  CA_33 
REMARK    6  A    between atoms: CAT_12  and  CAU_10 
REMARK    7  A    between atoms: NAY_20  and  CAR_15 
REMARK    8  A    between atoms: CAN_19  and  CAA_18 
REMARK    9  A    between atoms: CAN_19  and  NAY_20 
REMARK   10  A    between atoms: CAF_25  and  CAH_26 
REMARK   11  A    between atoms: CAH_26  and  CAI_27 
ROOT
ATOM      1  CAT T26 d   1     -10.948  29.486  53.228  0.00  0.00     0.034 C 
ATOM      2  CAS T26 d   1     -10.884  30.773  52.839  0.00  0.00    -0.042 C 
ATOM      3  CAQ T26 d   1     -12.250  28.793  53.104  0.00  0.00    -0.068 C 
ATOM      4  CAR T26 d   1     -11.962  31.414  52.241  0.00  0.00     0.029 C 
ATOM      5  CAO T26 d   1     -13.323  29.436  52.479  0.00  0.00    -0.080 C 
ATOM      6  CAP T26 d   1     -13.201  30.777  52.125  0.00  0.00    -0.058 C 
ATOM      7  H6  T26 d   1      -9.965  31.325  52.997  0.00  0.00     0.088 H 
ATOM      8  H7  T26 d   1     -12.371  27.790  53.497  0.00  0.00     0.085 H 
ATOM      9  H8  T26 d   1     -14.240  28.896  52.272  0.00  0.00     0.083 H 
ATOM     10  H9  T26 d   1     -14.063  31.325  51.761  0.00  0.00     0.086 H 
ENDROOT
BRANCH   4  11
ATOM     11  NAY T26 d   1     -11.773  32.767  51.723  0.00  0.00    -0.386 N 
ATOM     12  H12 T26 d   1     -10.821  33.075  51.478  0.00  0.00     0.160 HD
BRANCH  11  13
ATOM     13  CAN T26 d   1     -12.913  33.727  51.533  0.00  0.00     0.016 C 
ATOM     14  H10 T26 d   1     -12.492  34.706  51.260  0.00  0.00     0.071 H 
ATOM     15  H11 T26 d   1     -13.539  33.354  50.709  0.00  0.00     0.071 H 
BRANCH  13  16
ATOM     16  CAA T26 d   1     -13.775  33.914  52.712  0.00  0.00    -0.041 A 
ATOM     17  CAC T26 d   1     -13.206  34.179  53.949  0.00  0.00    -0.074 A 
ATOM     18  CAE T26 d   1     -14.016  34.320  55.063  0.00  0.00    -0.072 A 
ATOM     19  H13 T26 d   1     -12.130  34.275  54.043  0.00  0.00     0.084 H 
ATOM     20  CAF T26 d   1     -15.414  34.236  54.956  0.00  0.00    -0.035 A 
ATOM     21  H14 T26 d   1     -13.565  34.498  56.032  0.00  0.00     0.084 H 
ATOM     22  CAG T26 d   1     -15.971  33.972  53.711  0.00  0.00    -0.072 A 
ATOM     23  CAB T26 d   1     -15.153  33.820  52.586  0.00  0.00    -0.074 A 
ATOM     24  H16 T26 d   1     -17.047  33.883  53.610  0.00  0.00     0.084 H 
ATOM     25  H15 T26 d   1     -15.597  33.629  51.615  0.00  0.00     0.084 H 
BRANCH  20  26
ATOM     26  CAH T26 d   1     -16.216  34.391  56.191  0.00  0.00    -0.051 C 
ATOM     27  H17 T26 d   1     -15.648  34.444  57.118  0.00  0.00     0.087 H 
BRANCH  26  28
ATOM     28  CAI T26 d   1     -17.553  34.475  56.321  0.00  0.00     0.076 A 
ATOM     29  SBG T26 d   1     -18.789  34.334  55.090  0.00  0.00    -0.059 SA
ATOM     30  CAL T26 d   1     -19.965  34.657  56.330  0.00  0.00     0.126 A 
ATOM     31  SBH T26 d   1     -21.674  34.674  55.869  0.00  0.00    -0.025 SA
ATOM     32  NAX T26 d   1     -19.543  34.822  57.615  0.00  0.00    -0.310 N 
ATOM     33  CAK T26 d   1     -18.187  34.741  57.622  0.00  0.00     0.264 A 
ATOM     34  H18 T26 d   1     -20.128  34.975  58.412  0.00  0.00     0.170 HD
ATOM     35  OBE T26 d   1     -17.501  34.870  58.699  0.00  0.00    -0.267 OA
ENDBRANCH  26  28
ENDBRANCH  20  26
ENDBRANCH  13  16
ENDBRANCH  11  13
ENDBRANCH   4  11
BRANCH   1  36
ATOM     36  CAU T26 d   1      -9.760  28.778  53.744  0.00  0.00     0.252 C 
ATOM     37  N   T26 d   1      -8.535  29.154  53.357  0.00  0.00    -0.342 N 
ATOM     38  H5  T26 d   1      -8.423  30.055  52.937  0.00  0.00     0.163 HD
ATOM     39  OBC T26 d   1      -9.911  27.810  54.476  0.00  0.00    -0.268 OA
BRANCH  37  40
ATOM     40  CA  T26 d   1      -7.345  28.304  53.521  0.00  0.00     0.097 C 
ATOM     41  H19 T26 d   1      -7.455  27.663  54.408  0.00  0.00     0.089 H 
BRANCH  40  42
ATOM     42  CB  T26 d   1      -6.134  29.249  53.688  0.00  0.00    -0.028 C 
ATOM     43  H3  T26 d   1      -5.217  28.645  53.748  0.00  0.00     0.037 H 
ATOM     44  H4  T26 d   1      -6.078  29.914  52.814  0.00  0.00     0.037 H 
BRANCH  42  45
ATOM     45  CG  T26 d   1      -6.250  30.109  54.963  0.00  0.00     0.018 C 
ATOM     46  H1  T26 d   1      -7.272  30.512  55.021  0.00  0.00     0.049 H 
ATOM     47  H2  T26 d   1      -6.058  29.468  55.836  0.00  0.00     0.049 H 
BRANCH  45  48
ATOM     48  CD  T26 d   1      -5.268  31.274  54.993  0.00  0.00     0.172 C 
ATOM     49  OE2 T26 d   1      -5.331  32.181  54.134  0.00  0.00    -0.648 OA
ATOM     50  OE1 T26 d   1      -4.427  31.318  55.933  0.00  0.00    -0.648 OA
ENDBRANCH  45  48
ENDBRANCH  42  45
ENDBRANCH  40  42
BRANCH  40  51
ATOM     51  C   T26 d   1      -7.150  27.447  52.292  0.00  0.00     0.196 C 
ATOM     52  OXT T26 d   1      -7.198  27.970  51.127  0.00  0.00    -0.646 OA
ATOM     53  O   T26 d   1      -6.918  26.231  52.490  0.00  0.00    -0.646 OA
ENDBRANCH  40  51
ENDBRANCH  37  40
ENDBRANCH   1  36
TORSDOF 11
