REMARK  8 active torsions:
REMARK  status: ('A' for Active; 'I' for Inactive)
REMARK    1  A    between atoms: C2_2  and  C11_11 
REMARK    2  A    between atoms: C8_8  and  C10_10 
REMARK    3  A    between atoms: N14_14  and  C17_17 
REMARK    4  A    between atoms: C17_17  and  C18_18 
REMARK    5  A    between atoms: C18_18  and  N19_19 
REMARK    6  A    between atoms: N19_19  and  C20_20 
REMARK    7  A    between atoms: C21_21  and  O26_26 
REMARK    8  A    between atoms: O26_26  and  C27_27 
ROOT
ATOM      1  C1  849 d   1      28.843 -28.963 -78.677  0.00  0.00    -0.061 A 
ATOM      2  C2  849 d   1      28.216 -27.668 -78.482  0.00  0.00    -0.053 A 
ATOM      3  C3  849 d   1      28.316 -26.677 -79.513  0.00  0.00    -0.074 A 
ATOM      4  C4  849 d   1      29.010 -26.920 -80.716  0.00  0.00    -0.056 A 
ATOM      5  C5  849 d   1      29.549 -29.209 -79.897  0.00  0.00     0.032 A 
ATOM      6  C6  849 d   1      29.627 -28.187 -80.903  0.00  0.00     0.046 A 
ATOM      7  N7  849 d   1      30.360 -28.635 -81.994  0.00  0.00    -0.352 N 
ATOM      8  C8  849 d   1      30.772 -29.979 -81.679  0.00  0.00     0.085 A 
ATOM      9  C9  849 d   1      30.250 -30.312 -80.374  0.00  0.00     0.156 A 
ATOM     10  F28 849 d   1      30.405 -31.491 -79.701  0.00  0.00    -0.203 F 
ATOM     11  H   849 d   1      28.777 -29.733 -77.909  0.00  0.00     0.085 H 
ATOM     12  H   849 d   1      27.842 -25.707 -79.362  0.00  0.00     0.084 H 
ATOM     13  H   849 d   1      29.072 -26.152 -81.487  0.00  0.00     0.087 H 
ATOM     14  H   849 d   1      30.566 -28.116 -82.848  0.00  0.00     0.166 HD
ENDROOT
BRANCH   2  15
ATOM     15  C11 849 d   1      27.446 -27.352 -77.149  0.00  0.00    -0.025 C 
ATOM     16  C12 849 d   1      27.633 -28.382 -75.962  0.00  0.00    -0.033 C 
ATOM     17  C13 849 d   1      26.663 -29.617 -75.928  0.00  0.00     0.114 C 
ATOM     18  H   849 d   1      27.433 -27.822 -75.049  0.00  0.00     0.036 H 
ATOM     19  H   849 d   1      28.635 -28.794 -76.082  0.00  0.00     0.036 H 
ATOM     20  N14 849 d   1      25.203 -29.237 -76.201  0.00  0.00     0.090 N 
ATOM     21  H   849 d   1      26.713 -30.052 -74.930  0.00  0.00     0.079 H 
ATOM     22  H   849 d   1      26.978 -30.309 -76.709  0.00  0.00     0.079 H 
ATOM     23  C15 849 d   1      25.029 -28.393 -77.445  0.00  0.00     0.114 C 
ATOM     24  C16 849 d   1      25.907 -27.112 -77.376  0.00  0.00    -0.033 C 
ATOM     25  H   849 d   1      23.983 -28.096 -77.523  0.00  0.00     0.079 H 
ATOM     26  H   849 d   1      25.334 -28.980 -78.311  0.00  0.00     0.079 H 
ATOM     27  H   849 d   1      25.811 -26.619 -78.343  0.00  0.00     0.036 H 
ATOM     28  H   849 d   1      25.553 -26.541 -76.518  0.00  0.00     0.036 H 
ATOM     29  H   849 d   1      27.933 -26.431 -76.830  0.00  0.00     0.047 H 
BRANCH  20  30
ATOM     30  C17 849 d   1      24.270 -30.466 -76.217  0.00  0.00     0.135 C 
ATOM     31  H   849 d   1      23.292 -30.128 -76.559  0.00  0.00     0.082 H 
ATOM     32  H   849 d   1      24.262 -30.882 -75.210  0.00  0.00     0.082 H 
BRANCH  30  33
ATOM     33  C18 849 d   1      24.738 -31.593 -77.183  0.00  0.00     0.106 C 
ATOM     34  H   849 d   1      25.639 -32.045 -76.768  0.00  0.00     0.078 H 
ATOM     35  H   849 d   1      24.918 -31.149 -78.162  0.00  0.00     0.078 H 
BRANCH  33  36
ATOM     36  N19 849 d   1      23.703 -32.667 -77.338  0.00  0.00    -0.077 N 
ATOM     37  H   849 d   1      22.813 -32.198 -77.507  0.00  0.00     0.276 HD
ATOM     38  H   849 d   1      23.735 -33.233 -76.490  0.00  0.00     0.276 HD
BRANCH  36  39
ATOM     39  C20 849 d   1      23.928 -33.595 -78.487  0.00  0.00     0.065 C 
ATOM     40  H   849 d   1      23.932 -33.026 -79.417  0.00  0.00     0.067 H 
ATOM     41  H   849 d   1      24.887 -34.098 -78.364  0.00  0.00     0.067 H 
ATOM     42  H   849 d   1      23.129 -34.336 -78.516  0.00  0.00     0.067 H 
ENDBRANCH  36  39
ENDBRANCH  33  36
ENDBRANCH  30  33
ENDBRANCH  20  30
ENDBRANCH   2  15
BRANCH   8  43
ATOM     43  C10 849 d   1      31.570 -30.804 -82.564  0.00  0.00     0.027 A 
ATOM     44  C21 849 d   1      31.179 -31.023 -83.947  0.00  0.00     0.080 A 
ATOM     45  C22 849 d   1      32.011 -31.849 -84.795  0.00  0.00    -0.050 A 
ATOM     46  C23 849 d   1      33.198 -32.447 -84.292  0.00  0.00    -0.080 A 
ATOM     47  H   849 d   1      31.724 -32.015 -85.833  0.00  0.00     0.087 H 
ATOM     48  C24 849 d   1      33.583 -32.237 -82.946  0.00  0.00    -0.082 A 
ATOM     49  H   849 d   1      33.813 -33.068 -84.943  0.00  0.00     0.083 H 
ATOM     50  C25 849 d   1      32.790 -31.433 -82.095  0.00  0.00    -0.068 A 
ATOM     51  H   849 d   1      34.494 -32.697 -82.564  0.00  0.00     0.083 H 
ATOM     52  H   849 d   1      33.103 -31.282 -81.062  0.00  0.00     0.085 H 
BRANCH  44  53
ATOM     53  O26 849 d   1      29.980 -30.409 -84.412  0.00  0.00    -0.355 OA
BRANCH  53  54
ATOM     54  C27 849 d   1      29.273 -30.649 -85.663  0.00  0.00     0.010 C 
ATOM     55  H   849 d   1      29.931 -30.418 -86.501  0.00  0.00     0.066 H 
ATOM     56  H   849 d   1      28.972 -31.695 -85.714  0.00  0.00     0.066 H 
ATOM     57  H   849 d   1      28.389 -30.012 -85.707  0.00  0.00     0.066 H 
ENDBRANCH  53  54
ENDBRANCH  44  53
ENDBRANCH   8  43
TORSDOF 8
