REMARK  7 active torsions:
REMARK  status: ('A' for Active; 'I' for Inactive)
REMARK    1  A    between atoms: N1_1  and  C6_6 
REMARK    2  A    between atoms: C4_4  and  C15_15 
REMARK    3  A    between atoms: C10_10  and  C13_13 
REMARK    4  A    between atoms: C13_13  and  N14_14 
REMARK       I    between atoms: N14_14  and  C19_19 
REMARK    5  A    between atoms: C19_19  and  C20_20 
REMARK    6  A    between atoms: C20_20  and  N22_22 
REMARK    7  A    between atoms: C20_20  and  C23_23 
ROOT
ATOM      1  N1  845 d   1      30.429 -16.920 -22.699  0.00  0.00    -0.229 N 
ATOM      2  C2  845 d   1      31.609 -17.384 -23.343  0.00  0.00     0.116 A 
ATOM      3  C3  845 d   1      32.174 -16.299 -24.008  0.00  0.00    -0.016 A 
ATOM      4  C4  845 d   1      31.347 -15.191 -23.769  0.00  0.00     0.163 A 
ATOM      5  N5  845 d   1      30.288 -15.602 -22.965  0.00  0.00    -0.162 NA
ATOM      6  C12 845 d   1      32.167 -18.683 -23.379  0.00  0.00     0.222 A 
ATOM      7  N24 845 d   1      33.489 -19.056 -23.301  0.00  0.00    -0.119 NA
ATOM      8  N25 845 d   1      33.539 -20.400 -23.394  0.00  0.00    -0.121 NA
ATOM      9  C26 845 d   1      32.247 -20.887 -23.533  0.00  0.00     0.204 A 
ATOM     10  O27 845 d   1      31.423 -19.798 -23.515  0.00  0.00    -0.267 OA
ATOM     11  C28 845 d   1      31.803 -22.216 -23.681  0.00  0.00     0.031 A 
ATOM     12  C29 845 d   1      32.544 -23.106 -24.532  0.00  0.00    -0.068 A 
ATOM     13  C30 845 d   1      32.141 -24.467 -24.748  0.00  0.00    -0.080 A 
ATOM     14  C31 845 d   1      30.986 -24.994 -24.133  0.00  0.00    -0.056 A 
ATOM     15  C32 845 d   1      30.218 -24.147 -23.275  0.00  0.00     0.043 A 
ATOM     16  C33 845 d   1      30.601 -22.778 -23.042  0.00  0.00     0.006 A 
ATOM     17  C34 845 d   1      29.655 -22.243 -22.172  0.00  0.00    -0.055 A 
ATOM     18  C35 845 d   1      28.745 -23.260 -21.903  0.00  0.00    -0.022 A 
ATOM     19  N36 845 d   1      29.068 -24.452 -22.577  0.00  0.00    -0.365 N 
ATOM     20  H   845 d   1      33.087 -16.309 -24.603  0.00  0.00     0.090 H 
ATOM     21  H   845 d   1      33.441 -22.736 -25.029  0.00  0.00     0.085 H 
ATOM     22  H   845 d   1      32.739 -25.105 -25.399  0.00  0.00     0.083 H 
ATOM     23  H   845 d   1      30.685 -26.027 -24.309  0.00  0.00     0.086 H 
ATOM     24  H   845 d   1      29.632 -21.227 -21.779  0.00  0.00     0.087 H 
ATOM     25  H   845 d   1      27.882 -23.147 -21.247  0.00  0.00     0.111 H 
ATOM     26  H   845 d   1      28.566 -25.340 -22.555  0.00  0.00     0.165 HD
ENDROOT
BRANCH   1  27
ATOM     27  C6  845 d   1      29.618 -17.616 -21.968  0.00  0.00     0.059 A 
ATOM     28  C7  845 d   1      29.872 -17.723 -20.573  0.00  0.00    -0.055 A 
ATOM     29  C8  845 d   1      29.011 -18.474 -19.749  0.00  0.00    -0.080 A 
ATOM     30  H   845 d   1      30.737 -17.221 -20.139  0.00  0.00     0.087 H 
ATOM     31  C9  845 d   1      27.891 -19.131 -20.298  0.00  0.00    -0.075 A 
ATOM     32  H   845 d   1      29.212 -18.548 -18.680  0.00  0.00     0.083 H 
ATOM     33  C10 845 d   1      27.605 -19.048 -21.687  0.00  0.00    -0.038 A 
ATOM     34  H   845 d   1      27.236 -19.710 -19.648  0.00  0.00     0.084 H 
ATOM     35  C11 845 d   1      28.482 -18.281 -22.522  0.00  0.00    -0.048 A 
ATOM     36  H   845 d   1      28.280 -18.204 -23.590  0.00  0.00     0.087 H 
BRANCH  33  37
ATOM     37  C13 845 d   1      26.364 -19.784 -22.285  0.00  0.00     0.019 C 
ATOM     38  H   845 d   1      26.745 -20.716 -22.702  0.00  0.00     0.071 H 
ATOM     39  H   845 d   1      25.907 -19.078 -22.978  0.00  0.00     0.071 H 
BRANCH  37  40
ATOM     40  N14 845 d   1      25.287 -20.176 -21.340  0.00  0.00    -0.355 N 
ATOM     41  C19 845 d   1      24.549 -19.267 -20.629  0.00  0.00     0.248 C 
ATOM     42  O21 845 d   1      24.468 -18.072 -20.953  0.00  0.00    -0.271 OA
ATOM     43  H   845 d   1      25.088 -21.169 -21.215  0.00  0.00     0.162 HD
BRANCH  41  44
ATOM     44  C20 845 d   1      23.844 -19.770 -19.354  0.00  0.00     0.172 C 
ATOM     45  H   845 d   1      24.517 -19.590 -18.516  0.00  0.00     0.098 H 
BRANCH  44  46
ATOM     46  N22 845 d   1      22.571 -19.034 -19.156  0.00  0.00    -0.067 N 
ATOM     47  H   845 d   1      22.112 -19.373 -18.311  0.00  0.00     0.275 HD
ATOM     48  H   845 d   1      22.767 -18.038 -19.061  0.00  0.00     0.275 HD
ATOM     49  H   845 d   1      21.962 -19.187 -19.960  0.00  0.00     0.275 HD
ENDBRANCH  44  46
BRANCH  44  50
ATOM     50  C23 845 d   1      23.548 -21.288 -19.421  0.00  0.00    -0.042 C 
ATOM     51  H   845 d   1      22.901 -21.493 -20.274  0.00  0.00     0.030 H 
ATOM     52  H   845 d   1      24.484 -21.835 -19.533  0.00  0.00     0.030 H 
ATOM     53  H   845 d   1      23.051 -21.601 -18.503  0.00  0.00     0.030 H 
ENDBRANCH  44  50
ENDBRANCH  41  44
ENDBRANCH  37  40
ENDBRANCH  33  37
ENDBRANCH   1  27
BRANCH   4  54
ATOM     54  C15 845 d   1      31.551 -13.758 -24.303  0.00  0.00     0.436 C 
ATOM     55  F16 845 d   1      32.862 -13.501 -24.574  0.00  0.00    -0.165 F 
ATOM     56  F17 845 d   1      31.110 -12.846 -23.387  0.00  0.00    -0.165 F 
ATOM     57  F18 845 d   1      30.849 -13.586 -25.442  0.00  0.00    -0.165 F 
ENDBRANCH   4  54
TORSDOF 7
