REMARK  5 active torsions:
REMARK  status: ('A' for Active; 'I' for Inactive)
REMARK       I    between atoms: C5_2  and  N4_3 
REMARK    1  A    between atoms: C5_2  and  C7_8 
REMARK    2  A    between atoms: N4_3  and  C3_4 
REMARK    3  A    between atoms: C3_4  and  B_5 
REMARK    4  A    between atoms: B_5  and  O2_6 
REMARK    5  A    between atoms: B_5  and  O1_7 
ROOT
ATOM      1  O6  ZA2 d   1      87.681  69.007  62.862  0.00  0.00    -0.268 OA
ATOM      2  C5  ZA2 d   1      87.654  68.258  61.898  0.00  0.00     0.252 C 
ATOM      3  N4  ZA2 d   1      86.514  68.073  61.155  0.00  0.00    -0.360 N 
ATOM      4  H   ZA2 d   1      86.570  67.329  60.460  0.00  0.00     0.161 HD
ENDROOT
BRANCH   2   5
ATOM      5  C7  ZA2 d   1      88.864  67.386  61.524  0.00  0.00     0.053 C 
ATOM      6  C14 ZA2 d   1      89.746  66.916  62.498  0.00  0.00     0.049 C 
ATOM      7 CL   ZA2 d   1      89.213  66.792  64.170  0.00  0.00    -0.083 Cl
ATOM      8  C13 ZA2 d   1      91.003  66.395  62.201  0.00  0.00    -0.061 C 
ATOM      9  C12 ZA2 d   1      91.465  66.437  60.891  0.00  0.00    -0.081 C 
ATOM     10  H   ZA2 d   1      91.618  65.959  62.988  0.00  0.00     0.086 H 
ATOM     11  C11 ZA2 d   1      90.641  66.981  59.910  0.00  0.00    -0.082 C 
ATOM     12  H   ZA2 d   1      92.453  66.052  60.637  0.00  0.00     0.083 H 
ATOM     13  C8  ZA2 d   1      89.395  67.517  60.240  0.00  0.00    -0.066 C 
ATOM     14  H   ZA2 d   1      90.973  66.989  58.872  0.00  0.00     0.083 H 
ATOM     15  H   ZA2 d   1      88.825  68.049  59.479  0.00  0.00     0.085 H 
ENDBRANCH   2   5
BRANCH   3  16
ATOM     16  C3  ZA2 d   1      85.229  68.777  61.204  0.00  0.00     0.030 C 
ATOM     17  H   ZA2 d   1      85.425  69.849  61.165  0.00  0.00     0.057 H 
ATOM     18  H   ZA2 d   1      84.717  68.489  62.122  0.00  0.00     0.057 H 
BRANCH  16  19
ATOM     19  B   ZA2 d   1      84.306  68.402  59.988  0.00  0.00     0.510 B 
BRANCH  19  20
ATOM     20  O2  ZA2 d   1      83.060  69.300  59.936  0.00  0.00    -0.436 OA
ATOM     21  H   ZA2 d   1      82.502  69.029  59.203  0.00  0.00     0.184 HD
ENDBRANCH  19  20
BRANCH  19  22
ATOM     22  O1  ZA2 d   1      85.097  68.526  58.673  0.00  0.00    -0.436 OA
ATOM     23  H   ZA2 d   1      85.369  69.438  58.549  0.00  0.00     0.184 HD
ENDBRANCH  19  22
ENDBRANCH  16  19
ENDBRANCH   3  16
TORSDOF 5
