REMARK  6 active torsions:
REMARK  status: ('A' for Active; 'I' for Inactive)
REMARK       I    between atoms: C5_2  and  N4_3 
REMARK    1  A    between atoms: C5_2  and  C7_8 
REMARK    2  A    between atoms: N4_3  and  C3_4 
REMARK    3  A    between atoms: C3_4  and  B_5 
REMARK    4  A    between atoms: B_5  and  O2_6 
REMARK    5  A    between atoms: B_5  and  O1_7 
REMARK    6  A    between atoms: C14_9  and  N15_10 
ROOT
ATOM      1  C7  ZA3 d   1       9.956   8.336  42.170  0.00  0.00     0.065 C 
ATOM      2  C14 ZA3 d   1      10.277   7.318  43.073  0.00  0.00     0.118 C 
ATOM      3  C8  ZA3 d   1       9.960   9.652  42.631  0.00  0.00    -0.065 C 
ATOM      4  C11 ZA3 d   1      10.613   9.975  43.821  0.00  0.00    -0.082 C 
ATOM      5  C12 ZA3 d   1      11.104   8.963  44.647  0.00  0.00    -0.081 C 
ATOM      6  C13 ZA3 d   1      10.942   7.637  44.256  0.00  0.00    -0.050 C 
ATOM      7  H   ZA3 d   1       9.452  10.430  42.061  0.00  0.00     0.085 H 
ATOM      8  H   ZA3 d   1      10.740  11.019  44.106  0.00  0.00     0.083 H 
ATOM      9  H   ZA3 d   1      11.606   9.207  45.583  0.00  0.00     0.083 H 
ATOM     10  H   ZA3 d   1      11.340   6.838  44.882  0.00  0.00     0.087 H 
ENDROOT
BRANCH   1  11
ATOM     11  C5  ZA3 d   1       9.132   8.047  40.908  0.00  0.00     0.253 C 
ATOM     12  O6  ZA3 d   1       8.279   7.165  40.963  0.00  0.00    -0.268 OA
ATOM     13  N4  ZA3 d   1       9.551   8.660  39.747  0.00  0.00    -0.360 N 
ATOM     14  H   ZA3 d   1      10.434   9.163  39.834  0.00  0.00     0.161 HD
BRANCH  13  15
ATOM     15  C3  ZA3 d   1       8.996   8.714  38.504  0.00  0.00     0.030 C 
ATOM     16  H   ZA3 d   1       7.926   8.538  38.609  0.00  0.00     0.057 H 
ATOM     17  H   ZA3 d   1       9.490   7.964  37.886  0.00  0.00     0.057 H 
BRANCH  15  18
ATOM     18  B   ZA3 d   1       9.187  10.110  37.810  0.00  0.00     0.510 B 
BRANCH  18  19
ATOM     19  O2  ZA3 d   1       8.342  10.141  36.526  0.00  0.00    -0.436 OA
ATOM     20  H   ZA3 d   1       8.597   9.410  35.959  0.00  0.00     0.184 HD
ENDBRANCH  18  19
BRANCH  18  21
ATOM     21  O1  ZA3 d   1       8.818  11.264  38.757  0.00  0.00    -0.436 OA
ATOM     22  H   ZA3 d   1       7.892  11.193  39.001  0.00  0.00     0.184 HD
ENDBRANCH  18  21
ENDBRANCH  15  18
ENDBRANCH  13  15
ENDBRANCH   1  11
BRANCH   2  23
ATOM     23  N15 ZA3 d   1      10.180   5.918  42.689  0.00  0.00    -0.115 N 
ATOM     24  O16 ZA3 d   1      10.175   5.190  41.428  0.00  0.00    -0.532 OA
ATOM     25  O17 ZA3 d   1      10.074   4.803  43.641  0.00  0.00    -0.532 OA
ENDBRANCH   2  23
TORSDOF 6
