REMARK  5 active torsions:
REMARK  status: ('A' for Active; 'I' for Inactive)
REMARK    1  A    between atoms: C7_8  and  C5_9 
REMARK       I    between atoms: C5_9  and  N4_11 
REMARK    2  A    between atoms: N4_11  and  C3_12 
REMARK    3  A    between atoms: C3_12  and  B_13 
REMARK    4  A    between atoms: B_13  and  O1_14 
REMARK    5  A    between atoms: B_13  and  O2_15 
ROOT
ATOM      1  C5  ZA5 d   1      -8.891   8.261   8.067  0.00  0.00     0.257 C 
ATOM      2  O6  ZA5 d   1      -7.928   7.524   8.049  0.00  0.00    -0.267 OA
ATOM      3  N4  ZA5 d   1      -9.376   8.945   9.174  0.00  0.00    -0.360 N 
ATOM      4  H   ZA5 d   1     -10.259   9.446   9.075  0.00  0.00     0.161 HD
ENDROOT
BRANCH   1   5
ATOM      5  C7  ZA5 d   1      -9.648   8.391   6.744  0.00  0.00     0.108 A 
ATOM      6  C14 ZA5 d   1      -9.921   7.209   6.069  0.00  0.00     0.135 A 
ATOM      7  F15 ZA5 d   1      -9.645   6.047   6.697  0.00  0.00    -0.205 F 
ATOM      8  C13 ZA5 d   1     -10.539   7.285   4.812  0.00  0.00    -0.044 A 
ATOM      9  C12 ZA5 d   1     -10.819   8.522   4.192  0.00  0.00    -0.077 A 
ATOM     10  H   ZA5 d   1     -10.811   6.362   4.299  0.00  0.00     0.088 H 
ATOM     11  C11 ZA5 d   1     -10.496   9.696   4.855  0.00  0.00    -0.044 A 
ATOM     12  H   ZA5 d   1     -11.283   8.554   3.206  0.00  0.00     0.083 H 
ATOM     13  C8  ZA5 d   1      -9.881   9.633   6.118  0.00  0.00     0.135 A 
ATOM     14  H   ZA5 d   1     -10.717  10.662   4.400  0.00  0.00     0.088 H 
ATOM     15  F9  ZA5 d   1      -9.569  10.779   6.764  0.00  0.00    -0.205 F 
ENDBRANCH   1   5
BRANCH   3  16
ATOM     16  C3  ZA5 d   1      -8.743   8.991  10.397  0.00  0.00     0.030 C 
ATOM     17  H   ZA5 d   1      -7.670   8.875  10.246  0.00  0.00     0.057 H 
ATOM     18  H   ZA5 d   1      -9.127   8.188  11.026  0.00  0.00     0.057 H 
BRANCH  16  19
ATOM     19  B   ZA5 d   1      -9.015  10.371  11.105  0.00  0.00     0.510 B 
BRANCH  19  20
ATOM     20  O1  ZA5 d   1      -8.858  11.582  10.165  0.00  0.00    -0.436 OA
ATOM     21  H   ZA5 d   1      -7.938  11.666   9.904  0.00  0.00     0.184 HD
ENDBRANCH  19  20
BRANCH  19  22
ATOM     22  O2  ZA5 d   1      -8.164  10.520  12.376  0.00  0.00    -0.436 OA
ATOM     23  H   ZA5 d   1      -8.288   9.749  12.935  0.00  0.00     0.184 HD
ENDBRANCH  19  22
ENDBRANCH  16  19
ENDBRANCH   3  16
TORSDOF 5
