REMARK  8 active torsions:
REMARK  status: ('A' for Active; 'I' for Inactive)
REMARK    1  A    between atoms: O2_1  and  B_2 
REMARK    2  A    between atoms: B_2  and  O1_3 
REMARK    3  A    between atoms: B_2  and  C3_4 
REMARK    4  A    between atoms: C3_4  and  C16_5 
REMARK    5  A    between atoms: C3_4  and  N4_6 
REMARK       I    between atoms: N4_6  and  C5_7 
REMARK    6  A    between atoms: C5_7  and  C7_9 
REMARK    7  A    between atoms: C8_14  and  C9_15 
REMARK    8  A    between atoms: C9_15  and  C10_16 
ROOT
ATOM      1  C7  E07 d   1       4.314   8.784 -10.144  0.00  0.00     0.038 A 
ATOM      2  C14 E07 d   1       4.014   9.409  -8.933  0.00  0.00    -0.067 A 
ATOM      3  C13 E07 d   1       2.686   9.779  -8.704  0.00  0.00    -0.082 A 
ATOM      4  C12 E07 d   1       1.683   9.559  -9.667  0.00  0.00    -0.082 A 
ATOM      5  C11 E07 d   1       1.993   8.956 -10.888  0.00  0.00    -0.076 A 
ATOM      6  C8  E07 d   1       3.320   8.577 -11.109  0.00  0.00    -0.038 A 
ATOM      7  H   E07 d   1       4.789   9.602  -8.191  0.00  0.00     0.085 H 
ATOM      8  H   E07 d   1       2.421  10.249  -7.757  0.00  0.00     0.083 H 
ATOM      9  H   E07 d   1       0.657   9.861  -9.458  0.00  0.00     0.083 H 
ATOM     10  H   E07 d   1       1.226   8.787 -11.643  0.00  0.00     0.084 H 
ENDROOT
BRANCH   1  11
ATOM     11  C5  E07 d   1       5.660   8.177 -10.372  0.00  0.00     0.251 C 
ATOM     12  N4  E07 d   1       6.719   9.135 -10.634  0.00  0.00    -0.356 N 
ATOM     13  H   E07 d   1       6.474  10.123 -10.562  0.00  0.00     0.162 HD
ATOM     14  O6  E07 d   1       5.794   6.951 -10.383  0.00  0.00    -0.268 OA
BRANCH  12  15
ATOM     15  C3  E07 d   1       8.103   8.823 -10.991  0.00  0.00     0.043 C 
ATOM     16  H   E07 d   1       8.128   8.085 -11.793  0.00  0.00     0.064 H 
BRANCH  15  17
ATOM     17  B   E07 d   1       8.703  10.025 -11.458  0.00  0.00     0.514 B 
BRANCH  17  18
ATOM     18  O2  E07 d   1       8.111  10.348 -12.858  0.00  0.00    -0.436 OA
ATOM     19  H   E07 d   1       8.226   9.590 -13.436  0.00  0.00     0.184 HD
ENDBRANCH  17  18
BRANCH  17  20
ATOM     20  O1  E07 d   1       8.496  11.284 -10.547  0.00  0.00    -0.436 OA
ATOM     21  H   E07 d   1       7.558  11.476 -10.476  0.00  0.00     0.184 HD
ENDBRANCH  17  20
ENDBRANCH  15  17
BRANCH  15  22
ATOM     22  C16 E07 d   1       8.870   8.110  -9.889  0.00  0.00    -0.060 C 
ATOM     23  H   E07 d   1       8.897   8.741  -9.000  0.00  0.00     0.029 H 
ATOM     24  H   E07 d   1       8.374   7.168  -9.653  0.00  0.00     0.029 H 
ATOM     25  H   E07 d   1       9.887   7.912 -10.226  0.00  0.00     0.029 H 
ENDBRANCH  15  22
ENDBRANCH  12  15
ENDBRANCH   1  11
BRANCH   6  26
ATOM     26  C9  E07 d   1       3.677   7.903 -12.400  0.00  0.00    -0.016 C 
ATOM     27  H   E07 d   1       2.936   7.137 -12.629  0.00  0.00     0.047 H 
ATOM     28  H   E07 d   1       4.659   7.439 -12.310  0.00  0.00     0.047 H 
BRANCH  26  29
ATOM     29  C10 E07 d   1       3.702   8.919 -13.497  0.00  0.00    -0.054 A 
ATOM     30  C21 E07 d   1       2.632   8.951 -14.408  0.00  0.00    -0.077 A 
ATOM     31  C20 E07 d   1       2.676   9.810 -15.513  0.00  0.00    -0.082 A 
ATOM     32  H   E07 d   1       1.767   8.306 -14.254  0.00  0.00     0.084 H 
ATOM     33  C19 E07 d   1       3.796  10.644 -15.661  0.00  0.00    -0.083 A 
ATOM     34  H   E07 d   1       1.863   9.831 -16.239  0.00  0.00     0.083 H 
ATOM     35  C18 E07 d   1       4.871  10.653 -14.746  0.00  0.00    -0.082 A 
ATOM     36  H   E07 d   1       3.837  11.314 -16.520  0.00  0.00     0.083 H 
ATOM     37  C17 E07 d   1       4.857   9.830 -13.624  0.00  0.00    -0.077 A 
ATOM     38  H   E07 d   1       5.721  11.312 -14.920  0.00  0.00     0.083 H 
ATOM     39  H   E07 d   1       5.654   9.856 -12.881  0.00  0.00     0.084 H 
ENDBRANCH  26  29
ENDBRANCH   6  26
TORSDOF 8
