REMARK  7 active torsions:
REMARK  status: ('A' for Active; 'I' for Inactive)
REMARK    1  A    between atoms: C8_6  and  C10_7 
REMARK    2  A    between atoms: C7_13  and  C5_14 
REMARK       I    between atoms: C5_14  and  N4_16 
REMARK    3  A    between atoms: N4_16  and  C3_17 
REMARK    4  A    between atoms: C3_17  and  C16_18 
REMARK    5  A    between atoms: C3_17  and  B_19 
REMARK    6  A    between atoms: B_19  and  O1_20 
REMARK    7  A    between atoms: B_19  and  O2_21 
ROOT
ATOM      1  F15 Z10 d   1      43.454  66.484  42.061  0.00  0.00    -0.205 F 
ATOM      2  C14 Z10 d   1      44.364  66.041  41.172  0.00  0.00     0.133 A 
ATOM      3  C13 Z10 d   1      45.616  65.642  41.633  0.00  0.00    -0.045 A 
ATOM      4  C12 Z10 d   1      46.580  65.180  40.740  0.00  0.00    -0.079 A 
ATOM      5  C11 Z10 d   1      46.300  65.134  39.379  0.00  0.00    -0.071 A 
ATOM      6  C8  Z10 d   1      45.052  65.555  38.915  0.00  0.00    -0.007 A 
ATOM      7  C7  Z10 d   1      44.079  65.983  39.806  0.00  0.00     0.081 A 
ATOM      8  H   Z10 d   1      45.843  65.692  42.698  0.00  0.00     0.088 H 
ATOM      9  H   Z10 d   1      47.553  64.855  41.108  0.00  0.00     0.083 H 
ATOM     10  H   Z10 d   1      47.051  64.771  38.677  0.00  0.00     0.084 H 
ENDROOT
BRANCH   7  11
ATOM     11  C5  Z10 d   1      42.766  66.457  39.249  0.00  0.00     0.255 C 
ATOM     12  O6  Z10 d   1      42.712  67.609  38.838  0.00  0.00    -0.268 OA
ATOM     13  N4  Z10 d   1      41.738  65.615  39.176  0.00  0.00    -0.356 N 
ATOM     14  H   Z10 d   1      41.868  64.669  39.533  0.00  0.00     0.162 HD
BRANCH  13  15
ATOM     15  C3  Z10 d   1      40.428  65.964  38.613  0.00  0.00     0.043 C 
ATOM     16  H   Z10 d   1      40.553  66.715  37.833  0.00  0.00     0.064 H 
BRANCH  15  17
ATOM     17  C16 Z10 d   1      39.552  66.553  39.716  0.00  0.00    -0.060 C 
ATOM     18  H   Z10 d   1      39.426  65.817  40.510  0.00  0.00     0.029 H 
ATOM     19  H   Z10 d   1      40.029  67.447  40.119  0.00  0.00     0.029 H 
ATOM     20  H   Z10 d   1      38.577  66.814  39.304  0.00  0.00     0.029 H 
ENDBRANCH  15  17
BRANCH  15  21
ATOM     21  B   Z10 d   1      39.793  64.781  37.962  0.00  0.00     0.514 B 
BRANCH  21  22
ATOM     22  O1  Z10 d   1      40.092  63.461  38.738  0.00  0.00    -0.436 OA
ATOM     23  H   Z10 d   1      41.042  63.332  38.794  0.00  0.00     0.184 HD
ENDBRANCH  21  22
BRANCH  21  24
ATOM     24  O2  Z10 d   1      40.407  64.632  36.546  0.00  0.00    -0.436 OA
ATOM     25  H   Z10 d   1      40.240  65.431  36.040  0.00  0.00     0.184 HD
ENDBRANCH  21  24
ENDBRANCH  15  21
ENDBRANCH  13  15
ENDBRANCH   7  11
BRANCH   6  26
ATOM     26  C10 Z10 d   1      44.740  65.417  37.475  0.00  0.00    -0.025 A 
ATOM     27  C21 Z10 d   1      45.410  66.177  36.518  0.00  0.00    -0.072 A 
ATOM     28  C20 Z10 d   1      45.127  65.988  35.165  0.00  0.00    -0.082 A 
ATOM     29  H   Z10 d   1      46.151  66.915  36.825  0.00  0.00     0.084 H 
ATOM     30  C19 Z10 d   1      44.188  65.033  34.772  0.00  0.00    -0.083 A 
ATOM     31  H   Z10 d   1      45.640  66.588  34.413  0.00  0.00     0.083 H 
ATOM     32  C18 Z10 d   1      43.548  64.253  35.730  0.00  0.00    -0.082 A 
ATOM     33  H   Z10 d   1      43.956  64.898  33.715  0.00  0.00     0.083 H 
ATOM     34  C17 Z10 d   1      43.841  64.428  37.080  0.00  0.00    -0.072 A 
ATOM     35  H   Z10 d   1      42.817  63.505  35.424  0.00  0.00     0.083 H 
ATOM     36  H   Z10 d   1      43.367  63.792  37.828  0.00  0.00     0.084 H 
ENDBRANCH   6  26
TORSDOF 7
