REMARK  4 active torsions:
REMARK  status: ('A' for Active; 'I' for Inactive)
REMARK    1  A    between atoms: C16_2  and  C15_4 
REMARK    2  A    between atoms: C15_4  and  N14_5 
REMARK       I    between atoms: N14_5  and  C12_6 
REMARK    3  A    between atoms: C12_6  and  C9_8 
REMARK    4  A    between atoms: C10_13  and  O19_14 
ROOT
ATOM      1  C9  UN9 d   1      40.129 -19.531   1.674  0.00  0.00     0.160 A 
ATOM      2  N8  UN9 d   1      40.805 -20.674   1.489  0.00  0.00    -0.227 NA
ATOM      3  C7  UN9 d   1      42.028 -20.883   1.996  0.00  0.00     0.138 A 
ATOM      4 CL1  UN9 d   1      42.723 -22.456   1.757  0.00  0.00    -0.061 Cl
ATOM      5  C2  UN9 d   1      42.651 -19.878   2.736  0.00  0.00     0.018 A 
ATOM      6  C10 UN9 d   1      40.696 -18.499   2.414  0.00  0.00     0.111 A 
ATOM      7  C3  UN9 d   1      41.971 -18.678   2.940  0.00  0.00     0.013 A 
ATOM      8  C4  UN9 d   1      42.553 -17.650   3.673  0.00  0.00    -0.069 A 
ATOM      9  C5  UN9 d   1      43.825 -17.811   4.214  0.00  0.00    -0.082 A 
ATOM     10  C6  UN9 d   1      44.506 -19.007   4.010  0.00  0.00    -0.082 A 
ATOM     11  C1  UN9 d   1      43.924 -20.039   3.276  0.00  0.00    -0.069 A 
ATOM     12  H5  UN9 d   1      42.015 -16.721   3.823  0.00  0.00     0.085 H 
ATOM     13  H6  UN9 d   1      44.281 -17.013   4.788  0.00  0.00     0.083 H 
ATOM     14  H7  UN9 d   1      45.498 -19.137   4.426  0.00  0.00     0.083 H 
ATOM     15  H8  UN9 d   1      44.463 -20.968   3.126  0.00  0.00     0.085 H 
ENDROOT
BRANCH   1  16
ATOM     16  C12 UN9 d   1      38.719 -19.449   1.092  0.00  0.00     0.273 C 
ATOM     17  N14 UN9 d   1      37.918 -18.516   1.593  0.00  0.00    -0.346 N 
ATOM     18  H3  UN9 d   1      38.249 -17.904   2.311  0.00  0.00     0.163 HD
ATOM     19  O13 UN9 d   1      38.374 -20.233   0.206  0.00  0.00    -0.266 OA
BRANCH  17  20
ATOM     20  C15 UN9 d   1      36.544 -18.385   1.089  0.00  0.00     0.075 C 
ATOM     21  H1  UN9 d   1      36.572 -18.098   0.028  0.00  0.00     0.080 H 
ATOM     22  H2  UN9 d   1      36.025 -19.349   1.194  0.00  0.00     0.080 H 
BRANCH  20  23
ATOM     23  C16 UN9 d   1      35.790 -17.317   1.881  0.00  0.00     0.191 C 
ATOM     24  O18 UN9 d   1      36.388 -16.770   2.830  0.00  0.00    -0.647 OA
ATOM     25  O17 UN9 d   1      34.620 -17.078   1.511  0.00  0.00    -0.647 OA
ENDBRANCH  20  23
ENDBRANCH  17  20
ENDBRANCH   1  16
BRANCH   6  26
ATOM     26  O19 UN9 d   1      40.020 -17.344   2.663  0.00  0.00    -0.357 OA
ATOM     27  H4  UN9 d   1      39.800 -16.924   1.840  0.00  0.00     0.217 HD
ENDBRANCH   6  26
TORSDOF 4
