REMARK WARNING: 32 MAX_TORS EXCEEDED!!!
REMARK  42 active torsions:
REMARK  status: ('A' for Active; 'I' for Inactive)
REMARK    1  A    between atoms: N_1  and  CA_2 
REMARK    2  A    between atoms: CA_2  and  C_3 
REMARK    3  A    between atoms: CA_2  and  CB_5 
REMARK       I    between atoms: C_3  and  N_9 
REMARK    4  A    between atoms: CB_5  and  CG_6 
REMARK    5  A    between atoms: N_9  and  CA_10 
REMARK    6  A    between atoms: CA_10  and  C_11 
REMARK    7  A    between atoms: CA_10  and  CB_13 
REMARK       I    between atoms: C_11  and  N_17 
REMARK    8  A    between atoms: CB_13  and  CG_14 
REMARK    9  A    between atoms: CG_14  and  CD1_15 
REMARK   10  A    between atoms: CG_14  and  CD2_16 
REMARK   11  A    between atoms: N_17  and  CA_18 
REMARK   12  A    between atoms: CA_18  and  C_19 
REMARK   13  A    between atoms: CA_18  and  CB_21 
REMARK       I    between atoms: C_19  and  N_31 
REMARK   14  A    between atoms: CB_21  and  CG_22 
REMARK   15  A    between atoms: N_31  and  CA_32 
REMARK   16  A    between atoms: CA_32  and  C_33 
REMARK   17  A    between atoms: CA_32  and  CB_35 
REMARK       I    between atoms: C_33  and  N_38 
REMARK   18  A    between atoms: CB_35  and  OG1_36 
REMARK   19  A    between atoms: CB_35  and  CG2_37 
REMARK   20  A    between atoms: N_38  and  CA_39 
REMARK   21  A    between atoms: CA_39  and  C_40 
REMARK   22  A    between atoms: CA_39  and  CB_42 
REMARK       I    between atoms: C_40  and  N_45 
REMARK   23  A    between atoms: CB_42  and  OG1_43 
REMARK   24  A    between atoms: CB_42  and  CG2_44 
REMARK   25  A    between atoms: N_45  and  CA_46 
REMARK   26  A    between atoms: CA_46  and  C_47 
REMARK   27  A    between atoms: CA_46  and  CB_49 
REMARK       I    between atoms: C_47  and  N_50 
REMARK   28  A    between atoms: N_50  and  CA_51 
REMARK   29  A    between atoms: CA_51  and  C_52 
REMARK   30  A    between atoms: CA_51  and  CB_54 
REMARK       I    between atoms: C_52  and  N_58 
REMARK   31  A    between atoms: CB_54  and  CG1_55 
REMARK   32  A    between atoms: CB_54  and  CG2_56 
REMARK   33  A    between atoms: CG1_55  and  CD1_57 
REMARK   34  A    between atoms: CA_59  and  C_60 
REMARK       I    between atoms: C_60  and  N_65 
REMARK   35  A    between atoms: N_65  and  CA_66 
REMARK   36  A    between atoms: CA_66  and  C_67 
REMARK       I    between atoms: C_67  and  N_69 
REMARK   37  A    between atoms: N_69  and  CA_70 
REMARK   38  A    between atoms: CA_70  and  C_71 
REMARK   39  A    between atoms: CA_70  and  CB_73 
REMARK       I    between atoms: C_71  and  N_77 
REMARK   40  A    between atoms: CB_73  and  CG1_74 
REMARK   41  A    between atoms: CB_73  and  CG2_75 
REMARK   42  A    between atoms: CG1_74  and  CD1_76 
ROOT
ATOM      1  CA  THR d   1       8.032  -0.811 -46.519  0.00  0.00     0.113 C 
ATOM      2  H   THR d   1       8.225  -1.611 -45.805  0.00  0.00     0.091 H 
ENDROOT
BRANCH   1   3
ATOM      3  N   THR d   1       6.568  -0.847 -46.564  0.00  0.00    -0.344 N 
ATOM      4  C   THR d   1       5.705   0.167 -46.671  0.00  0.00     0.243 C 
ATOM      5  O   THR d   1       6.010   1.363 -46.725  0.00  0.00    -0.271 OA
ATOM      6  H   THR d   1       6.150  -1.775 -46.505  0.00  0.00     0.163 HD
BRANCH   4   7
ATOM      7  CA  THR d   1       4.258  -0.341 -46.664  0.00  0.00     0.113 C 
ATOM      8  H   THR d   1       3.970  -0.430 -45.616  0.00  0.00     0.091 H 
BRANCH   7   9
ATOM      9  N   THR d   1       3.030   0.486 -46.829  0.00  0.00    -0.344 N 
ATOM     10  C   TRP d   1       1.943   0.314 -47.607  0.00  0.00     0.241 C 
ATOM     11  O   TRP d   1       1.780  -0.590 -48.428  0.00  0.00    -0.271 OA
ATOM     12  H   THR d   1       3.008   1.328 -46.254  0.00  0.00     0.163 HD
BRANCH  10  13
ATOM     13  CA  TRP d   1       0.855   1.370 -47.366  0.00  0.00     0.093 C 
ATOM     14  H   TRP d   1       0.204   0.999 -46.574  0.00  0.00     0.088 H 
BRANCH  13  15
ATOM     15  N   TRP d   1       1.434   2.612 -46.873  0.00  0.00    -0.346 N 
ATOM     16  C   LEU d   1       1.872   3.640 -47.591  0.00  0.00     0.241 C 
ATOM     17  O   LEU d   1       1.835   3.693 -48.827  0.00  0.00    -0.271 OA
ATOM     18  H   TRP d   1       1.512   2.703 -45.860  0.00  0.00     0.163 HD
BRANCH  16  19
ATOM     19  CA  LEU d   1       2.499   4.762 -46.737  0.00  0.00     0.089 C 
ATOM     20  H   LEU d   1       3.474   4.833 -47.219  0.00  0.00     0.087 H 
BRANCH  19  21
ATOM     21  N   LEU d   1       2.115   6.167 -46.841  0.00  0.00    -0.346 N 
ATOM     22  C   ASP d   1       3.070   7.101 -46.858  0.00  0.00     0.249 C 
ATOM     23  O   ASP d   1       4.272   6.819 -46.803  0.00  0.00    -0.271 OA
ATOM     24  H   LEU d   1       1.132   6.431 -46.900  0.00  0.00     0.163 HD
BRANCH  22  25
ATOM     25  CA  ASP d   1       2.628   8.566 -46.937  0.00  0.00     0.185 C 
ATOM     26  H   ASP d   1       1.564   8.626 -46.708  0.00  0.00     0.100 H 
BRANCH  25  27
ATOM     27  N   ASP d   1       3.424   9.362 -45.952  0.00  0.00    -0.066 N 
ATOM     28  H   ASP d   1       3.277   8.986 -45.015  0.00  0.00     0.275 HD
ATOM     29  H   ASP d   1       4.414   9.305 -46.191  0.00  0.00     0.275 HD
ATOM     30  H   ASP d   1       3.122  10.336 -45.980  0.00  0.00     0.275 HD
ENDBRANCH  25  27
BRANCH  25  31
ATOM     31  CB  ASP d   1       2.850   9.133 -48.347  0.00  0.00     0.050 C 
ATOM     32  H   ASP d   1       2.283   8.522 -49.050  0.00  0.00     0.052 H 
ATOM     33  H   ASP d   1       3.920   9.116 -48.553  0.00  0.00     0.052 H 
BRANCH  31  34
ATOM     34  CG  ASP d   1       2.365  10.578 -48.476  0.00  0.00     0.175 C 
ATOM     35  OD1 ASP d   1       2.467  11.328 -47.477  0.00  0.00    -0.648 OA
ATOM     36  OD2 ASP d   1       1.895  10.970 -49.569  0.00  0.00    -0.648 OA
ENDBRANCH  31  34
ENDBRANCH  25  31
ENDBRANCH  22  25
ENDBRANCH  19  21
BRANCH  19  37
ATOM     37  CB  LEU d   1       2.488   4.321 -45.251  0.00  0.00    -0.035 C 
ATOM     38  H   LEU d   1       3.389   4.818 -44.892  0.00  0.00     0.037 H 
ATOM     39  H   LEU d   1       2.276   3.258 -45.363  0.00  0.00     0.037 H 
BRANCH  37  40
ATOM     40  CG  LEU d   1       1.502   4.684 -44.122  0.00  0.00    -0.059 C 
ATOM     41  H   LEU d   1       1.786   4.152 -43.214  0.00  0.00     0.038 H 
BRANCH  40  42
ATOM     42  CD1 LEU d   1       1.577   6.185 -43.850  0.00  0.00    -0.073 C 
ATOM     43  H   LEU d   1       2.591   6.448 -43.549  0.00  0.00     0.028 H 
ATOM     44  H   LEU d   1       1.313   6.731 -44.756  0.00  0.00     0.028 H 
ATOM     45  H   LEU d   1       0.881   6.444 -43.052  0.00  0.00     0.028 H 
ENDBRANCH  40  42
BRANCH  40  46
ATOM     46  CD2 LEU d   1       0.090   4.238 -44.456  0.00  0.00    -0.073 C 
ATOM     47  H   LEU d   1      -0.237   4.728 -45.373  0.00  0.00     0.028 H 
ATOM     48  H   LEU d   1       0.075   3.157 -44.595  0.00  0.00     0.028 H 
ATOM     49  H   LEU d   1      -0.578   4.510 -43.639  0.00  0.00     0.028 H 
ENDBRANCH  40  46
ENDBRANCH  37  40
ENDBRANCH  19  37
ENDBRANCH  16  19
ENDBRANCH  13  15
BRANCH  13  50
ATOM     50  CB  TRP d   1      -0.093   1.549 -48.574  0.00  0.00    -0.012 C 
ATOM     51  H   TRP d   1       0.308   1.015 -49.435  0.00  0.00     0.044 H 
ATOM     52  H   TRP d   1      -0.180   2.608 -48.816  0.00  0.00     0.044 H 
BRANCH  50  53
ATOM     53  CG  TRP d   1      -1.481   0.986 -48.220  0.00  0.00    -0.028 A 
ATOM     54  CD1 TRP d   1      -2.532   0.715 -49.070  0.00  0.00    -0.015 A 
ATOM     55  NE1 TRP d   1      -3.588   0.170 -48.360  0.00  0.00    -0.365 N 
ATOM     56  H   TRP d   1      -2.531   0.902 -50.144  0.00  0.00     0.112 H 
ATOM     57  CE2 TRP d   1      -3.238   0.083 -47.035  0.00  0.00     0.042 A 
ATOM     58  H   TRP d   1      -4.482  -0.120 -48.757  0.00  0.00     0.165 HD
ATOM     59  CD2 TRP d   1      -1.921   0.589 -46.909  0.00  0.00    -0.002 A 
ATOM     60  CZ2 TRP d   1      -3.964  -0.399 -45.932  0.00  0.00    -0.056 A 
ATOM     61  CE3 TRP d   1      -1.326   0.613 -45.634  0.00  0.00    -0.070 A 
ATOM     62  CZ3 TRP d   1      -2.047   0.139 -44.544  0.00  0.00    -0.082 A 
ATOM     63  H   TRP d   1      -0.315   0.998 -45.503  0.00  0.00     0.084 H 
ATOM     64  CH2 TRP d   1      -3.351  -0.361 -44.700  0.00  0.00    -0.081 A 
ATOM     65  H   TRP d   1      -1.594   0.155 -43.553  0.00  0.00     0.083 H 
ATOM     66  H   TRP d   1      -3.889  -0.727 -43.826  0.00  0.00     0.083 H 
ATOM     67  H   TRP d   1      -4.975  -0.789 -46.048  0.00  0.00     0.086 H 
ENDBRANCH  50  53
ENDBRANCH  13  50
ENDBRANCH  10  13
ENDBRANCH   7   9
BRANCH   7  68
ATOM     68  CB  THR d   1       4.360  -1.645 -47.537  0.00  0.00     0.060 C 
ATOM     69  H   THR d   1       5.377  -1.732 -47.919  0.00  0.00     0.086 H 
BRANCH  68  70
ATOM     70  OG1 THR d   1       3.530  -1.590 -48.700  0.00  0.00    -0.393 OA
ATOM     71  H   THR d   1       2.614  -1.482 -48.433  0.00  0.00     0.210 HD
ENDBRANCH  68  70
BRANCH  68  72
ATOM     72  CG2 THR d   1       4.065  -2.852 -46.666  0.00  0.00    -0.050 C 
ATOM     73  H   THR d   1       4.790  -2.897 -45.853  0.00  0.00     0.031 H 
ATOM     74  H   THR d   1       3.060  -2.764 -46.254  0.00  0.00     0.031 H 
ATOM     75  H   THR d   1       4.135  -3.758 -47.268  0.00  0.00     0.031 H 
ENDBRANCH  68  72
ENDBRANCH   7  68
ENDBRANCH   4   7
ENDBRANCH   1   3
BRANCH   1  76
ATOM     76  C   THR d   1       8.771   0.359 -45.847  0.00  0.00     0.243 C 
ATOM     77  O   THR d   1       9.388   0.167 -44.793  0.00  0.00    -0.271 OA
ATOM     78  N   ALA d   1       8.714   1.555 -46.426  0.00  0.00    -0.346 N 
ATOM     79  H   ALA d   1       8.174   1.665 -47.284  0.00  0.00     0.163 HD
BRANCH  78  80
ATOM     80  CA  ALA d   1       9.406   2.719 -45.865  0.00  0.00     0.086 C 
ATOM     81  H   ALA d   1      10.413   2.361 -45.650  0.00  0.00     0.086 H 
BRANCH  80  82
ATOM     82  C   ALA d   1       8.896   3.250 -44.517  0.00  0.00     0.240 C 
ATOM     83  O   ALA d   1       9.380   4.281 -44.043  0.00  0.00    -0.271 OA
ATOM     84  N   ILE d   1       7.993   2.517 -43.926  0.00  0.00    -0.349 N 
ATOM     85  H   ILE d   1       7.715   1.617 -44.316  0.00  0.00     0.163 HD
BRANCH  84  86
ATOM     86  CA  ILE d   1       7.451   2.964 -42.818  0.00  0.00     0.082 C 
ATOM     87  H   ILE d   1       8.244   3.504 -42.300  0.00  0.00     0.081 H 
BRANCH  86  88
ATOM     88  C   ILE d   1       7.078   2.013 -41.756  0.00  0.00     0.377 C 
ATOM     89  O   ILE d   1       6.242   0.989 -41.932  0.00  0.00    -0.186 OA
ATOM     90  N   PRO d   1       7.968   2.026 -40.701  0.00  0.00     0.148 N 
ATOM     91  CA  PRO d   1       8.036   1.354 -39.417  0.00  0.00     0.214 C 
ATOM     92  CD  PRO d   1       9.208   1.622 -41.426  0.00  0.00     0.119 C 
ATOM     93  CB  PRO d   1       9.263   0.420 -39.470  0.00  0.00    -0.026 C 
ATOM     94  H   PRO d   1       7.175   0.770 -39.091  0.00  0.00     0.104 H 
ATOM     95  CG  PRO d   1       9.558   0.222 -40.835  0.00  0.00    -0.037 C 
ATOM     96  H   PRO d   1       9.053  -0.528 -38.975  0.00  0.00     0.036 H 
ATOM     97  H   PRO d   1      10.112   0.861 -38.948  0.00  0.00     0.036 H 
ATOM     98  H   PRO d   1       9.003  -0.598 -41.290  0.00  0.00     0.035 H 
ATOM     99  H   PRO d   1      10.586  -0.089 -41.022  0.00  0.00     0.035 H 
ATOM    100  H   PRO d   1      10.017   2.340 -41.289  0.00  0.00     0.080 H 
ATOM    101  H   PRO d   1       9.060   1.587 -42.505  0.00  0.00     0.080 H 
BRANCH  91 102
ATOM    102  C   PRO d   1       8.394   2.629 -38.543  0.00  0.00     0.251 C 
ATOM    103  O   PRO d   1       9.486   3.234 -38.638  0.00  0.00    -0.271 OA
ATOM    104  N   THR d   1       7.395   3.068 -37.723  0.00  0.00    -0.350 N 
ATOM    105  H   THR d   1       6.502   2.577 -37.752  0.00  0.00     0.163 HD
BRANCH 104 106
ATOM    106  CA  THR d   1       7.529   4.217 -36.792  0.00  0.00     0.069 C 
ATOM    107  H   THR d   1       8.591   4.419 -36.652  0.00  0.00     0.078 H 
ATOM    108  H   THR d   1       7.034   3.956 -35.856  0.00  0.00     0.078 H 
BRANCH 106 109
ATOM    109  C   THR d   1       6.881   5.464 -37.334  0.00  0.00     0.236 C 
ATOM    110  O   THR d   1       7.157   6.564 -36.869  0.00  0.00    -0.272 OA
ATOM    111  N   ILE d   1       6.053   5.287 -38.356  0.00  0.00    -0.346 N 
ATOM    112  H   ILE d   1       5.900   4.346 -38.718  0.00  0.00     0.163 HD
BRANCH 111 113
ATOM    113  CA  ILE d   1       5.360   6.407 -38.970  0.00  0.00     0.092 C 
ATOM    114  H   ILE d   1       4.843   6.974 -38.195  0.00  0.00     0.088 H 
BRANCH 113 115
ATOM    115  C   ILE d   1       4.320   5.881 -39.957  0.00  0.00     0.238 C 
ATOM    116  O   ILE d   1       3.499   6.686 -40.454  0.00  0.00    -0.271 OA
ATOM    117  N   PRO d   1       4.320   4.651 -40.189  0.00  0.00    -0.368 N 
ATOM    118  H   PRO d   1       3.622   4.250 -40.816  0.00  0.00     0.159 HD
ATOM    119  H   PRO d   1       5.018   4.049 -39.751  0.00  0.00     0.159 HD
ENDBRANCH 113 115
BRANCH 113 120
ATOM    120  CB  ILE d   1       6.371   7.414 -39.649  0.00  0.00    -0.030 C 
ATOM    121  H   ILE d   1       7.027   7.836 -38.888  0.00  0.00     0.043 H 
BRANCH 120 122
ATOM    122  CG1 ILE d   1       5.597   8.577 -40.283  0.00  0.00    -0.063 C 
ATOM    123  H   ILE d   1       4.865   8.915 -39.549  0.00  0.00     0.033 H 
ATOM    124  H   ILE d   1       5.160   8.206 -41.210  0.00  0.00     0.033 H 
BRANCH 122 125
ATOM    125  CD1 ILE d   1       6.462   9.778 -40.643  0.00  0.00    -0.076 C 
ATOM    126  H   ILE d   1       6.939  10.163 -39.742  0.00  0.00     0.027 H 
ATOM    127  H   ILE d   1       7.226   9.473 -41.358  0.00  0.00     0.027 H 
ATOM    128  H   ILE d   1       5.838  10.554 -41.085  0.00  0.00     0.027 H 
ENDBRANCH 122 125
ENDBRANCH 120 122
BRANCH 120 129
ATOM    129  CG2 ILE d   1       7.283   6.700 -40.630  0.00  0.00    -0.071 C 
ATOM    130  H   ILE d   1       7.854   5.936 -40.103  0.00  0.00     0.028 H 
ATOM    131  H   ILE d   1       6.681   6.233 -41.409  0.00  0.00     0.028 H 
ATOM    132  H   ILE d   1       7.966   7.421 -41.080  0.00  0.00     0.028 H 
ENDBRANCH 120 129
ENDBRANCH 113 120
ENDBRANCH 111 113
ENDBRANCH 106 109
ENDBRANCH 104 106
ENDBRANCH  91 102
ENDBRANCH  86  88
BRANCH  86 133
ATOM    133  CB  ILE d   1       6.127   3.930 -43.293  0.00  0.00    -0.033 C 
ATOM    134  H   ILE d   1       6.266   4.039 -44.369  0.00  0.00     0.042 H 
BRANCH 133 135
ATOM    135  CG1 ILE d   1       6.151   5.366 -42.742  0.00  0.00    -0.063 C 
ATOM    136  H   ILE d   1       7.187   5.705 -42.724  0.00  0.00     0.033 H 
ATOM    137  H   ILE d   1       5.705   5.355 -41.748  0.00  0.00     0.033 H 
BRANCH 135 138
ATOM    138  CD1 ILE d   1       5.335   6.348 -43.628  0.00  0.00    -0.076 C 
ATOM    139  H   ILE d   1       5.756   6.363 -44.633  0.00  0.00     0.027 H 
ATOM    140  H   ILE d   1       4.297   6.019 -43.672  0.00  0.00     0.027 H 
ATOM    141  H   ILE d   1       5.382   7.348 -43.198  0.00  0.00     0.027 H 
ENDBRANCH 135 138
ENDBRANCH 133 135
BRANCH 133 142
ATOM    142  CG2 ILE d   1       4.810   3.273 -43.121  0.00  0.00    -0.071 C 
ATOM    143  H   ILE d   1       4.778   2.364 -43.721  0.00  0.00     0.028 H 
ATOM    144  H   ILE d   1       4.665   3.022 -42.070  0.00  0.00     0.028 H 
ATOM    145  H   ILE d   1       4.021   3.952 -43.445  0.00  0.00     0.028 H 
ENDBRANCH 133 142
ENDBRANCH  86 133
ENDBRANCH  84  86
ENDBRANCH  80  82
BRANCH  80 146
ATOM    146  CB  ALA d   1       9.376   3.854 -46.891  0.00  0.00    -0.049 C 
ATOM    147  H   ALA d   1       9.877   3.531 -47.803  0.00  0.00     0.030 H 
ATOM    148  H   ALA d   1       8.341   4.112 -47.115  0.00  0.00     0.030 H 
ATOM    149  H   ALA d   1       9.889   4.725 -46.483  0.00  0.00     0.030 H 
ENDBRANCH  80 146
ENDBRANCH  78  80
ENDBRANCH   1  76
BRANCH   1 150
ATOM    150  CB  THR d   1       8.633  -1.085 -47.938  0.00  0.00     0.060 C 
ATOM    151  H   THR d   1       9.720  -1.069 -47.860  0.00  0.00     0.086 H 
BRANCH 150 152
ATOM    152  OG1 THR d   1       8.202  -0.075 -48.860  0.00  0.00    -0.393 OA
ATOM    153  H   THR d   1       8.576  -0.253 -49.726  0.00  0.00     0.210 HD
ENDBRANCH 150 152
BRANCH 150 154
ATOM    154  CG2 THR d   1       8.175  -2.454 -48.450  0.00  0.00    -0.050 C 
ATOM    155  H   THR d   1       8.513  -3.229 -47.763  0.00  0.00     0.031 H 
ATOM    156  H   THR d   1       7.087  -2.472 -48.513  0.00  0.00     0.031 H 
ATOM    157  H   THR d   1       8.600  -2.632 -49.438  0.00  0.00     0.031 H 
ENDBRANCH 150 154
ENDBRANCH   1 150
TORSDOF 42
