REMARK  21 active torsions:
REMARK  status: ('A' for Active; 'I' for Inactive)
REMARK       I    between atoms: N4_1  and  C3J_52 
REMARK    1  A    between atoms: C4A_53  and  N4_1 
REMARK    2  A    between atoms: C2A_29  and  C1A_3 
REMARK    3  A    between atoms: C1B_5  and  O1A_4 
REMARK    4  A    between atoms: C1D_9  and  O1B_6 
REMARK    5  A    between atoms: C1H_16  and  O1D_10 
REMARK    6  A    between atoms: C1F_12  and  O4E_62 
REMARK    7  A    between atoms: C1N_23  and  O1F_13 
REMARK    8  A    between atoms: C1I_18  and  C1K_20 
REMARK    9  A    between atoms: C2D_35  and  O2B_32 
REMARK   10  A    between atoms: O2B_32  and  C2G_39 
REMARK   11  A    between atoms: O2D_36  and  C2C_33 
REMARK   12  A    between atoms: C3A_41  and  O2D_36 
REMARK   13  A    between atoms: C2E_37  and  C2F_38 
REMARK   14  A    between atoms: C2G_39  and  C2H_40 
REMARK   15  A    between atoms: C3B_43  and  C3A_41 
REMARK   16  A    between atoms: C3D_46  and  C3C_45 
REMARK   17  A    between atoms: C3F_48  and  C3E_47 
REMARK   18  A    between atoms: C3H_50  and  C3G_49 
REMARK   19  A    between atoms: C3J_52  and  C3I_51 
REMARK   20  A    between atoms: C4B_55  and  O4A_54 
REMARK   21  A    between atoms: C4F_63  and  O4B_56 
ROOT
ATOM      1  C2A SM8 d   1      -2.340  50.922  27.320  0.00  0.00     0.069 C 
ATOM      2  O2A SM8 d   1      -1.733  50.164  26.276  0.00  0.00    -0.373 OA
ATOM      3  C2B SM8 d   1      -3.844  50.955  27.119  0.00  0.00    -0.010 C 
ATOM      4  C2C SM8 d   1      -4.381  49.534  27.119  0.00  0.00     0.079 C 
ATOM      5  C2D SM8 d   1      -3.583  48.624  26.191  0.00  0.00     0.098 C 
ATOM      6  C2E SM8 d   1      -2.077  48.784  26.371  0.00  0.00     0.064 C 
ATOM      7  H   SM8 d   1      -2.095  50.469  28.292  0.00  0.00     0.091 H 
ATOM      8  H   SM8 d   1      -4.076  51.435  26.157  0.00  0.00     0.041 H 
ATOM      9  H   SM8 d   1      -4.312  51.525  27.936  0.00  0.00     0.041 H 
ATOM     10  H   SM8 d   1      -4.346  49.125  28.140  0.00  0.00     0.088 H 
ATOM     11  H   SM8 d   1      -3.833  48.887  25.153  0.00  0.00     0.092 H 
ATOM     12  H   SM8 d   1      -1.790  48.402  27.362  0.00  0.00     0.086 H 
ENDROOT
BRANCH   1  13
ATOM     13  C1A SM8 d   1      -1.877  52.321  27.283  0.00  0.00     0.004 A 
ATOM     14  C1B SM8 d   1      -2.024  53.105  28.412  0.00  0.00     0.084 A 
ATOM     15  C1C SM8 d   1      -1.596  54.416  28.391  0.00  0.00     0.021 A 
ATOM     16  C1D SM8 d   1      -1.774  55.204  29.623  0.00  0.00     0.100 C 
ATOM     17  C1Q SM8 d   1      -1.024  54.942  27.244  0.00  0.00     0.025 A 
ATOM     18  C1E SM8 d   1      -1.750  56.720  29.499  0.00  0.00     0.160 A 
ATOM     19  H   SM8 d   1      -0.816  55.023  30.133  0.00  0.00     0.096 H 
ATOM     20  C1F SM8 d   1      -1.774  57.555  30.770  0.00  0.00     0.074 C 
ATOM     21  O1H SM8 d   1      -2.473  57.249  28.389  0.00  0.00    -0.344 OA
ATOM     22  C1O SM8 d   1      -1.048  57.308  28.282  0.00  0.00     0.204 A 
ATOM     23  C1G SM8 d   1      -1.732  59.046  30.461  0.00  0.00    -0.006 C 
ATOM     24  H   SM8 d   1      -2.693  57.336  31.334  0.00  0.00     0.088 H 
ATOM     25  C1H SM8 d   1      -0.518  59.429  29.620  0.00  0.00     0.106 C 
ATOM     26  H   SM8 d   1      -1.696  59.603  31.409  0.00  0.00     0.041 H 
ATOM     27  H   SM8 d   1      -2.644  59.319  29.910  0.00  0.00     0.041 H 
ATOM     28  C1J SM8 d   1      -0.453  60.946  29.484  0.00  0.00    -0.013 C 
ATOM     29  C1N SM8 d   1      -0.508  58.737  28.262  0.00  0.00     0.195 C 
ATOM     30  C1I SM8 d   1      -1.580  61.454  28.614  0.00  0.00    -0.077 C 
ATOM     31  H   SM8 d   1       0.508  61.227  29.029  0.00  0.00     0.044 H 
ATOM     32  H   SM8 d   1      -0.534  61.402  30.482  0.00  0.00     0.044 H 
ATOM     33  C1L SM8 d   1      -1.931  60.775  27.514  0.00  0.00    -0.033 C 
ATOM     34  C1M SM8 d   1      -1.284  59.486  27.208  0.00  0.00     0.190 C 
ATOM     35  H   SM8 d   1      -2.693  61.175  26.847  0.00  0.00     0.089 H 
ATOM     36  O1C SM8 d   1      -1.386  59.012  26.088  0.00  0.00    -0.290 OA
ATOM     37  C1P SM8 d   1      -0.555  56.363  27.221  0.00  0.00     0.201 C 
ATOM     38  O1G SM8 d   1       0.221  56.746  26.359  0.00  0.00    -0.289 OA
ATOM     39  C1R SM8 d   1      -0.877  54.156  26.106  0.00  0.00    -0.068 A 
ATOM     40  C1S SM8 d   1      -1.308  52.836  26.124  0.00  0.00    -0.071 A 
ATOM     41  H   SM8 d   1      -0.429  54.571  25.211  0.00  0.00     0.085 H 
ATOM     42  H   SM8 d   1      -1.202  52.213  25.243  0.00  0.00     0.084 H 
BRANCH  14  43
ATOM     43  O1A SM8 d   1      -2.584  52.609  29.551  0.00  0.00    -0.359 OA
ATOM     44  H   SM8 d   1      -2.601  53.288  30.216  0.00  0.00     0.217 HD
ENDBRANCH  14  43
BRANCH  16  45
ATOM     45  O1B SM8 d   1      -2.700  54.648  30.558  0.00  0.00    -0.387 OA
ATOM     46  H   SM8 d   1      -2.401  53.786  30.823  0.00  0.00     0.210 HD
ENDBRANCH  16  45
BRANCH  20  47
ATOM     47  O4E SM8 d   1      -0.631  57.177  31.545  0.00  0.00    -0.392 OA
ATOM     48  H   SM8 d   1       0.160  57.371  31.056  0.00  0.00     0.210 HD
ENDBRANCH  20  47
BRANCH  25  49
ATOM     49  O1D SM8 d   1       0.689  59.006  30.263  0.00  0.00    -0.386 OA
ATOM     50  H   SM8 d   1       0.674  58.063  30.373  0.00  0.00     0.210 HD
ENDBRANCH  25  49
BRANCH  30  51
ATOM     51  C1K SM8 d   1      -2.307  62.717  28.971  0.00  0.00    -0.054 C 
ATOM     52  H   SM8 d   1      -3.086  62.916  28.220  0.00  0.00     0.033 H 
ATOM     53  H   SM8 d   1      -1.596  63.556  28.993  0.00  0.00     0.033 H 
ATOM     54  H   SM8 d   1      -2.772  62.605  29.961  0.00  0.00     0.033 H 
ENDBRANCH  30  51
BRANCH  29  55
ATOM     55  O1F SM8 d   1       0.878  58.688  27.897  0.00  0.00    -0.376 OA
ATOM     56  H   SM8 d   1       0.967  58.265  27.051  0.00  0.00     0.211 HD
ENDBRANCH  29  55
ENDBRANCH   1  13
BRANCH   6  57
ATOM     57  C2F SM8 d   1      -1.322  48.011  25.298  0.00  0.00    -0.050 C 
ATOM     58  H   SM8 d   1      -1.581  46.944  25.364  0.00  0.00     0.031 H 
ATOM     59  H   SM8 d   1      -0.240  48.135  25.450  0.00  0.00     0.031 H 
ATOM     60  H   SM8 d   1      -1.600  48.395  24.305  0.00  0.00     0.031 H 
ENDBRANCH   6  57
BRANCH   4  61
ATOM     61  O2D SM8 d   1      -5.728  49.614  26.671  0.00  0.00    -0.310 OA
BRANCH  61  62
ATOM     62  C3A SM8 d   1      -6.598  49.040  27.675  0.00  0.00     0.283 C 
ATOM     63  O3A SM8 d   1      -6.107  48.725  28.746  0.00  0.00    -0.260 OA
BRANCH  62  64
ATOM     64  C3B SM8 d   1      -7.898  48.869  27.404  0.00  0.00    -0.010 C 
ATOM     65  C3C SM8 d   1      -8.686  48.338  28.331  0.00  0.00    -0.077 C 
ATOM     66  H   SM8 d   1      -8.267  48.050  29.294  0.00  0.00     0.083 H 
ATOM     67  H   SM8 d   1      -8.303  49.161  26.436  0.00  0.00     0.092 H 
BRANCH  65  68
ATOM     68  C3D SM8 d   1      -9.979  48.155  28.097  0.00  0.00    -0.083 C 
ATOM     69  C3E SM8 d   1     -10.694  47.619  29.077  0.00  0.00    -0.083 C 
ATOM     70  H   SM8 d   1     -10.198  47.359  30.011  0.00  0.00     0.083 H 
ATOM     71  H   SM8 d   1     -10.431  48.432  27.146  0.00  0.00     0.083 H 
BRANCH  69  72
ATOM     72  C3F SM8 d   1     -11.995  47.390  28.955  0.00  0.00    -0.083 C 
ATOM     73  C3G SM8 d   1     -12.589  46.850  30.013  0.00  0.00    -0.083 C 
ATOM     74  H   SM8 d   1     -11.983  46.635  30.892  0.00  0.00     0.083 H 
ATOM     75  H   SM8 d   1     -12.542  47.630  28.044  0.00  0.00     0.083 H 
BRANCH  73  76
ATOM     76  C3H SM8 d   1     -13.884  46.559  30.053  0.00  0.00    -0.078 C 
ATOM     77  C3I SM8 d   1     -14.298  46.026  31.194  0.00  0.00    -0.017 C 
ATOM     78  H   SM8 d   1     -13.561  45.879  31.982  0.00  0.00     0.092 H 
ATOM     79  H   SM8 d   1     -14.553  46.744  29.214  0.00  0.00     0.083 H 
BRANCH  77  80
ATOM     80  C3J SM8 d   1     -15.559  45.656  31.443  0.00  0.00     0.245 C 
ATOM     81  N4  SM8 d   1     -15.727  45.137  32.652  0.00  0.00    -0.316 N 
ATOM     82  H   SM8 d   1     -14.957  45.038  33.282  0.00  0.00     0.169 HD
ATOM     83  O3B SM8 d   1     -16.463  45.779  30.631  0.00  0.00    -0.268 OA
BRANCH  81  84
ATOM     84  C4A SM8 d   1     -17.009  44.735  33.017  0.00  0.00     0.145 A 
ATOM     85  C4B SM8 d   1     -17.533  43.358  32.846  0.00  0.00     0.111 A 
ATOM     86  C4C SM8 d   1     -18.934  43.125  33.297  0.00  0.00     0.035 A 
ATOM     87  C4D SM8 d   1     -19.545  41.879  33.193  0.00  0.00    -0.065 A 
ATOM     88  C4H SM8 d   1     -19.652  44.190  33.838  0.00  0.00     0.117 A 
ATOM     89  C4E SM8 d   1     -20.860  41.720  33.631  0.00  0.00    -0.048 A 
ATOM     90  H   SM8 d   1     -19.003  41.038  32.775  0.00  0.00     0.085 H 
ATOM     91  C4F SM8 d   1     -21.567  42.795  34.169  0.00  0.00     0.090 A 
ATOM     92  H   SM8 d   1     -21.337  40.750  33.552  0.00  0.00     0.087 H 
ATOM     93  C4G SM8 d   1     -20.954  44.025  34.269  0.00  0.00     0.102 A 
ATOM     94 CL4  SM8 d   1     -21.788  45.459  34.950  0.00  0.00    -0.078 Cl
ATOM     95  O4C SM8 d   1     -19.151  45.456  33.986  0.00  0.00    -0.271 OA
ATOM     96  C4I SM8 d   1     -17.882  45.775  33.607  0.00  0.00     0.318 A 
ATOM     97  O4D SM8 d   1     -17.457  46.940  33.757  0.00  0.00    -0.257 OA
BRANCH  85  98
ATOM     98  O4A SM8 d   1     -16.761  42.374  32.308  0.00  0.00    -0.357 OA
ATOM     99  H   SM8 d   1     -17.258  41.565  32.276  0.00  0.00     0.217 HD
ENDBRANCH  85  98
BRANCH  91 100
ATOM    100  O4B SM8 d   1     -22.852  42.677  34.603  0.00  0.00    -0.359 OA
ATOM    101  H   SM8 d   1     -23.152  43.516  34.932  0.00  0.00     0.217 HD
ENDBRANCH  91 100
ENDBRANCH  81  84
ENDBRANCH  77  80
ENDBRANCH  73  76
ENDBRANCH  69  72
ENDBRANCH  65  68
ENDBRANCH  62  64
ENDBRANCH  61  62
ENDBRANCH   4  61
BRANCH   5 102
ATOM    102  O2B SM8 d   1      -3.956  47.268  26.423  0.00  0.00    -0.311 OA
BRANCH 102 103
ATOM    103  C2G SM8 d   1      -4.401  46.629  25.195  0.00  0.00     0.255 C 
ATOM    104  O2C SM8 d   1      -4.048  45.478  24.998  0.00  0.00    -0.266 OA
BRANCH 103 105
ATOM    105  C2H SM8 d   1      -5.261  47.386  24.223  0.00  0.00     0.004 C 
ATOM    106  H   SM8 d   1      -5.495  46.743  23.362  0.00  0.00     0.041 H 
ATOM    107  H   SM8 d   1      -4.723  48.281  23.877  0.00  0.00     0.041 H 
ATOM    108  H   SM8 d   1      -6.195  47.689  24.718  0.00  0.00     0.041 H 
ENDBRANCH 103 105
ENDBRANCH 102 103
ENDBRANCH   5 102
TORSDOF 21
