REMARK  5 active torsions:
REMARK  status: ('A' for Active; 'I' for Inactive)
REMARK    1  A    between atoms: B_1  and  O1_3 
REMARK    2  A    between atoms: B_1  and  O2_4 
REMARK    3  A    between atoms: C3_5  and  B_1 
REMARK    4  A    between atoms: N4_6  and  C3_5 
REMARK       I    between atoms: C5_7  and  N4_6 
REMARK    5  A    between atoms: C7_9  and  C5_7 
ROOT
ATOM      1  N4  BH6 d   1      -1.142  -1.109  34.703  0.00  0.00    -0.360 N 
ATOM      2  C5  BH6 d   1      -1.232   0.090  35.265  0.00  0.00     0.252 C 
ATOM      3  O6  BH6 d   1      -0.580   0.381  36.252  0.00  0.00    -0.268 OA
ATOM      4  H   BH6 d   1      -1.711  -1.279  33.874  0.00  0.00     0.161 HD
ENDROOT
BRANCH   2   5
ATOM      5  C7  BH6 d   1      -2.097   1.139  34.648  0.00  0.00     0.053 A 
ATOM      6  C8  BH6 d   1      -2.267   1.099  33.265  0.00  0.00    -0.066 A 
ATOM      7  C11 BH6 d   1      -3.029   2.087  32.647  0.00  0.00    -0.082 A 
ATOM      8  H   BH6 d   1      -1.809   0.305  32.675  0.00  0.00     0.085 H 
ATOM      9  C12 BH6 d   1      -3.602   3.111  33.406  0.00  0.00    -0.081 A 
ATOM     10  H   BH6 d   1      -3.179   2.062  31.568  0.00  0.00     0.083 H 
ATOM     11  C13 BH6 d   1      -3.424   3.153  34.785  0.00  0.00    -0.061 A 
ATOM     12  H   BH6 d   1      -4.193   3.883  32.913  0.00  0.00     0.083 H 
ATOM     13  C14 BH6 d   1      -2.660   2.167  35.412  0.00  0.00     0.049 A 
ATOM     14  H   BH6 d   1      -3.878   3.951  35.372  0.00  0.00     0.086 H 
ATOM     15 CL   BH6 d   1      -2.429   2.258  37.211  0.00  0.00    -0.083 Cl
ENDBRANCH   2   5
BRANCH   1  16
ATOM     16  C3  BH6 d   1      -0.304  -2.199  35.166  0.00  0.00     0.030 C 
ATOM     17  H   BH6 d   1      -0.188  -2.908  34.346  0.00  0.00     0.057 H 
ATOM     18  H   BH6 d   1       0.648  -1.779  35.489  0.00  0.00     0.057 H 
BRANCH  16  19
ATOM     19  B   BH6 d   1      -0.949  -2.979  36.408  0.00  0.00     0.510 B 
BRANCH  19  20
ATOM     20  O1  BH6 d   1      -2.252  -3.573  35.859  0.00  0.00    -0.436 OA
ATOM     21  H   BH6 d   1      -2.816  -2.865  35.541  0.00  0.00     0.184 HD
ENDBRANCH  19  20
BRANCH  19  22
ATOM     22  O2  BH6 d   1      -1.224  -2.005  37.579  0.00  0.00    -0.436 OA
ATOM     23  H   BH6 d   1      -0.392  -1.650  37.901  0.00  0.00     0.184 HD
ENDBRANCH  19  22
ENDBRANCH  16  19
ENDBRANCH   1  16
TORSDOF 5
