REMARK  9 active torsions:
REMARK  status: ('A' for Active; 'I' for Inactive)
REMARK    1  A    between atoms: PB_1  and  O3A_5 
REMARK    2  A    between atoms: O3A_5  and  PA_6 
REMARK    3  A    between atoms: PA_6  and  O5'_9 
REMARK    4  A    between atoms: O5'_9  and  C5'_10 
REMARK    5  A    between atoms: C5'_10  and  C4'_11 
REMARK    6  A    between atoms: C3'_13  and  O3'_14 
REMARK    7  A    between atoms: C2'_15  and  O2'_16 
REMARK    8  A    between atoms: C1'_17  and  N9_18 
REMARK    9  A    between atoms: C2_25  and  N2_26 
ROOT
ATOM      1  C4' GDP d   1      35.069 -42.622  -2.282  0.00  0.00     0.089 C 
ATOM      2  O4' GDP d   1      35.174 -42.110  -0.936  0.00  0.00    -0.353 OA
ATOM      3  C3' GDP d   1      34.702 -41.418  -3.123  0.00  0.00     0.091 C 
ATOM      4  C2' GDP d   1      35.325 -40.259  -2.348  0.00  0.00     0.105 C 
ATOM      5  C1' GDP d   1      35.138 -40.678  -0.910  0.00  0.00     0.139 C 
ATOM      6  H   GDP d   1      34.321 -43.412  -2.341  0.00  0.00     0.090 H 
ATOM      7  H   GDP d   1      35.039 -41.434  -4.159  0.00  0.00     0.091 H 
ATOM      8  H   GDP d   1      36.362 -40.085  -2.636  0.00  0.00     0.093 H 
ATOM      9  H   GDP d   1      34.213 -40.237  -0.538  0.00  0.00     0.122 H 
ENDROOT
BRANCH   5  10
ATOM     10  N9  GDP d   1      36.202 -40.226   0.005  0.00  0.00    -0.295 N 
ATOM     11  C8  GDP d   1      37.543 -40.420  -0.119  0.00  0.00     0.071 A 
ATOM     12  N7  GDP d   1      38.213 -39.906   0.953  0.00  0.00    -0.234 NA
ATOM     13  H   GDP d   1      38.019 -40.920  -0.963  0.00  0.00     0.144 H 
ATOM     14  C5  GDP d   1      37.286 -39.386   1.783  0.00  0.00     0.171 A 
ATOM     15  C6  GDP d   1      37.295 -38.669   3.083  0.00  0.00     0.292 A 
ATOM     16  C4  GDP d   1      35.966 -39.601   1.155  0.00  0.00     0.161 A 
ATOM     17  O6  GDP d   1      38.364 -38.445   3.677  0.00  0.00    -0.265 OA
ATOM     18  N1  GDP d   1      36.119 -38.305   3.607  0.00  0.00    -0.154 N 
ATOM     19  C2  GDP d   1      34.935 -38.537   2.984  0.00  0.00     0.680 A 
ATOM     20  H   GDP d   1      36.111 -37.834   4.512  0.00  0.00     0.187 HD
ATOM     21  N3  GDP d   1      34.853 -39.177   1.787  0.00  0.00    -0.174 N 
ATOM     22  H   GDP d   1      33.940 -39.338   1.363  0.00  0.00     0.186 HD
BRANCH  19  23
ATOM     23  N2  GDP d   1      33.782 -38.120   3.581  0.00  0.00    -0.234 N 
ATOM     24  H   GDP d   1      33.818 -37.642   4.481  0.00  0.00     0.174 HD
ATOM     25  H   GDP d   1      32.884 -38.286   3.127  0.00  0.00     0.174 HD
ENDBRANCH  19  23
ENDBRANCH   5  10
BRANCH   4  26
ATOM     26  O2' GDP d   1      34.668 -39.031  -2.585  0.00  0.00    -0.388 OA
ATOM     27  H   GDP d   1      34.715 -38.820  -3.520  0.00  0.00     0.210 HD
ENDBRANCH   4  26
BRANCH   1  28
ATOM     28  C5' GDP d   1      36.343 -43.315  -2.780  0.00  0.00     0.058 C 
ATOM     29  H   GDP d   1      36.734 -43.978  -2.009  0.00  0.00     0.079 H 
ATOM     30  H   GDP d   1      36.123 -43.913  -3.664  0.00  0.00     0.079 H 
BRANCH  28  31
ATOM     31  O5' GDP d   1      37.306 -42.308  -3.096  0.00  0.00    -0.287 OA
BRANCH  31  32
ATOM     32  PA  GDP d   1      38.247 -42.398  -4.381  0.00  0.00     0.418 P 
ATOM     33  O1A GDP d   1      39.373 -41.387  -4.395  0.00  0.00    -0.624 OA
ATOM     34  O2A GDP d   1      37.424 -42.357  -5.659  0.00  0.00    -0.624 OA
BRANCH  32  35
ATOM     35  O3A GDP d   1      38.838 -43.854  -4.061  0.00  0.00    -0.173 OA
BRANCH  35  36
ATOM     36  PB  GDP d   1      38.783 -45.140  -5.061  0.00  0.00     0.431 P 
ATOM     37  O1B GDP d   1      40.005 -45.026  -5.960  0.00  0.00    -0.616 OA
ATOM     38  O2B GDP d   1      37.503 -45.144  -5.911  0.00  0.00    -0.616 OA
ATOM     39  O3B GDP d   1      38.891 -46.403  -4.206  0.00  0.00    -0.616 OA
ENDBRANCH  35  36
ENDBRANCH  32  35
ENDBRANCH  31  32
ENDBRANCH  28  31
ENDBRANCH   1  28
BRANCH   3  40
ATOM     40  O3' GDP d   1      33.276 -41.342  -3.114  0.00  0.00    -0.390 OA
ATOM     41  H   GDP d   1      32.968 -41.239  -2.211  0.00  0.00     0.210 HD
ENDBRANCH   3  40
TORSDOF 9
