REMARK  28 active torsions:
REMARK  status: ('A' for Active; 'I' for Inactive)
REMARK    1  A    between atoms: C21_2  and  O21_3 
REMARK    2  A    between atoms: C31_4  and  O31_5 
REMARK    3  A    between atoms: C51_8  and  C61_10 
REMARK    4  A    between atoms: C61_10  and  O61_11 
REMARK    5  A    between atoms: C22_13  and  O22_14 
REMARK    6  A    between atoms: C32_15  and  O32_16 
REMARK    7  A    between atoms: C52_19  and  C62_21 
REMARK    8  A    between atoms: C62_21  and  O62_22 
REMARK    9  A    between atoms: C23_24  and  O23_25 
REMARK   10  A    between atoms: C33_26  and  O33_27 
REMARK   11  A    between atoms: C53_30  and  C63_32 
REMARK   12  A    between atoms: C63_32  and  O63_33 
REMARK   13  A    between atoms: C24_35  and  O24_36 
REMARK   14  A    between atoms: C34_37  and  O34_38 
REMARK   15  A    between atoms: C54_41  and  C64_43 
REMARK   16  A    between atoms: C64_43  and  O64_44 
REMARK   17  A    between atoms: C25_46  and  O25_47 
REMARK   18  A    between atoms: C35_48  and  O35_49 
REMARK   19  A    between atoms: C55_52  and  C65_54 
REMARK   20  A    between atoms: C65_54  and  O65_55 
REMARK   21  A    between atoms: C26_57  and  O26_58 
REMARK   22  A    between atoms: C36_59  and  O36_60 
REMARK   23  A    between atoms: C56_63  and  C66_65 
REMARK   24  A    between atoms: C66_65  and  O66_66 
REMARK   25  A    between atoms: C27_68  and  O27_69 
REMARK   26  A    between atoms: C37_70  and  O37_71 
REMARK   27  A    between atoms: C57_74  and  C67_76 
REMARK   28  A    between atoms: C67_76  and  O67_77 
ROOT
ATOM      1  C11 BCD d   1      48.933  31.498  34.978  0.00  0.00     0.159 C 
ATOM      2  C21 BCD d   1      50.266  30.977  34.476  0.00  0.00     0.110 C 
ATOM      3  C31 BCD d   1      50.580  31.531  33.115  0.00  0.00     0.092 C 
ATOM      4  C41 BCD d   1      49.447  31.413  32.116  0.00  0.00     0.096 C 
ATOM      5  O41 BCD d   1      49.891  32.187  31.014  0.00  0.00    -0.348 OA
ATOM      6  C51 BCD d   1      48.237  32.047  32.759  0.00  0.00     0.089 C 
ATOM      7  O51 BCD d   1      47.944  31.360  33.956  0.00  0.00    -0.348 OA
ATOM      8  C12 BCD d   1      49.464  31.858  29.719  0.00  0.00     0.159 C 
ATOM      9  C22 BCD d   1      50.691  31.787  28.863  0.00  0.00     0.110 C 
ATOM     10  C32 BCD d   1      51.245  33.164  28.566  0.00  0.00     0.092 C 
ATOM     11  C42 BCD d   1      50.166  34.098  28.072  0.00  0.00     0.096 C 
ATOM     12  O42 BCD d   1      50.660  35.407  28.107  0.00  0.00    -0.348 OA
ATOM     13  C52 BCD d   1      49.044  34.107  29.074  0.00  0.00     0.089 C 
ATOM     14  O52 BCD d   1      48.564  32.815  29.238  0.00  0.00    -0.348 OA
ATOM     15  C13 BCD d   1      50.239  36.249  27.083  0.00  0.00     0.159 C 
ATOM     16  C23 BCD d   1      51.533  36.932  26.765  0.00  0.00     0.110 C 
ATOM     17  C33 BCD d   1      51.884  37.969  27.803  0.00  0.00     0.092 C 
ATOM     18  C43 BCD d   1      50.764  38.983  27.938  0.00  0.00     0.096 C 
ATOM     19  O43 BCD d   1      51.057  39.870  29.006  0.00  0.00    -0.348 OA
ATOM     20  C53 BCD d   1      49.476  38.206  28.266  0.00  0.00     0.089 C 
ATOM     21  O53 BCD d   1      49.179  37.116  27.404  0.00  0.00    -0.348 OA
ATOM     22  C14 BCD d   1      51.095  41.295  28.819  0.00  0.00     0.159 C 
ATOM     23  C24 BCD d   1      52.237  41.969  29.557  0.00  0.00     0.110 C 
ATOM     24  C34 BCD d   1      52.106  41.741  31.057  0.00  0.00     0.092 C 
ATOM     25  C44 BCD d   1      50.798  42.319  31.566  0.00  0.00     0.096 C 
ATOM     26  O44 BCD d   1      50.622  41.851  32.886  0.00  0.00    -0.348 OA
ATOM     27  C54 BCD d   1      49.643  41.829  30.666  0.00  0.00     0.089 C 
ATOM     28  O54 BCD d   1      49.934  41.933  29.313  0.00  0.00    -0.348 OA
ATOM     29  C15 BCD d   1      50.234  42.837  33.850  0.00  0.00     0.159 C 
ATOM     30  C25 BCD d   1      51.139  42.919  35.056  0.00  0.00     0.110 C 
ATOM     31  C35 BCD d   1      51.091  41.664  35.874  0.00  0.00     0.092 C 
ATOM     32  C45 BCD d   1      49.633  41.431  36.255  0.00  0.00     0.096 C 
ATOM     33  O45 BCD d   1      49.565  40.174  36.839  0.00  0.00    -0.348 OA
ATOM     34  C55 BCD d   1      48.775  41.433  35.011  0.00  0.00     0.089 C 
ATOM     35  O55 BCD d   1      48.929  42.639  34.309  0.00  0.00    -0.348 OA
ATOM     36  C16 BCD d   1      49.576  40.174  38.258  0.00  0.00     0.159 C 
ATOM     37  C26 BCD d   1      50.605  39.233  38.841  0.00  0.00     0.110 C 
ATOM     38  C36 BCD d   1      50.435  37.838  38.301  0.00  0.00     0.092 C 
ATOM     39  C46 BCD d   1      49.056  37.343  38.694  0.00  0.00     0.096 C 
ATOM     40  O46 BCD d   1      48.722  36.207  37.953  0.00  0.00    -0.348 OA
ATOM     41  C56 BCD d   1      47.972  38.386  38.396  0.00  0.00     0.089 C 
ATOM     42  O56 BCD d   1      48.335  39.711  38.736  0.00  0.00    -0.348 OA
ATOM     43  C17 BCD d   1      48.259  35.111  38.714  0.00  0.00     0.159 C 
ATOM     44  C27 BCD d   1      49.278  34.001  38.924  0.00  0.00     0.110 C 
ATOM     45  C37 BCD d   1      49.717  33.349  37.642  0.00  0.00     0.092 C 
ATOM     46  C47 BCD d   1      48.540  33.000  36.738  0.00  0.00     0.096 C 
ATOM     47  O47 BCD d   1      49.061  32.852  35.428  0.00  0.00    -0.348 OA
ATOM     48  C57 BCD d   1      47.462  34.086  36.716  0.00  0.00     0.089 C 
ATOM     49  O57 BCD d   1      47.160  34.556  38.011  0.00  0.00    -0.348 OA
ATOM     50  H   BCD d   1      48.610  30.907  35.835  0.00  0.00     0.133 H 
ATOM     51  H   BCD d   1      50.166  29.892  34.452  0.00  0.00     0.094 H 
ATOM     52  H   BCD d   1      50.757  32.606  33.156  0.00  0.00     0.091 H 
ATOM     53  H   BCD d   1      49.194  30.396  31.816  0.00  0.00     0.091 H 
ATOM     54  H   BCD d   1      48.468  33.099  32.926  0.00  0.00     0.090 H 
ATOM     55  H   BCD d   1      48.938  30.904  29.710  0.00  0.00     0.133 H 
ATOM     56  H   BCD d   1      50.442  31.306  27.917  0.00  0.00     0.094 H 
ATOM     57  H   BCD d   1      51.629  33.591  29.493  0.00  0.00     0.091 H 
ATOM     58  H   BCD d   1      49.852  33.783  27.077  0.00  0.00     0.091 H 
ATOM     59  H   BCD d   1      49.364  34.453  30.057  0.00  0.00     0.090 H 
ATOM     60  H   BCD d   1      49.778  35.728  26.244  0.00  0.00     0.133 H 
ATOM     61  H   BCD d   1      51.500  37.471  25.818  0.00  0.00     0.094 H 
ATOM     62  H   BCD d   1      52.010  37.481  28.770  0.00  0.00     0.091 H 
ATOM     63  H   BCD d   1      50.651  39.558  27.019  0.00  0.00     0.091 H 
ATOM     64  H   BCD d   1      49.694  37.798  29.253  0.00  0.00     0.090 H 
ATOM     65  H   BCD d   1      51.201  41.402  27.739  0.00  0.00     0.133 H 
ATOM     66  H   BCD d   1      52.186  43.040  29.359  0.00  0.00     0.094 H 
ATOM     67  H   BCD d   1      52.058  40.672  31.266  0.00  0.00     0.091 H 
ATOM     68  H   BCD d   1      50.810  43.409  31.548  0.00  0.00     0.091 H 
ATOM     69  H   BCD d   1      49.507  40.789  30.962  0.00  0.00     0.090 H 
ATOM     70  H   BCD d   1      50.311  43.775  33.301  0.00  0.00     0.133 H 
ATOM     71  H   BCD d   1      50.764  43.730  35.681  0.00  0.00     0.094 H 
ATOM     72  H   BCD d   1      51.442  40.790  35.326  0.00  0.00     0.091 H 
ATOM     73  H   BCD d   1      49.281  42.210  36.931  0.00  0.00     0.091 H 
ATOM     74  H   BCD d   1      49.137  40.581  34.436  0.00  0.00     0.090 H 
ATOM     75  H   BCD d   1      49.800  41.199  38.554  0.00  0.00     0.133 H 
ATOM     76  H   BCD d   1      50.505  39.158  39.924  0.00  0.00     0.094 H 
ATOM     77  H   BCD d   1      50.564  37.881  37.219  0.00  0.00     0.091 H 
ATOM     78  H   BCD d   1      49.096  37.133  39.763  0.00  0.00     0.091 H 
ATOM     79  H   BCD d   1      47.793  38.342  37.322  0.00  0.00     0.090 H 
ATOM     80  H   BCD d   1      48.013  35.492  39.705  0.00  0.00     0.133 H 
ATOM     81  H   BCD d   1      48.738  33.286  39.545  0.00  0.00     0.094 H 
ATOM     82  H   BCD d   1      50.322  34.048  37.065  0.00  0.00     0.091 H 
ATOM     83  H   BCD d   1      48.067  32.093  37.114  0.00  0.00     0.091 H 
ATOM     84  H   BCD d   1      47.894  34.880  36.107  0.00  0.00     0.090 H 
ENDROOT
BRANCH   6  85
ATOM     85  C61 BCD d   1      47.019  31.923  31.889  0.00  0.00     0.043 C 
ATOM     86  H   BCD d   1      46.125  31.997  32.508  0.00  0.00     0.078 H 
ATOM     87  H   BCD d   1      47.037  30.960  31.379  0.00  0.00     0.078 H 
BRANCH  85  88
ATOM     88  O61 BCD d   1      47.008  32.967  30.921  0.00  0.00    -0.398 OA
ATOM     89  H   BCD d   1      47.795  32.904  30.376  0.00  0.00     0.209 HD
ENDBRANCH  85  88
ENDBRANCH   6  85
BRANCH   3  90
ATOM     90  O31 BCD d   1      51.682  30.787  32.722  0.00  0.00    -0.390 OA
ATOM     91  H   BCD d   1      51.964  31.071  31.849  0.00  0.00     0.210 HD
ENDBRANCH   3  90
BRANCH   2  92
ATOM     92  O21 BCD d   1      51.343  31.345  35.322  0.00  0.00    -0.388 OA
ATOM     93  H   BCD d   1      51.196  30.986  36.200  0.00  0.00     0.210 HD
ENDBRANCH   2  92
BRANCH   9  94
ATOM     94  O22 BCD d   1      51.669  31.079  29.606  0.00  0.00    -0.388 OA
ATOM     95  H   BCD d   1      51.850  31.549  30.424  0.00  0.00     0.210 HD
ENDBRANCH   9  94
BRANCH  10  96
ATOM     96  O32 BCD d   1      52.317  33.067  27.645  0.00  0.00    -0.390 OA
ATOM     97  H   BCD d   1      52.661  33.944  27.463  0.00  0.00     0.210 HD
ENDBRANCH  10  96
BRANCH  13  98
ATOM     98  C62 BCD d   1      47.995  35.032  28.524  0.00  0.00     0.043 C 
ATOM     99  H   BCD d   1      48.040  34.962  27.437  0.00  0.00     0.078 H 
ATOM    100  H   BCD d   1      48.206  36.028  28.913  0.00  0.00     0.078 H 
BRANCH  98 101
ATOM    101  O62 BCD d   1      46.670  34.699  28.914  0.00  0.00    -0.398 OA
ATOM    102  H   BCD d   1      46.602  34.729  29.871  0.00  0.00     0.209 HD
ENDBRANCH  98 101
ENDBRANCH  13  98
BRANCH  45 103
ATOM    103  O37 BCD d   1      50.489  32.208  37.977  0.00  0.00    -0.390 OA
ATOM    104  H   BCD d   1      51.253  32.480  38.491  0.00  0.00     0.210 HD
ENDBRANCH  45 103
BRANCH  48 105
ATOM    105  C67 BCD d   1      46.152  33.625  36.087  0.00  0.00     0.043 C 
ATOM    106  H   BCD d   1      45.520  34.507  35.980  0.00  0.00     0.078 H 
ATOM    107  H   BCD d   1      45.739  32.853  36.736  0.00  0.00     0.078 H 
BRANCH 105 108
ATOM    108  O67 BCD d   1      46.294  33.051  34.791  0.00  0.00    -0.398 OA
ATOM    109  H   BCD d   1      46.867  32.282  34.844  0.00  0.00     0.209 HD
ENDBRANCH 105 108
ENDBRANCH  48 105
BRANCH  44 110
ATOM    110  O27 BCD d   1      50.464  34.431  39.601  0.00  0.00    -0.388 OA
ATOM    111  H   BCD d   1      51.062  33.687  39.701  0.00  0.00     0.210 HD
ENDBRANCH  44 110
BRANCH  16 112
ATOM    112  O23 BCD d   1      52.478  35.866  26.777  0.00  0.00    -0.388 OA
ATOM    113  H   BCD d   1      52.483  35.454  27.644  0.00  0.00     0.210 HD
ENDBRANCH  16 112
BRANCH  17 114
ATOM    114  O33 BCD d   1      53.092  38.593  27.460  0.00  0.00    -0.390 OA
ATOM    115  H   BCD d   1      53.310  39.252  28.123  0.00  0.00     0.210 HD
ENDBRANCH  17 114
BRANCH  20 116
ATOM    116  C63 BCD d   1      48.265  39.100  28.294  0.00  0.00     0.043 C 
ATOM    117  H   BCD d   1      48.291  39.738  29.177  0.00  0.00     0.078 H 
ATOM    118  H   BCD d   1      47.357  38.499  28.334  0.00  0.00     0.078 H 
BRANCH 116 119
ATOM    119  O63 BCD d   1      48.272  39.890  27.125  0.00  0.00    -0.398 OA
ATOM    120  H   BCD d   1      47.505  40.468  27.126  0.00  0.00     0.209 HD
ENDBRANCH 116 119
ENDBRANCH  20 116
BRANCH  38 121
ATOM    121  O36 BCD d   1      51.388  36.942  38.806  0.00  0.00    -0.390 OA
ATOM    122  H   BCD d   1      51.236  36.071  38.432  0.00  0.00     0.210 HD
ENDBRANCH  38 121
BRANCH  41 123
ATOM    123  C66 BCD d   1      46.754  38.057  39.257  0.00  0.00     0.043 C 
ATOM    124  H   BCD d   1      46.875  38.400  40.285  0.00  0.00     0.078 H 
ATOM    125  H   BCD d   1      46.594  36.982  39.346  0.00  0.00     0.078 H 
BRANCH 123 126
ATOM    126  O66 BCD d   1      45.693  38.692  38.616  0.00  0.00    -0.398 OA
ATOM    127  H   BCD d   1      45.862  39.636  38.579  0.00  0.00     0.209 HD
ENDBRANCH 123 126
ENDBRANCH  41 123
BRANCH  37 128
ATOM    128  O26 BCD d   1      51.837  39.752  38.466  0.00  0.00    -0.388 OA
ATOM    129  H   BCD d   1      51.892  39.782  37.508  0.00  0.00     0.210 HD
ENDBRANCH  37 128
BRANCH  23 130
ATOM    130  O24 BCD d   1      53.488  41.491  29.094  0.00  0.00    -0.388 OA
ATOM    131  H   BCD d   1      54.194  41.930  29.573  0.00  0.00     0.210 HD
ENDBRANCH  23 130
BRANCH  24 132
ATOM    132  O34 BCD d   1      53.257  42.197  31.739  0.00  0.00    -0.390 OA
ATOM    133  H   BCD d   1      53.152  42.043  32.681  0.00  0.00     0.210 HD
ENDBRANCH  24 132
BRANCH  27 134
ATOM    134  C64 BCD d   1      48.389  42.627  30.859  0.00  0.00     0.043 C 
ATOM    135  H   BCD d   1      47.984  42.933  29.894  0.00  0.00     0.078 H 
ATOM    136  H   BCD d   1      48.600  43.528  31.435  0.00  0.00     0.078 H 
BRANCH 134 137
ATOM    137  O64 BCD d   1      47.451  41.809  31.550  0.00  0.00    -0.398 OA
ATOM    138  H   BCD d   1      47.816  41.553  32.400  0.00  0.00     0.209 HD
ENDBRANCH 134 137
ENDBRANCH  27 134
BRANCH  31 139
ATOM    139  O35 BCD d   1      51.951  41.801  36.982  0.00  0.00    -0.390 OA
ATOM    140  H   BCD d   1      51.923  40.999  37.509  0.00  0.00     0.210 HD
ENDBRANCH  31 139
BRANCH  34 141
ATOM    141  C65 BCD d   1      47.279  41.197  35.244  0.00  0.00     0.043 C 
ATOM    142  H   BCD d   1      46.927  41.697  36.147  0.00  0.00     0.078 H 
ATOM    143  H   BCD d   1      47.056  40.142  35.401  0.00  0.00     0.078 H 
BRANCH 141 144
ATOM    144  O65 BCD d   1      46.648  41.697  34.092  0.00  0.00    -0.398 OA
ATOM    145  H   BCD d   1      46.967  41.221  33.322  0.00  0.00     0.209 HD
ENDBRANCH 141 144
ENDBRANCH  34 141
BRANCH  30 146
ATOM    146  O25 BCD d   1      52.443  43.235  34.696  0.00  0.00    -0.388 OA
ATOM    147  H   BCD d   1      52.454  44.085  34.250  0.00  0.00     0.210 HD
ENDBRANCH  30 146
TORSDOF 28
