REMARK  3 active torsions:
REMARK  status: ('A' for Active; 'I' for Inactive)
REMARK    1  A    between atoms: C5_5  and  C14_13 
REMARK    2  A    between atoms: O17_17  and  C5_5 
REMARK    3  A    between atoms: C80_14  and  O17_17 
ROOT
ATOM      1  C13 V63 d   1      91.310  31.696 -32.180  0.00  0.00    -0.036 C 
ATOM      2  C10 V63 d   1      89.025  29.529 -31.733  0.00  0.00    -0.014 C 
ATOM      3  C8  V63 d   1      90.887  30.310 -30.148  0.00  0.00    -0.014 C 
ATOM      4  C6  V63 d   1      91.737  30.448 -31.413  0.00  0.00     0.105 C 
ATOM      5  C12 V63 d   1      90.212  31.229 -33.124  0.00  0.00    -0.036 C 
ATOM      6  C4  V63 d   1      90.061  29.739 -32.838  0.00  0.00     0.105 C 
ATOM      7  C80 V63 d   1      89.379  30.222 -30.413  0.00  0.00     0.052 C 
ATOM      8  N   V63 d   1      91.365  29.329 -32.291  0.00  0.00    -0.067 N 
ATOM      9  H   V63 d   1      92.145  32.139 -32.723  0.00  0.00     0.036 H 
ATOM     10  H   V63 d   1      90.957  32.479 -31.509  0.00  0.00     0.036 H 
ATOM     11  H   V63 d   1      88.974  28.458 -31.535  0.00  0.00     0.039 H 
ATOM     12  H   V63 d   1      88.085  29.957 -32.083  0.00  0.00     0.039 H 
ATOM     13  H   V63 d   1      91.057  31.203 -29.546  0.00  0.00     0.039 H 
ATOM     14  H   V63 d   1      91.183  29.381 -29.660  0.00  0.00     0.039 H 
ATOM     15  H   V63 d   1      92.794  30.480 -31.148  0.00  0.00     0.084 H 
ATOM     16  H   V63 d   1      90.466  31.419 -34.167  0.00  0.00     0.036 H 
ATOM     17  H   V63 d   1      89.280  31.770 -32.962  0.00  0.00     0.036 H 
ATOM     18  H   V63 d   1      89.759  29.188 -33.728  0.00  0.00     0.084 H 
ATOM     19  H   V63 d   1      88.965  29.612 -29.610  0.00  0.00     0.084 H 
ATOM     20  H   V63 d   1      91.318  28.440 -31.793  0.00  0.00     0.278 HD
ATOM     21  H   V63 d   1      92.058  29.157 -33.020  0.00  0.00     0.278 HD
ENDROOT
BRANCH   7  22
ATOM     22  O17 V63 d   1      88.813  31.531 -30.413  0.00  0.00    -0.312 OA
BRANCH  22  23
ATOM     23  C5  V63 d   1      88.603  32.152 -29.108  0.00  0.00     0.293 C 
ATOM     24  O15 V63 d   1      88.886  31.554 -28.081  0.00  0.00    -0.259 OA
BRANCH  23  25
ATOM     25  C14 V63 d   1      88.019  33.539 -29.057  0.00  0.00     0.039 A 
ATOM     26  C3  V63 d   1      87.786  34.238 -30.247  0.00  0.00    -0.067 A 
ATOM     27  C2  V63 d   1      87.225  35.515 -30.216  0.00  0.00    -0.082 A 
ATOM     28  H   V63 d   1      88.044  33.782 -31.203  0.00  0.00     0.085 H 
ATOM     29  C7  V63 d   1      86.908  36.105 -28.992  0.00  0.00    -0.083 A 
ATOM     30  H   V63 d   1      87.035  36.051 -31.146  0.00  0.00     0.083 H 
ATOM     31  C11 V63 d   1      87.141  35.414 -27.804  0.00  0.00    -0.082 A 
ATOM     32  H   V63 d   1      86.478  37.106 -28.965  0.00  0.00     0.083 H 
ATOM     33  C1  V63 d   1      87.694  34.133 -27.835  0.00  0.00    -0.067 A 
ATOM     34  H   V63 d   1      86.891  35.875 -26.849  0.00  0.00     0.083 H 
ATOM     35  H   V63 d   1      87.873  33.595 -26.904  0.00  0.00     0.085 H 
ENDBRANCH  23  25
ENDBRANCH  22  23
ENDBRANCH   7  22
TORSDOF 3
