REMARK  3 active torsions:
REMARK  status: ('A' for Active; 'I' for Inactive)
REMARK       I    between atoms: C5_2  and  N4_3 
REMARK    1  A    between atoms: C5_2  and  C7_6 
REMARK    2  A    between atoms: N4_3  and  C3_4 
REMARK    3  A    between atoms: C7_6  and  CG_7 
ROOT
ATOM      1  CG  FP5 d   1      -1.571  -1.748  36.712  0.00  0.00    -0.050 A 
ATOM      2  CD2 FP5 d   1      -2.302  -2.331  35.682  0.00  0.00    -0.076 A 
ATOM      3  CE2 FP5 d   1      -1.681  -2.596  34.461  0.00  0.00    -0.082 A 
ATOM      4  CZ  FP5 d   1      -0.317  -2.322  34.304  0.00  0.00    -0.083 A 
ATOM      5  CE1 FP5 d   1       0.416  -1.755  35.359  0.00  0.00    -0.082 A 
ATOM      6  CD1 FP5 d   1      -0.219  -1.468  36.563  0.00  0.00    -0.076 A 
ATOM      7  H   FP5 d   1      -3.353  -2.579  35.828  0.00  0.00     0.084 H 
ATOM      8  H   FP5 d   1      -2.255  -3.014  33.634  0.00  0.00     0.083 H 
ATOM      9  H   FP5 d   1       0.178  -2.550  33.360  0.00  0.00     0.083 H 
ATOM     10  H   FP5 d   1       1.478  -1.541  35.235  0.00  0.00     0.083 H 
ATOM     11  H   FP5 d   1       0.342  -1.025  37.386  0.00  0.00     0.084 H 
ENDROOT
BRANCH   1  12
ATOM     12  C7  FP5 d   1      -2.238  -1.485  38.024  0.00  0.00     0.033 C 
ATOM     13  H   FP5 d   1      -1.726  -0.761  38.657  0.00  0.00     0.054 H 
ATOM     14  H   FP5 d   1      -3.213  -1.003  37.950  0.00  0.00     0.054 H 
BRANCH  12  15
ATOM     15  C5  FP5 d   1      -2.271  -2.893  38.576  0.00  0.00     0.221 C 
ATOM     16  O6  FP5 d   1      -3.218  -3.667  38.364  0.00  0.00    -0.273 OA
ATOM     17  N4  FP5 d   1      -1.175  -3.217  39.269  0.00  0.00    -0.371 N 
ATOM     18  H   FP5 d   1      -0.471  -2.487  39.380  0.00  0.00     0.161 HD
BRANCH  17  19
ATOM     19  C3  FP5 d   1      -0.883  -4.504  39.882  0.00  0.00    -0.045 C 
ATOM     20  B   FP5 d   1       0.522  -4.968  39.263  0.00  0.00     0.110 B 
ATOM     21  H   FP5 d   1      -1.669  -5.231  39.676  0.00  0.00     0.045 H 
ATOM     22  H   FP5 d   1      -0.834  -4.426  40.968  0.00  0.00     0.045 H 
ENDBRANCH  17  19
ENDBRANCH  12  15
ENDBRANCH   1  12
TORSDOF 3
