REMARK  7 active torsions:
REMARK  status: ('A' for Active; 'I' for Inactive)
REMARK    1  A    between atoms: C1_2  and  C2_3 
REMARK    2  A    between atoms: C1_2  and  O1_9 
REMARK    3  A    between atoms: O1_9  and  C8_10 
REMARK    4  A    between atoms: N_17  and  C15_18 
REMARK    5  A    between atoms: C15_18  and  C16_19 
REMARK    6  A    between atoms: C16_19  and  O3_20 
REMARK    7  A    between atoms: C16_19  and  C17_21 
ROOT
ATOM      1  C8  V11 d   1      90.870  30.226 -31.436  0.00  0.00     0.052 C 
ATOM      2  C12 V11 d   1      92.389  30.366 -31.288  0.00  0.00    -0.011 C 
ATOM      3  C11 V11 d   1      93.125  30.680 -32.591  0.00  0.00     0.138 C 
ATOM      4  C13 V11 d   1      92.590  31.987 -33.177  0.00  0.00    -0.034 C 
ATOM      5  C14 V11 d   1      91.443  31.571 -34.079  0.00  0.00    -0.034 C 
ATOM      6  C10 V11 d   1      91.378  30.047 -33.942  0.00  0.00     0.138 C 
ATOM      7  C9  V11 d   1      90.457  29.646 -32.788  0.00  0.00    -0.011 C 
ATOM      8  N   V11 d   1      92.723  29.622 -33.530  0.00  0.00     0.100 N 
ATOM      9  H   V11 d   1      90.560  29.552 -30.637  0.00  0.00     0.084 H 
ATOM     10  H   V11 d   1      92.765  29.407 -30.931  0.00  0.00     0.040 H 
ATOM     11  H   V11 d   1      92.569  31.201 -30.610  0.00  0.00     0.040 H 
ATOM     12  H   V11 d   1      94.200  30.748 -32.426  0.00  0.00     0.088 H 
ATOM     13  H   V11 d   1      93.360  32.529 -33.726  0.00  0.00     0.036 H 
ATOM     14  H   V11 d   1      92.263  32.675 -32.398  0.00  0.00     0.036 H 
ATOM     15  H   V11 d   1      91.603  31.881 -35.112  0.00  0.00     0.036 H 
ATOM     16  H   V11 d   1      90.505  32.047 -33.792  0.00  0.00     0.036 H 
ATOM     17  H   V11 d   1      91.026  29.608 -34.876  0.00  0.00     0.088 H 
ATOM     18  H   V11 d   1      89.464  30.032 -33.017  0.00  0.00     0.040 H 
ATOM     19  H   V11 d   1      90.499  28.560 -32.702  0.00  0.00     0.040 H 
ENDROOT
BRANCH   8  20
ATOM     20  C15 V11 d   1      93.624  29.544 -34.691  0.00  0.00     0.141 C 
ATOM     21  H   V11 d   1      94.295  30.403 -34.710  0.00  0.00     0.084 H 
ATOM     22  H   V11 d   1      93.051  29.553 -35.618  0.00  0.00     0.084 H 
BRANCH  20  23
ATOM     23  C16 V11 d   1      94.419  28.251 -34.571  0.00  0.00     0.086 C 
ATOM     24  H   V11 d   1      93.790  27.506 -34.085  0.00  0.00     0.093 H 
BRANCH  23  25
ATOM     25  O3  V11 d   1      95.597  28.490 -33.790  0.00  0.00    -0.389 OA
ATOM     26  H   V11 d   1      96.100  27.676 -33.713  0.00  0.00     0.210 HD
ENDBRANCH  23  25
BRANCH  23  27
ATOM     27  C17 V11 d   1      94.806  27.729 -35.904  0.00  0.00    -0.028 A 
ATOM     28  C22 V11 d   1      95.681  28.461 -36.719  0.00  0.00    -0.074 A 
ATOM     29  C21 V11 d   1      96.075  27.957 -37.962  0.00  0.00    -0.082 A 
ATOM     30  H   V11 d   1      96.056  29.427 -36.382  0.00  0.00     0.084 H 
ATOM     31  C20 V11 d   1      95.584  26.721 -38.390  0.00  0.00    -0.083 A 
ATOM     32  H   V11 d   1      96.760  28.524 -38.592  0.00  0.00     0.083 H 
ATOM     33  C19 V11 d   1      94.710  25.986 -37.576  0.00  0.00    -0.082 A 
ATOM     34  H   V11 d   1      95.882  26.326 -39.361  0.00  0.00     0.083 H 
ATOM     35  C18 V11 d   1      94.323  26.483 -36.328  0.00  0.00    -0.074 A 
ATOM     36  H   V11 d   1      94.331  25.023 -37.918  0.00  0.00     0.083 H 
ATOM     37  H   V11 d   1      93.652  25.907 -35.691  0.00  0.00     0.084 H 
ENDBRANCH  23  27
ENDBRANCH  20  23
ENDBRANCH   8  20
BRANCH   1  38
ATOM     38  O1  V11 d   1      90.241  31.497 -31.336  0.00  0.00    -0.312 OA
BRANCH  38  39
ATOM     39  C1  V11 d   1      90.286  32.145 -30.035  0.00  0.00     0.293 C 
ATOM     40  O2  V11 d   1      90.771  31.551 -29.080  0.00  0.00    -0.259 OA
BRANCH  39  41
ATOM     41  C2  V11 d   1      89.684  33.532 -29.907  0.00  0.00     0.039 A 
ATOM     42  C7  V11 d   1      89.607  34.365 -31.033  0.00  0.00    -0.067 A 
ATOM     43  C6  V11 d   1      89.026  35.633 -30.941  0.00  0.00    -0.082 A 
ATOM     44  H   V11 d   1      90.004  34.020 -31.988  0.00  0.00     0.085 H 
ATOM     45  C5  V11 d   1      88.519  36.086 -29.725  0.00  0.00    -0.083 A 
ATOM     46  H   V11 d   1      88.969  36.270 -31.824  0.00  0.00     0.083 H 
ATOM     47  C4  V11 d   1      88.570  35.255 -28.603  0.00  0.00    -0.082 A 
ATOM     48  H   V11 d   1      88.085  37.083 -29.649  0.00  0.00     0.083 H 
ATOM     49  C3  V11 d   1      89.143  33.981 -28.690  0.00  0.00    -0.067 A 
ATOM     50  H   V11 d   1      88.161  35.601 -27.654  0.00  0.00     0.083 H 
ATOM     51  H   V11 d   1      89.170  33.336 -27.812  0.00  0.00     0.085 H 
ENDBRANCH  39  41
ENDBRANCH  38  39
ENDBRANCH   1  38
TORSDOF 7
