REMARK  6 active torsions:
REMARK  status: ('A' for Active; 'I' for Inactive)
REMARK    1  A    between atoms: C1_2  and  C2_3 
REMARK    2  A    between atoms: C1_2  and  O1_9 
REMARK    3  A    between atoms: O1_9  and  C8_10 
REMARK    4  A    between atoms: N_17  and  C15_18 
REMARK    5  A    between atoms: C15_18  and  C16_19 
REMARK    6  A    between atoms: C16_19  and  C17_20 
ROOT
ATOM      1  C8  V37 d   1     -29.788 -87.120  29.384  0.00  0.00     0.052 C 
ATOM      2  C12 V37 d   1     -29.078 -86.515  30.606  0.00  0.00    -0.011 C 
ATOM      3  C11 V37 d   1     -29.200 -87.367  31.868  0.00  0.00     0.138 C 
ATOM      4  C13 V37 d   1     -30.675 -87.606  32.206  0.00  0.00    -0.034 C 
ATOM      5  C14 V37 d   1     -31.069 -88.854  31.419  0.00  0.00    -0.034 C 
ATOM      6  C10 V37 d   1     -29.794 -89.303  30.715  0.00  0.00     0.138 C 
ATOM      7  C9  V37 d   1     -29.775 -88.657  29.330  0.00  0.00    -0.011 C 
ATOM      8  N   V37 d   1     -28.690 -88.693  31.502  0.00  0.00     0.098 N 
ATOM      9  H   V37 d   1     -29.254 -86.790  28.493  0.00  0.00     0.084 H 
ATOM     10  H   V37 d   1     -29.548 -85.554  30.814  0.00  0.00     0.040 H 
ATOM     11  H   V37 d   1     -28.018 -86.439  30.364  0.00  0.00     0.040 H 
ATOM     12  H   V37 d   1     -28.682 -86.881  32.695  0.00  0.00     0.088 H 
ATOM     13  H   V37 d   1     -31.293 -86.749  31.937  0.00  0.00     0.036 H 
ATOM     14  H   V37 d   1     -30.825 -87.742  33.277  0.00  0.00     0.036 H 
ATOM     15  H   V37 d   1     -31.868 -88.645  30.708  0.00  0.00     0.036 H 
ATOM     16  H   V37 d   1     -31.463 -89.633  32.072  0.00  0.00     0.036 H 
ATOM     17  H   V37 d   1     -29.716 -90.387  30.633  0.00  0.00     0.088 H 
ATOM     18  H   V37 d   1     -28.855 -88.964  28.833  0.00  0.00     0.040 H 
ATOM     19  H   V37 d   1     -30.672 -88.978  28.801  0.00  0.00     0.040 H 
ENDROOT
BRANCH   8  20
ATOM     20  C15 V37 d   1     -28.429 -89.449  32.731  0.00  0.00     0.118 C 
ATOM     21  H   V37 d   1     -29.377 -89.710  33.203  0.00  0.00     0.080 H 
ATOM     22  H   V37 d   1     -27.835 -88.838  33.411  0.00  0.00     0.080 H 
BRANCH  20  23
ATOM     23  C16 V37 d   1     -27.664 -90.723  32.398  0.00  0.00    -0.016 C 
ATOM     24  H   V37 d   1     -26.805 -90.513  31.760  0.00  0.00     0.042 H 
ATOM     25  H   V37 d   1     -28.286 -91.424  31.841  0.00  0.00     0.042 H 
BRANCH  23  26
ATOM     26  C17 V37 d   1     -27.233 -91.306  33.722  0.00  0.00    -0.057 A 
ATOM     27  C22 V37 d   1     -27.933 -92.391  34.259  0.00  0.00    -0.077 A 
ATOM     28  C21 V37 d   1     -27.563 -92.916  35.498  0.00  0.00    -0.082 A 
ATOM     29  H   V37 d   1     -28.768 -92.827  33.710  0.00  0.00     0.084 H 
ATOM     30  C20 V37 d   1     -26.489 -92.366  36.192  0.00  0.00    -0.083 A 
ATOM     31  H   V37 d   1     -28.114 -93.755  35.922  0.00  0.00     0.083 H 
ATOM     32  C19 V37 d   1     -25.802 -91.281  35.653  0.00  0.00    -0.082 A 
ATOM     33  H   V37 d   1     -26.187 -92.783  37.153  0.00  0.00     0.083 H 
ATOM     34  C18 V37 d   1     -26.172 -90.735  34.425  0.00  0.00    -0.077 A 
ATOM     35  H   V37 d   1     -24.962 -90.852  36.200  0.00  0.00     0.083 H 
ATOM     36  H   V37 d   1     -25.640 -89.874  34.020  0.00  0.00     0.084 H 
ENDBRANCH  23  26
ENDBRANCH  20  23
ENDBRANCH   8  20
BRANCH   1  37
ATOM     37  O1  V37 d   1     -31.137 -86.681  29.441  0.00  0.00    -0.312 OA
BRANCH  37  38
ATOM     38  C1  V37 d   1     -31.751 -86.382  28.161  0.00  0.00     0.293 C 
ATOM     39  O2  V37 d   1     -31.178 -86.685  27.120  0.00  0.00    -0.259 OA
BRANCH  38  40
ATOM     40  C2  V37 d   1     -33.091 -85.700  28.143  0.00  0.00     0.039 A 
ATOM     41  C7  V37 d   1     -33.646 -85.250  29.334  0.00  0.00    -0.067 A 
ATOM     42  C6  V37 d   1     -34.875 -84.596  29.319  0.00  0.00    -0.082 A 
ATOM     43  H   V37 d   1     -33.122 -85.408  30.276  0.00  0.00     0.085 H 
ATOM     44  C5  V37 d   1     -35.567 -84.410  28.121  0.00  0.00    -0.083 A 
ATOM     45  H   V37 d   1     -35.301 -84.226  30.252  0.00  0.00     0.083 H 
ATOM     46  C4  V37 d   1     -35.020 -84.868  26.925  0.00  0.00    -0.082 A 
ATOM     47  H   V37 d   1     -36.534 -83.907  28.122  0.00  0.00     0.083 H 
ATOM     48  C3  V37 d   1     -33.775 -85.501  26.942  0.00  0.00    -0.067 A 
ATOM     49  H   V37 d   1     -35.557 -84.734  25.986  0.00  0.00     0.083 H 
ATOM     50  H   V37 d   1     -33.332 -85.844  26.007  0.00  0.00     0.085 H 
ENDBRANCH  38  40
ENDBRANCH  37  38
ENDBRANCH   1  37
TORSDOF 6
