REMARK  8 active torsions:
REMARK  status: ('A' for Active; 'I' for Inactive)
REMARK    1  A    between atoms: C1_2  and  C2_3 
REMARK    2  A    between atoms: C1_2  and  O1_9 
REMARK    3  A    between atoms: O1_9  and  C8_10 
REMARK    4  A    between atoms: N_17  and  C23_18 
REMARK    5  A    between atoms: N_17  and  C15_19 
REMARK    6  A    between atoms: C15_19  and  C16_20 
REMARK    7  A    between atoms: C16_20  and  O3_21 
REMARK    8  A    between atoms: C16_20  and  C17_22 
ROOT
ATOM      1  C8  V38 d   1     -88.469 -30.469 -32.415  0.00  0.00     0.052 C 
ATOM      2  C12 V38 d   1     -89.686 -31.383 -32.615  0.00  0.00    -0.013 C 
ATOM      3  C11 V38 d   1     -90.947 -30.650 -33.068  0.00  0.00     0.108 C 
ATOM      4  C13 V38 d   1     -91.287 -29.667 -31.954  0.00  0.00    -0.036 C 
ATOM      5  C14 V38 d   1     -90.611 -28.354 -32.341  0.00  0.00    -0.036 C 
ATOM      6  C10 V38 d   1     -89.890 -28.678 -33.647  0.00  0.00     0.108 C 
ATOM      7  C9  V38 d   1     -88.500 -29.198 -33.273  0.00  0.00    -0.013 C 
ATOM      8  N   V38 d   1     -90.659 -29.785 -34.234  0.00  0.00    -0.059 N 
ATOM      9  H   V38 d   1     -87.636 -31.100 -32.723  0.00  0.00     0.084 H 
ATOM     10  H   V38 d   1     -89.907 -31.841 -31.651  0.00  0.00     0.039 H 
ATOM     11  H   V38 d   1     -89.429 -32.097 -33.398  0.00  0.00     0.039 H 
ATOM     12  H   V38 d   1     -91.723 -31.379 -33.301  0.00  0.00     0.085 H 
ATOM     13  H   V38 d   1     -90.935 -30.025 -30.987  0.00  0.00     0.036 H 
ATOM     14  H   V38 d   1     -92.365 -29.543 -31.848  0.00  0.00     0.036 H 
ATOM     15  H   V38 d   1     -89.927 -27.999 -31.570  0.00  0.00     0.036 H 
ATOM     16  H   V38 d   1     -91.327 -27.540 -32.456  0.00  0.00     0.036 H 
ATOM     17  H   V38 d   1     -89.806 -27.828 -34.324  0.00  0.00     0.085 H 
ATOM     18  H   V38 d   1     -88.003 -29.448 -34.210  0.00  0.00     0.039 H 
ATOM     19  H   V38 d   1     -88.029 -28.415 -32.679  0.00  0.00     0.039 H 
ENDROOT
BRANCH   8  20
ATOM     20  C23 V38 d   1     -91.913 -29.275 -34.811  0.00  0.00     0.069 C 
ATOM     21  H   V38 d   1     -92.531 -30.113 -35.132  0.00  0.00     0.068 H 
ATOM     22  H   V38 d   1     -92.448 -28.695 -34.059  0.00  0.00     0.068 H 
ATOM     23  H   V38 d   1     -91.686 -28.640 -35.668  0.00  0.00     0.068 H 
ENDBRANCH   8  20
BRANCH   8  24
ATOM     24  C15 V38 d   1     -89.913 -30.435 -35.316  0.00  0.00     0.113 C 
ATOM     25  H   V38 d   1     -88.932 -30.750 -34.961  0.00  0.00     0.081 H 
ATOM     26  H   V38 d   1     -89.764 -29.740 -36.142  0.00  0.00     0.081 H 
BRANCH  24  27
ATOM     27  C16 V38 d   1     -90.714 -31.636 -35.779  0.00  0.00     0.084 C 
ATOM     28  H   V38 d   1     -91.750 -31.543 -35.453  0.00  0.00     0.093 H 
BRANCH  27  29
ATOM     29  O3  V38 d   1     -90.138 -32.814 -35.227  0.00  0.00    -0.389 OA
ATOM     30  H   V38 d   1     -90.640 -33.580 -35.516  0.00  0.00     0.210 HD
ENDBRANCH  27  29
BRANCH  27  31
ATOM     31  C17 V38 d   1     -90.662 -31.711 -37.243  0.00  0.00    -0.028 A 
ATOM     32  C22 V38 d   1     -91.860 -31.623 -37.971  0.00  0.00    -0.074 A 
ATOM     33  C21 V38 d   1     -91.844 -31.666 -39.370  0.00  0.00    -0.082 A 
ATOM     34  H   V38 d   1     -92.808 -31.521 -37.443  0.00  0.00     0.084 H 
ATOM     35  C20 V38 d   1     -90.607 -31.812 -40.012  0.00  0.00    -0.083 A 
ATOM     36  H   V38 d   1     -92.767 -31.588 -39.944  0.00  0.00     0.083 H 
ATOM     37  C19 V38 d   1     -89.404 -31.908 -39.276  0.00  0.00    -0.082 A 
ATOM     38  H   V38 d   1     -90.572 -31.852 -41.101  0.00  0.00     0.083 H 
ATOM     39  C18 V38 d   1     -89.424 -31.860 -37.883  0.00  0.00    -0.074 A 
ATOM     40  H   V38 d   1     -88.455 -32.020 -39.801  0.00  0.00     0.083 H 
ATOM     41  H   V38 d   1     -88.502 -31.936 -37.307  0.00  0.00     0.084 H 
ENDBRANCH  27  31
ENDBRANCH  24  27
ENDBRANCH   8  24
BRANCH   1  42
ATOM     42  O1  V38 d   1     -88.307 -30.046 -31.063  0.00  0.00    -0.312 OA
BRANCH  42  43
ATOM     43  C1  V38 d   1     -88.080 -31.065 -30.043  0.00  0.00     0.293 C 
ATOM     44  O2  V38 d   1     -87.842 -32.235 -30.322  0.00  0.00    -0.259 OA
BRANCH  43  45
ATOM     45  C2  V38 d   1     -88.140 -30.589 -28.616  0.00  0.00     0.039 A 
ATOM     46  C7  V38 d   1     -88.604 -29.287 -28.348  0.00  0.00    -0.067 A 
ATOM     47  C6  V38 d   1     -88.664 -28.805 -27.032  0.00  0.00    -0.082 A 
ATOM     48  H   V38 d   1     -88.920 -28.647 -29.172  0.00  0.00     0.085 H 
ATOM     49  C5  V38 d   1     -88.249 -29.621 -25.975  0.00  0.00    -0.083 A 
ATOM     50  H   V38 d   1     -89.033 -27.799 -26.834  0.00  0.00     0.083 H 
ATOM     51  C4  V38 d   1     -87.762 -30.905 -26.240  0.00  0.00    -0.082 A 
ATOM     52  H   V38 d   1     -88.305 -29.258 -24.949  0.00  0.00     0.083 H 
ATOM     53  C3  V38 d   1     -87.702 -31.394 -27.556  0.00  0.00    -0.067 A 
ATOM     54  H   V38 d   1     -87.425 -31.534 -25.416  0.00  0.00     0.083 H 
ATOM     55  H   V38 d   1     -87.317 -32.395 -27.751  0.00  0.00     0.085 H 
ENDBRANCH  43  45
ENDBRANCH  42  43
ENDBRANCH   1  42
TORSDOF 8
