REMARK  6 active torsions:
REMARK  status: ('A' for Active; 'I' for Inactive)
REMARK       I    between atoms: C5_2  and  N4_3 
REMARK    1  A    between atoms: C5_2  and  C7_8 
REMARK    2  A    between atoms: N4_3  and  C3_4 
REMARK    3  A    between atoms: C3_4  and  B_5 
REMARK    4  A    between atoms: B_5  and  O2_6 
REMARK    5  A    between atoms: B_5  and  O1_7 
REMARK    6  A    between atoms: C14_9  and  N15_10 
ROOT
ATOM      1  C7  ZA3 d   1      -2.088   1.385  36.093  0.00  0.00     0.065 A 
ATOM      2  C14 ZA3 d   1      -2.769   2.345  35.357  0.00  0.00     0.118 A 
ATOM      3  C8  ZA3 d   1      -2.068   1.407  37.474  0.00  0.00    -0.065 A 
ATOM      4  C11 ZA3 d   1      -2.756   2.388  38.164  0.00  0.00    -0.082 A 
ATOM      5  C12 ZA3 d   1      -3.450   3.358  37.450  0.00  0.00    -0.081 A 
ATOM      6  C13 ZA3 d   1      -3.462   3.334  36.052  0.00  0.00    -0.050 A 
ATOM      7  H   ZA3 d   1      -1.508   0.649  38.022  0.00  0.00     0.085 H 
ATOM      8  H   ZA3 d   1      -2.754   2.401  39.254  0.00  0.00     0.083 H 
ATOM      9  H   ZA3 d   1      -3.988   4.142  37.983  0.00  0.00     0.083 H 
ATOM     10  H   ZA3 d   1      -4.017   4.094  35.502  0.00  0.00     0.087 H 
ENDROOT
BRANCH   1  11
ATOM     11  C5  ZA3 d   1      -1.276   0.287  35.532  0.00  0.00     0.253 C 
ATOM     12  O6  ZA3 d   1      -0.116   0.548  35.265  0.00  0.00    -0.268 OA
ATOM     13  N4  ZA3 d   1      -1.797  -0.914  35.395  0.00  0.00    -0.360 N 
ATOM     14  H   ZA3 d   1      -2.786  -1.023  35.618  0.00  0.00     0.161 HD
BRANCH  13  15
ATOM     15  C3  ZA3 d   1      -1.088  -2.083  34.958  0.00  0.00     0.030 C 
ATOM     16  H   ZA3 d   1      -0.136  -1.897  34.461  0.00  0.00     0.057 H 
ATOM     17  H   ZA3 d   1      -1.565  -2.651  34.160  0.00  0.00     0.057 H 
BRANCH  15  18
ATOM     18  B   ZA3 d   1      -0.995  -2.825  36.374  0.00  0.00     0.510 B 
BRANCH  18  19
ATOM     19  O2  ZA3 d   1      -2.069  -3.911  36.421  0.00  0.00    -0.436 OA
ATOM     20  H   ZA3 d   1      -1.961  -4.432  37.220  0.00  0.00     0.184 HD
ENDBRANCH  18  19
BRANCH  18  21
ATOM     21  O1  ZA3 d   1      -1.081  -1.869  37.590  0.00  0.00    -0.436 OA
ATOM     22  H   ZA3 d   1      -0.964  -2.372  38.400  0.00  0.00     0.184 HD
ENDBRANCH  18  21
ENDBRANCH  15  18
ENDBRANCH  13  15
ENDBRANCH   1  11
BRANCH   2  23
ATOM     23  N15 ZA3 d   1      -2.809   2.360  33.995  0.00  0.00    -0.115 N 
ATOM     24  O16 ZA3 d   1      -3.531   3.349  33.323  0.00  0.00    -0.532 OA
ATOM     25  O17 ZA3 d   1      -2.138   1.393  33.251  0.00  0.00    -0.532 OA
ENDBRANCH   2  23
TORSDOF 6
