REMARK  2 active torsions:
REMARK  status: ('A' for Active; 'I' for Inactive)
REMARK       I    between atoms: C10_11  and  N7_8 
REMARK    1  A    between atoms: S8_9  and  N9_10 
REMARK    2  A    between atoms: C14_15  and  S8_9 
REMARK       I    between atoms: N9_10  and  C10_11 
ROOT
ATOM      1  S8  RO8 d   1      38.672  13.242 -21.708  0.00  0.00     0.266 S 
ATOM      2  O12 RO8 d   1      39.103  13.268 -20.335  0.00  0.00    -0.200 OA
ATOM      3  O13 RO8 d   1      39.200  14.415 -22.350  0.00  0.00    -0.200 OA
ENDROOT
BRANCH   1   4
ATOM      4  N9  RO8 d   1      39.237  12.026 -22.444  0.00  0.00    -0.232 N 
ATOM      5  C10 RO8 d   1      39.310  10.776 -21.993  0.00  0.00     0.335 C 
ATOM      6  N7  RO8 d   1      39.871   9.906 -22.823  0.00  0.00    -0.286 N 
ATOM      7  O11 RO8 d   1      38.873  10.431 -20.906  0.00  0.00    -0.246 OA
ATOM      8  C2  RO8 d   1      40.094   8.623 -22.531  0.00  0.00     0.175 A 
ATOM      9  H2  RO8 d   1      40.145  10.233 -23.727  0.00  0.00     0.172 HD
ATOM     10  S1  RO8 d   1      39.437   7.945 -21.073  0.00  0.00    -0.043 SA
ATOM     11  N3  RO8 d   1      40.922   7.819 -23.257  0.00  0.00    -0.235 NA
ATOM     12  C5  RO8 d   1      40.264   6.519 -21.515  0.00  0.00     0.072 A 
ATOM     13  C4  RO8 d   1      40.988   6.601 -22.664  0.00  0.00     0.029 A 
ATOM     14 BR6  RO8 d   1      40.121   4.958 -20.405  0.00  0.00    -0.041 Br
ATOM     15  H1  RO8 d   1      41.564   5.770 -23.068  0.00  0.00     0.117 H 
ATOM     16  H3  RO8 d   1      39.590  12.188 -23.365  0.00  0.00     0.183 HD
ENDBRANCH   1   4
BRANCH   1  17
ATOM     17  C14 RO8 d   1      36.965  13.274 -21.779  0.00  0.00     0.081 A 
ATOM     18  C15 RO8 d   1      36.205  12.909 -20.681  0.00  0.00    -0.039 A 
ATOM     19  C17 RO8 d   1      34.810  12.957 -20.782  0.00  0.00     0.035 A 
ATOM     20  H4  RO8 d   1      36.681  12.592 -19.760  0.00  0.00     0.088 H 
ATOM     21 CL   RO8 d   1      33.798  12.481 -19.392  0.00  0.00    -0.084 Cl
ATOM     22  C19 RO8 d   1      34.177  13.381 -21.944  0.00  0.00    -0.062 A 
ATOM     23  C18 RO8 d   1      34.952  13.767 -23.023  0.00  0.00    -0.080 A 
ATOM     24  H7  RO8 d   1      33.095  13.409 -22.004  0.00  0.00     0.086 H 
ATOM     25  C16 RO8 d   1      36.345  13.712 -22.929  0.00  0.00    -0.060 A 
ATOM     26  H6  RO8 d   1      34.481  14.110 -23.937  0.00  0.00     0.083 H 
ATOM     27  H5  RO8 d   1      36.949  14.019 -23.776  0.00  0.00     0.085 H 
ENDBRANCH   1  17
TORSDOF 2
