REMARK  12 active torsions:
REMARK  status: ('A' for Active; 'I' for Inactive)
REMARK    1  A    between atoms: CG_4  and  CD_2 
REMARK    2  A    between atoms: CB_5  and  CG_4 
REMARK    3  A    between atoms: CA_28  and  CB_5 
REMARK    4  A    between atoms: CA_28  and  C_6 
REMARK    5  A    between atoms: N_9  and  CA_28 
REMARK    6  A    between atoms: SAU_32  and  N_9 
REMARK    7  A    between atoms: CAS_13  and  SAU_32 
REMARK    8  A    between atoms: CAN_17  and  CAO_16 
REMARK    9  A    between atoms: OAY_35  and  CAN_17 
REMARK   10  A    between atoms: CAA_18  and  OAY_35 
REMARK   11  A    between atoms: CAH_24  and  CAF_23 
REMARK   12  A    between atoms: CAI_30  and  CAH_24 
ROOT
ATOM      1  CAT N21 d   1      44.872   2.927  16.867  0.00  0.00    -0.060 A 
ATOM      2  CAQ N21 d   1      45.433   1.836  16.192  0.00  0.00    -0.073 A 
ATOM      3  CAS N21 d   1      43.781   2.735  17.729  0.00  0.00     0.079 A 
ATOM      4  CAR N21 d   1      43.255   1.446  17.901  0.00  0.00    -0.060 A 
ATOM      5  CAP N21 d   1      43.813   0.360  17.226  0.00  0.00    -0.073 A 
ATOM      6  CAO N21 d   1      44.907   0.546  16.371  0.00  0.00    -0.034 A 
ATOM      7  H6  N21 d   1      45.281   3.921  16.724  0.00  0.00     0.085 H 
ATOM      8  H7  N21 d   1      46.277   1.988  15.528  0.00  0.00     0.084 H 
ATOM      9  H8  N21 d   1      42.410   1.293  18.562  0.00  0.00     0.085 H 
ATOM     10  H9  N21 d   1      43.398  -0.632  17.364  0.00  0.00     0.084 H 
ENDROOT
BRANCH   6  11
ATOM     11  CAN N21 d   1      45.489  -0.664  15.649  0.00  0.00     0.050 C 
ATOM     12  H10 N21 d   1      45.301  -0.548  14.571  0.00  0.00     0.082 H 
ATOM     13  H11 N21 d   1      44.977  -1.566  16.016  0.00  0.00     0.082 H 
BRANCH  11  14
ATOM     14  OAY N21 d   1      46.900  -0.832  15.847  0.00  0.00    -0.347 OA
BRANCH  14  15
ATOM     15  CAA N21 d   1      47.450  -1.009  17.099  0.00  0.00     0.069 A 
ATOM     16  CAB N21 d   1      46.898  -0.359  18.205  0.00  0.00    -0.050 A 
ATOM     17  CAG N21 d   1      47.443  -0.522  19.476  0.00  0.00    -0.070 A 
ATOM     18  H12 N21 d   1      46.033   0.281  18.072  0.00  0.00     0.087 H 
ATOM     19  CAF N21 d   1      48.565  -1.327  19.648  0.00  0.00    -0.035 A 
ATOM     20  H13 N21 d   1      46.995  -0.024  20.328  0.00  0.00     0.084 H 
ATOM     21  CAE N21 d   1      49.117  -1.989  18.547  0.00  0.00    -0.070 A 
ATOM     22  CAC N21 d   1      48.567  -1.828  17.273  0.00  0.00    -0.050 A 
ATOM     23  H15 N21 d   1      49.979  -2.632  18.683  0.00  0.00     0.084 H 
ATOM     24  H14 N21 d   1      49.006  -2.337  16.423  0.00  0.00     0.087 H 
BRANCH  19  25
ATOM     25  CAH N21 d   1      49.099  -1.458  21.058  0.00  0.00    -0.052 C 
ATOM     26  H16 N21 d   1      48.403  -1.462  21.895  0.00  0.00     0.087 H 
BRANCH  25  27
ATOM     27  CAI N21 d   1      50.596  -1.585  21.327  0.00  0.00     0.063 A 
ATOM     28  SBG N21 d   1      51.844  -1.504  20.084  0.00  0.00    -0.040 SA
ATOM     29  CAL N21 d   1      52.971  -1.736  21.397  0.00  0.00     0.224 A 
ATOM     30  NAX N21 d   1      52.513  -1.860  22.649  0.00  0.00    -0.306 N 
ATOM     31  OBH N21 d   1      54.419  -1.816  21.172  0.00  0.00    -0.164 OA
ATOM     32  CAK N21 d   1      51.175  -1.771  22.564  0.00  0.00     0.198 A 
ATOM     33  H17 N21 d   1      53.056  -1.992  23.478  0.00  0.00     0.170 HD
ATOM     34  OBE N21 d   1      50.314  -1.863  23.765  0.00  0.00    -0.171 OA
ENDBRANCH  25  27
ENDBRANCH  19  25
ENDBRANCH  14  15
ENDBRANCH  11  14
ENDBRANCH   6  11
BRANCH   3  35
ATOM     35  SAU N21 d   1      43.088   3.966  18.504  0.00  0.00     0.259 S 
ATOM     36  OBC N21 d   1      43.387   5.181  17.808  0.00  0.00    -0.201 OA
ATOM     37  OBD N21 d   1      43.525   4.032  19.868  0.00  0.00    -0.201 OA
BRANCH  35  38
ATOM     38  N   N21 d   1      41.576   3.721  18.456  0.00  0.00    -0.300 N 
ATOM     39  H5  N21 d   1      41.120   3.640  17.570  0.00  0.00     0.173 HD
BRANCH  38  40
ATOM     40  CA  N21 d   1      40.788   3.603  19.680  0.00  0.00     0.104 C 
ATOM     41  H18 N21 d   1      41.425   3.249  20.504  0.00  0.00     0.090 H 
BRANCH  40  42
ATOM     42  CB  N21 d   1      39.719   2.561  19.350  0.00  0.00    -0.027 C 
ATOM     43  H3  N21 d   1      39.105   2.920  18.511  0.00  0.00     0.037 H 
ATOM     44  H4  N21 d   1      40.205   1.615  19.070  0.00  0.00     0.037 H 
BRANCH  42  45
ATOM     45  CG  N21 d   1      38.834   2.334  20.560  0.00  0.00     0.018 C 
ATOM     46  H1  N21 d   1      39.480   2.235  21.444  0.00  0.00     0.049 H 
ATOM     47  H2  N21 d   1      38.182   3.212  20.678  0.00  0.00     0.049 H 
BRANCH  45  48
ATOM     48  CD  N21 d   1      37.955   1.100  20.476  0.00  0.00     0.172 C 
ATOM     49  OE1 N21 d   1      37.142   0.945  21.409  0.00  0.00    -0.648 OA
ATOM     50  OE2 N21 d   1      38.047   0.284  19.526  0.00  0.00    -0.648 OA
ENDBRANCH  45  48
ENDBRANCH  42  45
ENDBRANCH  40  42
BRANCH  40  51
ATOM     51  C   N21 d   1      40.149   4.919  20.086  0.00  0.00     0.197 C 
ATOM     52  OXT N21 d   1      40.029   5.212  21.306  0.00  0.00    -0.646 OA
ATOM     53  O   N21 d   1      39.760   5.683  19.171  0.00  0.00    -0.646 OA
ENDBRANCH  40  51
ENDBRANCH  38  40
ENDBRANCH  35  38
ENDBRANCH   3  35
TORSDOF 12
