REMARK  7 active torsions:
REMARK  status: ('A' for Active; 'I' for Inactive)
REMARK    1  A    between atoms: N_1  and  CA_2 
REMARK    2  A    between atoms: S1_16  and  N_1 
REMARK    3  A    between atoms: CA_2  and  C_3 
REMARK    4  A    between atoms: CA_2  and  CB_5 
REMARK    5  A    between atoms: CB_5  and  CG_6 
REMARK    6  A    between atoms: C7_19  and  S1_16 
REMARK    7  A    between atoms: C2_17  and  C3_18 
ROOT
ATOM      1  CA  TQI d   1      -7.676 -17.562  -9.038  0.00  0.00     0.107 C 
ATOM      2  H   TQI d   1      -8.201 -17.212  -9.927  0.00  0.00     0.091 H 
ENDROOT
BRANCH   1   3
ATOM      3  N   TQI d   1      -7.467 -16.545  -7.998  0.00  0.00    -0.300 N 
ATOM      4  H   TQI d   1      -6.718 -16.618  -7.310  0.00  0.00     0.173 HD
BRANCH   3   5
ATOM      5  S1  TQI d   1      -8.557 -15.235  -8.016  0.00  0.00     0.259 S 
ATOM      6  O14 TQI d   1      -8.901 -14.884  -9.383  0.00  0.00    -0.201 OA
ATOM      7  O15 TQI d   1      -8.047 -14.210  -7.134  0.00  0.00    -0.201 OA
BRANCH   5   8
ATOM      8  C7  TQI d   1     -10.064 -15.872  -7.310  0.00  0.00     0.080 A 
ATOM      9  C8  TQI d   1     -10.236 -15.832  -5.951  0.00  0.00    -0.044 A 
ATOM     10  C2  TQI d   1     -11.402 -16.318  -5.411  0.00  0.00     0.071 A 
ATOM     11  H   TQI d   1      -9.459 -15.420  -5.308  0.00  0.00     0.087 H 
ATOM     12  C16 TQI d   1     -12.387 -16.831  -6.234  0.00  0.00     0.049 A 
ATOM     13  C23 TQI d   1     -12.204 -16.860  -7.598  0.00  0.00    -0.060 A 
ATOM     14 CL   TQI d   1     -13.876 -17.453  -5.598  0.00  0.00    -0.083 Cl
ATOM     15  C19 TQI d   1     -11.034 -16.380  -8.140  0.00  0.00    -0.059 A 
ATOM     16  H   TQI d   1     -12.983 -17.262  -8.246  0.00  0.00     0.086 H 
ATOM     17  H   TQI d   1     -10.878 -16.402  -9.219  0.00  0.00     0.086 H 
BRANCH  10  18
ATOM     18  C3  TQI d   1     -11.536 -16.251  -3.931  0.00  0.00     0.419 C 
ATOM     19  F20 TQI d   1     -10.496 -15.599  -3.352  0.00  0.00    -0.166 F 
ATOM     20  F21 TQI d   1     -11.533 -17.475  -3.346  0.00  0.00    -0.166 F 
ATOM     21  F22 TQI d   1     -12.662 -15.595  -3.533  0.00  0.00    -0.166 F 
ENDBRANCH  10  18
ENDBRANCH   5   8
ENDBRANCH   3   5
ENDBRANCH   1   3
BRANCH   1  22
ATOM     22  C   TQI d   1      -8.425 -18.651  -8.324  0.00  0.00     0.197 C 
ATOM     23  O   TQI d   1      -8.347 -18.935  -7.137  0.00  0.00    -0.646 OA
ATOM     24  OXT TQI d   1      -9.247 -19.292  -9.171  0.00  0.00    -0.646 OA
ENDBRANCH   1  22
BRANCH   1  25
ATOM     25  CB  TQI d   1      -6.306 -18.068  -9.412  0.00  0.00    -0.010 C 
ATOM     26  H   TQI d   1      -5.552 -17.477  -8.892  0.00  0.00     0.044 H 
ATOM     27  H   TQI d   1      -6.174 -17.979 -10.490  0.00  0.00     0.044 H 
BRANCH  25  28
ATOM     28  CG  TQI d   1      -6.165 -19.473  -9.025  0.00  0.00    -0.028 A 
ATOM     29  CD1 TQI d   1      -5.919 -19.962  -7.759  0.00  0.00    -0.015 A 
ATOM     30  NE1 TQI d   1      -5.869 -21.319  -7.861  0.00  0.00    -0.365 N 
ATOM     31  H   TQI d   1      -5.789 -19.374  -6.850  0.00  0.00     0.112 H 
ATOM     32  CE2 TQI d   1      -6.075 -21.722  -9.153  0.00  0.00     0.042 A 
ATOM     33  H   TQI d   1      -5.700 -21.951  -7.079  0.00  0.00     0.165 HD
ATOM     34  CD2 TQI d   1      -6.266 -20.580  -9.906  0.00  0.00    -0.002 A 
ATOM     35  CZ2 TQI d   1      -6.101 -22.995  -9.668  0.00  0.00    -0.056 A 
ATOM     36  CE3 TQI d   1      -6.502 -20.674 -11.264  0.00  0.00    -0.070 A 
ATOM     37  CZ3 TQI d   1      -6.532 -21.942 -11.791  0.00  0.00    -0.082 A 
ATOM     38  H   TQI d   1      -6.656 -19.790 -11.883  0.00  0.00     0.084 H 
ATOM     39  CH2 TQI d   1      -6.339 -23.062 -11.021  0.00  0.00    -0.081 A 
ATOM     40  H   TQI d   1      -6.716 -22.063 -12.859  0.00  0.00     0.083 H 
ATOM     41  H   TQI d   1      -6.376 -24.041 -11.500  0.00  0.00     0.083 H 
ATOM     42  H   TQI d   1      -5.945 -23.882  -9.053  0.00  0.00     0.086 H 
ENDBRANCH  25  28
ENDBRANCH   1  25
TORSDOF 7
