REMARK  10 active torsions:
REMARK  status: ('A' for Active; 'I' for Inactive)
REMARK    1  A    between atoms: N1_1  and  S2_2 
REMARK    2  A    between atoms: S2_2  and  C5_5 
REMARK    3  A    between atoms: C5_5  and  C10_10 
REMARK    4  A    between atoms: C10_10  and  C12_12 
REMARK    5  A    between atoms: C10_10  and  N13_13 
REMARK    6  A    between atoms: N11_11  and  C14_14 
REMARK    7  A    between atoms: C12_12  and  C15_15 
REMARK       I    between atoms: N13_13  and  C16_16 
REMARK    8  A    between atoms: N13_13  and  O17_17 
REMARK    9  A    between atoms: C15_15  and  C20_20 
REMARK   10  A    between atoms: C20_20  and  C24_24 
ROOT
ATOM      1  C5  TQJ d   1     -15.827   9.447   1.595  0.00  0.00     0.059 C 
ATOM      2  H   TQJ d   1     -15.015   8.968   1.048  0.00  0.00     0.060 H 
ATOM      3  H   TQJ d   1     -16.313  10.209   0.986  0.00  0.00     0.060 H 
ENDROOT
BRANCH   1   4
ATOM      4  S2  TQJ d   1     -15.158  10.220   3.047  0.00  0.00     0.213 S 
ATOM      5  O6  TQJ d   1     -13.940  10.907   2.659  0.00  0.00    -0.211 OA
ATOM      6  O7  TQJ d   1     -15.161   9.245   4.121  0.00  0.00    -0.211 OA
BRANCH   4   7
ATOM      7  N1  TQJ d   1     -16.349  11.402   3.378  0.00  0.00    -0.208 NA
ATOM      8  C3  TQJ d   1     -16.083  12.665   2.654  0.00  0.00     0.004 C 
ATOM      9  C8  TQJ d   1     -17.053  13.747   3.053  0.00  0.00    -0.003 C 
ATOM     10  H   TQJ d   1     -16.194  12.480   1.586  0.00  0.00     0.059 H 
ATOM     11  H   TQJ d   1     -15.075  12.998   2.901  0.00  0.00     0.059 H 
ATOM     12  N11 TQJ d   1     -16.944  13.858   4.482  0.00  0.00    -0.266 NA
ATOM     13  H   TQJ d   1     -18.070  13.501   2.749  0.00  0.00     0.058 H 
ATOM     14  H   TQJ d   1     -16.820  14.691   2.562  0.00  0.00     0.058 H 
ATOM     15  C9  TQJ d   1     -17.487  12.706   5.148  0.00  0.00    -0.003 C 
ATOM     16  C4  TQJ d   1     -16.551  11.568   4.835  0.00  0.00     0.004 C 
ATOM     17  H   TQJ d   1     -17.564  12.870   6.223  0.00  0.00     0.058 H 
ATOM     18  H   TQJ d   1     -18.499  12.491   4.805  0.00  0.00     0.058 H 
ATOM     19  H   TQJ d   1     -15.585  11.786   5.291  0.00  0.00     0.059 H 
ATOM     20  H   TQJ d   1     -16.988  10.649   5.226  0.00  0.00     0.059 H 
BRANCH  12  21
ATOM     21  C14 TQJ d   1     -17.556  15.027   4.938  0.00  0.00     0.105 A 
ATOM     22  C18 TQJ d   1     -18.110  15.873   4.004  0.00  0.00    -0.043 A 
ATOM     23  C22 TQJ d   1     -18.716  17.037   4.413  0.00  0.00    -0.062 A 
ATOM     24  H   TQJ d   1     -18.068  15.621   2.944  0.00  0.00     0.088 H 
ATOM     25  C25 TQJ d   1     -18.736  17.303   5.759  0.00  0.00     0.028 A 
ATOM     26  H   TQJ d   1     -19.164  17.723   3.695  0.00  0.00     0.085 H 
ATOM     27  C23 TQJ d   1     -18.160  16.409   6.626  0.00  0.00     0.021 A 
ATOM     28 BR28 TQJ d   1     -19.544  18.879   6.421  0.00  0.00    -0.050 Br
ATOM     29  N19 TQJ d   1     -17.569  15.275   6.250  0.00  0.00    -0.247 NA
ATOM     30  H   TQJ d   1     -18.188  16.641   7.691  0.00  0.00     0.117 H 
ENDBRANCH  12  21
ENDBRANCH   4   7
ENDBRANCH   1   4
BRANCH   1  31
ATOM     31  C10 TQJ d   1     -16.849   8.396   1.962  0.00  0.00     0.040 C 
ATOM     32  H   TQJ d   1     -16.467   7.746   2.750  0.00  0.00     0.069 H 
BRANCH  31  33
ATOM     33  C12 TQJ d   1     -17.152   7.554   0.742  0.00  0.00    -0.046 C 
ATOM     34  H   TQJ d   1     -16.223   7.388   0.197  0.00  0.00     0.035 H 
ATOM     35  H   TQJ d   1     -17.884   8.082   0.131  0.00  0.00     0.035 H 
BRANCH  33  36
ATOM     36  C15 TQJ d   1     -17.728   6.210   1.127  0.00  0.00    -0.057 C 
ATOM     37  H   TQJ d   1     -18.497   6.347   1.887  0.00  0.00     0.033 H 
ATOM     38  H   TQJ d   1     -16.937   5.575   1.525  0.00  0.00     0.033 H 
BRANCH  36  39
ATOM     39  C20 TQJ d   1     -18.334   5.557  -0.093  0.00  0.00    -0.008 C 
ATOM     40  H   TQJ d   1     -17.572   5.482  -0.869  0.00  0.00     0.044 H 
ATOM     41  H   TQJ d   1     -19.173   6.161  -0.437  0.00  0.00     0.044 H 
BRANCH  39  42
ATOM     42  C24 TQJ d   1     -18.826   4.189   0.235  0.00  0.00     0.125 A 
ATOM     43  N26 TQJ d   1     -20.135   4.069   0.475  0.00  0.00    -0.246 NA
ATOM     44  C29 TQJ d   1     -20.547   2.833   0.764  0.00  0.00     0.005 A 
ATOM     45  C31 TQJ d   1     -19.707   1.750   0.815  0.00  0.00    -0.049 A 
ATOM     46  H   TQJ d   1     -21.606   2.676   0.970  0.00  0.00     0.114 H 
ATOM     47  C30 TQJ d   1     -18.385   2.003   0.547  0.00  0.00     0.005 A 
ATOM     48  H   TQJ d   1     -20.067   0.749   1.054  0.00  0.00     0.087 H 
ATOM     49  N27 TQJ d   1     -17.912   3.215   0.254  0.00  0.00    -0.246 NA
ATOM     50  H   TQJ d   1     -17.684   1.169   0.575  0.00  0.00     0.114 H 
ENDBRANCH  39  42
ENDBRANCH  36  39
ENDBRANCH  33  36
ENDBRANCH  31  33
BRANCH  31  51
ATOM     51  N13 TQJ d   1     -18.038   9.055   2.429  0.00  0.00    -0.134 NA
ATOM     52  C16 TQJ d   1     -18.783   8.527   3.447  0.00  0.00     0.175 C 
ATOM     53  O21 TQJ d   1     -19.741   9.054   3.992  0.00  0.00    -0.287 OA
ATOM     54  H   TQJ d   1     -18.494   7.540   3.807  0.00  0.00     0.174 H 
BRANCH  51  55
ATOM     55  O17 TQJ d   1     -18.867   9.390   1.341  0.00  0.00    -0.306 OA
ATOM     56  H   TQJ d   1     -18.332   9.759   0.634  0.00  0.00     0.237 HD
ENDBRANCH  51  55
ENDBRANCH  31  51
ENDBRANCH   1  31
TORSDOF 10
