REMARK  10 active torsions:
REMARK  status: ('A' for Active; 'I' for Inactive)
REMARK    1  A    between atoms: C3_3  and  C2_2 
REMARK       I    between atoms: N2_22  and  C3_3 
REMARK    2  A    between atoms: N6_4  and  C20_16 
REMARK    3  A    between atoms: C9_7  and  C10_8 
REMARK    4  A    between atoms: N_18  and  C11_9 
REMARK    5  A    between atoms: C13_11  and  N5_30 
REMARK    6  A    between atoms: C14_12  and  C15_13 
REMARK    7  A    between atoms: C20_16  and  C21_17 
REMARK    8  A    between atoms: C21_17  and  O1_33 
REMARK    9  A    between atoms: C_19  and  N_18 
REMARK   10  A    between atoms: N2_22  and  C4_23 
ROOT
ATOM      1  C11 1N1 d   1      23.898  60.531  28.615  0.00  0.00     0.135 A 
ATOM      2  C12 1N1 d   1      22.862  61.457  28.331  0.00  0.00     0.006 A 
ATOM      3  C13 1N1 d   1      21.602  60.978  28.437  0.00  0.00     0.131 A 
ATOM      4  C14 1N1 d   1      22.380  58.844  29.079  0.00  0.00     0.126 A 
ATOM      5  N3  1N1 d   1      21.363  59.658  28.817  0.00  0.00    -0.216 NA
ATOM      6  N4  1N1 d   1      23.638  59.260  28.974  0.00  0.00    -0.216 NA
ATOM      7  H8  1N1 d   1      23.067  62.483  28.047  0.00  0.00     0.095 H 
ENDROOT
BRANCH   1   8
ATOM      8  N   1N1 d   1      25.255  60.979  28.513  0.00  0.00    -0.320 N 
ATOM      9  H20 1N1 d   1      25.456  61.934  28.185  0.00  0.00     0.169 HD
BRANCH   8  10
ATOM     10  C   1N1 d   1      26.340  60.098  28.867  0.00  0.00     0.172 A 
ATOM     11  N1  1N1 d   1      27.633  60.639  28.820  0.00  0.00    -0.235 NA
ATOM     12  C1  1N1 d   1      28.598  59.634  29.192  0.00  0.00     0.027 A 
ATOM     13  C2  1N1 d   1      27.920  58.418  29.470  0.00  0.00     0.094 A 
ATOM     14  H1  1N1 d   1      29.675  59.784  29.250  0.00  0.00     0.117 H 
ATOM     15  S   1N1 d   1      26.327  58.524  29.304  0.00  0.00    -0.045 SA
BRANCH  13  16
ATOM     16  C3  1N1 d   1      28.653  57.153  29.885  0.00  0.00     0.264 C 
ATOM     17  N2  1N1 d   1      30.031  57.295  30.271  0.00  0.00    -0.320 N 
ATOM     18  H21 1N1 d   1      30.466  58.195  30.252  0.00  0.00     0.169 HD
ATOM     19  O   1N1 d   1      28.065  56.089  29.873  0.00  0.00    -0.267 OA
BRANCH  17  20
ATOM     20  C4  1N1 d   1      30.776  56.152  30.680  0.00  0.00     0.062 A 
ATOM     21  C9  1N1 d   1      31.038  56.005  32.029  0.00  0.00    -0.034 A 
ATOM     22  C8  1N1 d   1      31.781  54.864  32.439  0.00  0.00    -0.075 A 
ATOM     23  C7  1N1 d   1      32.217  53.938  31.506  0.00  0.00    -0.081 A 
ATOM     24  H4  1N1 d   1      32.008  54.718  33.489  0.00  0.00     0.084 H 
ATOM     25  C6  1N1 d   1      31.949  54.096  30.163  0.00  0.00    -0.060 A 
ATOM     26  H3  1N1 d   1      32.779  53.073  31.838  0.00  0.00     0.083 H 
ATOM     27  C5  1N1 d   1      31.209  55.235  29.744  0.00  0.00     0.061 A 
ATOM     28  H22 1N1 d   1      32.296  53.366  29.441  0.00  0.00     0.086 H 
ATOM     29 CL   1N1 d   1      30.858  55.457  28.103  0.00  0.00    -0.082 Cl
BRANCH  21  30
ATOM     30  C10 1N1 d   1      30.558  57.002  33.050  0.00  0.00    -0.049 C 
ATOM     31  H5  1N1 d   1      30.880  56.684  34.053  0.00  0.00     0.033 H 
ATOM     32  H6  1N1 d   1      29.460  57.059  33.019  0.00  0.00     0.033 H 
ATOM     33  H7  1N1 d   1      30.983  57.991  32.825  0.00  0.00     0.033 H 
ENDBRANCH  21  30
ENDBRANCH  17  20
ENDBRANCH  13  16
ENDBRANCH   8  10
ENDBRANCH   1   8
BRANCH   3  34
ATOM     34  N5  1N1 d   1      20.529  61.819  28.172  0.00  0.00    -0.362 N 
ATOM     35  C16 1N1 d   1      20.652  63.177  27.764  0.00  0.00     0.019 C 
ATOM     36  C17 1N1 d   1      19.522  63.580  26.880  0.00  0.00     0.098 C 
ATOM     37  H12 1N1 d   1      21.598  63.303  27.217  0.00  0.00     0.066 H 
ATOM     38  H13 1N1 d   1      20.656  63.821  28.656  0.00  0.00     0.066 H 
ATOM     39  N6  1N1 d   1      18.239  63.247  27.441  0.00  0.00    -0.066 N 
ATOM     40  H23 1N1 d   1      19.567  64.668  26.723  0.00  0.00     0.078 H 
ATOM     41  H24 1N1 d   1      19.629  63.066  25.914  0.00  0.00     0.078 H 
ATOM     42  C18 1N1 d   1      18.143  61.876  27.875  0.00  0.00     0.098 C 
ATOM     43  H2  1N1 d   1      17.679  63.207  26.604  0.00  0.00     0.280 HD
ATOM     44  C19 1N1 d   1      19.272  61.506  28.771  0.00  0.00     0.019 C 
ATOM     45  H25 1N1 d   1      18.158  61.220  26.992  0.00  0.00     0.078 H 
ATOM     46  H26 1N1 d   1      17.196  61.739  28.418  0.00  0.00     0.078 H 
ATOM     47  H14 1N1 d   1      19.177  62.061  29.716  0.00  0.00     0.066 H 
ATOM     48  H15 1N1 d   1      19.230  60.426  28.974  0.00  0.00     0.066 H 
BRANCH  39  49
ATOM     49  C20 1N1 d   1      17.494  64.310  28.177  0.00  0.00     0.103 C 
ATOM     50  H16 1N1 d   1      16.604  63.842  28.622  0.00  0.00     0.079 H 
ATOM     51  H17 1N1 d   1      17.182  65.065  27.441  0.00  0.00     0.079 H 
BRANCH  49  52
ATOM     52  C21 1N1 d   1      18.211  65.014  29.257  0.00  0.00     0.039 C 
ATOM     53  H18 1N1 d   1      18.374  66.045  28.909  0.00  0.00     0.076 H 
ATOM     54  H19 1N1 d   1      19.181  64.509  29.373  0.00  0.00     0.076 H 
BRANCH  52  55
ATOM     55  O1  1N1 d   1      17.725  65.094  30.365  0.00  0.00    -0.399 OA
ATOM     56  H27 1N1 d   1      17.590  64.221  30.714  0.00  0.00     0.209 HD
ENDBRANCH  52  55
ENDBRANCH  49  52
ENDBRANCH  39  49
ENDBRANCH   3  34
BRANCH   4  57
ATOM     57  C15 1N1 d   1      22.116  57.435  29.484  0.00  0.00    -0.019 C 
ATOM     58  H9  1N1 d   1      21.030  57.261  29.521  0.00  0.00     0.037 H 
ATOM     59  H10 1N1 d   1      22.551  57.252  30.478  0.00  0.00     0.037 H 
ATOM     60  H11 1N1 d   1      22.572  56.752  28.753  0.00  0.00     0.037 H 
ENDBRANCH   4  57
TORSDOF 10
