REMARK WARNING: 32 MAX_TORS EXCEEDED!!!
REMARK  68 active torsions:
REMARK  status: ('A' for Active; 'I' for Inactive)
REMARK    1  A    between atoms: N_1  and  CA_2 
REMARK    2  A    between atoms: CA_2  and  C_3 
REMARK    3  A    between atoms: CA_2  and  CB_5 
REMARK       I    between atoms: C_3  and  N_10 
REMARK    4  A    between atoms: CB_5  and  CG_6 
REMARK    5  A    between atoms: CG_6  and  CD_7 
REMARK    6  A    between atoms: CD_7  and  CE_8 
REMARK    7  A    between atoms: CE_8  and  NZ_9 
REMARK    8  A    between atoms: N_10  and  CA_11 
REMARK    9  A    between atoms: CA_11  and  C_12 
REMARK   10  A    between atoms: CA_11  and  CB_14 
REMARK       I    between atoms: C_12  and  N_18 
REMARK   11  A    between atoms: CB_14  and  CG_15 
REMARK   12  A    between atoms: CG_15  and  CD1_16 
REMARK   13  A    between atoms: CG_15  and  CD2_17 
REMARK   14  A    between atoms: N_18  and  CA_19 
REMARK   15  A    between atoms: CA_19  and  C_20 
REMARK       I    between atoms: C_20  and  N_22 
REMARK   16  A    between atoms: N_22  and  CA_23 
REMARK   17  A    between atoms: CA_23  and  C_24 
REMARK   18  A    between atoms: CA_23  and  CB_26 
REMARK       I    between atoms: C_24  and  N_30 
REMARK   19  A    between atoms: CB_26  and  CG_27 
REMARK   20  A    between atoms: CG_27  and  CD1_28 
REMARK   21  A    between atoms: CG_27  and  CD2_29 
REMARK   22  A    between atoms: N_30  and  CA_31 
REMARK   23  A    between atoms: CA_31  and  C_32 
REMARK   24  A    between atoms: CA_31  and  CB_34 
REMARK       I    between atoms: C_32  and  N_38 
REMARK   25  A    between atoms: CB_34  and  CG1_35 
REMARK   26  A    between atoms: CB_34  and  CG2_36 
REMARK   27  A    between atoms: CG1_35  and  CD1_37 
REMARK   28  A    between atoms: N_38  and  CA_39 
REMARK   29  A    between atoms: CA_39  and  C_40 
REMARK   30  A    between atoms: CA_39  and  CB_42 
REMARK       I    between atoms: C_40  and  N_45 
REMARK   31  A    between atoms: CB_42  and  OG1_43 
REMARK   32  A    between atoms: CB_42  and  CG2_44 
REMARK   33  A    between atoms: N_45  and  CA_46 
REMARK   34  A    between atoms: CA_46  and  C_47 
REMARK   35  A    between atoms: CA_46  and  CB_49 
REMARK       I    between atoms: C_47  and  N_53 
REMARK   36  A    between atoms: CB_49  and  CG_50 
REMARK       I    between atoms: CG_50  and  ND2_52 
REMARK   37  A    between atoms: N_53  and  CA_54 
REMARK   38  A    between atoms: CA_54  and  C_55 
REMARK   39  A    between atoms: CA_54  and  CB_57 
REMARK       I    between atoms: C_55  and  N_60 
REMARK   40  A    between atoms: CB_57  and  OG1_58 
REMARK   41  A    between atoms: CB_57  and  CG2_59 
REMARK   42  A    between atoms: N_60  and  CA_61 
REMARK   43  A    between atoms: CA_61  and  C_62 
REMARK   44  A    between atoms: CA_61  and  CB_64 
REMARK       I    between atoms: C_62  and  N_68 
REMARK   45  A    between atoms: CB_64  and  CG1_65 
REMARK   46  A    between atoms: CB_64  and  CG2_66 
REMARK   47  A    between atoms: CG1_65  and  CD1_67 
REMARK   48  A    between atoms: N_68  and  CA_69 
REMARK   49  A    between atoms: CA_69  and  C_70 
REMARK   50  A    between atoms: CA_69  and  CB_72 
REMARK       I    between atoms: C_70  and  N_73 
REMARK   51  A    between atoms: N_73  and  CA_74 
REMARK   52  A    between atoms: CA_74  and  C_75 
REMARK       I    between atoms: C_75  and  N_77 
REMARK   53  A    between atoms: N_77  and  CA_78 
REMARK   54  A    between atoms: CA_78  and  C_79 
REMARK   55  A    between atoms: CA_78  and  CB_81 
REMARK       I    between atoms: C_79  and  N_84 
REMARK   56  A    between atoms: CB_81  and  CG1_82 
REMARK   57  A    between atoms: CB_81  and  CG2_83 
REMARK   58  A    between atoms: N_84  and  CA_85 
REMARK   59  A    between atoms: CA_85  and  C_86 
REMARK   60  A    between atoms: CA_85  and  CB_88 
REMARK       I    between atoms: C_86  and  N_89 
REMARK   61  A    between atoms: N_89  and  CA_90 
REMARK   62  A    between atoms: CA_90  and  C_91 
REMARK       I    between atoms: C_91  and  N_93 
REMARK   63  A    between atoms: N_93  and  CA_94 
REMARK   64  A    between atoms: CA_94  and  C_95 
REMARK   65  A    between atoms: CA_94  and  CB_97 
REMARK   66  A    between atoms: CB_97  and  CG_98 
REMARK   67  A    between atoms: CG_98  and  CD1_99 
REMARK   68  A    between atoms: CG_98  and  CD2_100 
ROOT
ATOM      1  CA  ASN d   1      49.087 -25.088  21.353  0.00  0.00     0.097 C 
ATOM      2  H   ASN d   1      50.024 -25.135  21.908  0.00  0.00     0.088 H 
ENDROOT
BRANCH   1   3
ATOM      3  N   ASN d   1      48.574 -26.450  21.273  0.00  0.00    -0.345 N 
ATOM      4  C   THR d   1      48.531 -27.227  22.348  0.00  0.00     0.243 C 
ATOM      5  O   THR d   1      48.946 -26.863  23.448  0.00  0.00    -0.271 OA
ATOM      6  H   ASN d   1      48.243 -26.811  20.378  0.00  0.00     0.163 HD
BRANCH   4   7
ATOM      7  CA  THR d   1      47.924 -28.615  22.169  0.00  0.00     0.113 C 
ATOM      8  H   THR d   1      46.849 -28.491  22.041  0.00  0.00     0.091 H 
BRANCH   7   9
ATOM      9  N   THR d   1      48.381 -29.303  20.969  0.00  0.00    -0.344 N 
ATOM     10  C   ILE d   1      47.553 -29.577  19.966  0.00  0.00     0.241 C 
ATOM     11  O   ILE d   1      46.420 -29.103  19.884  0.00  0.00    -0.271 OA
ATOM     12  H   THR d   1      49.360 -29.581  20.897  0.00  0.00     0.163 HD
BRANCH  10  13
ATOM     13  CA  ILE d   1      48.093 -30.521  18.893  0.00  0.00     0.092 C 
ATOM     14  H   ILE d   1      49.126 -30.755  19.151  0.00  0.00     0.088 H 
BRANCH  13  15
ATOM     15  N   ILE d   1      47.362 -31.784  18.865  0.00  0.00    -0.346 N 
ATOM     16  C   LEU d   1      47.668 -32.775  19.697  0.00  0.00     0.241 C 
ATOM     17  O   LEU d   1      48.503 -32.662  20.596  0.00  0.00    -0.271 OA
ATOM     18  H   ILE d   1      46.603 -31.909  18.195  0.00  0.00     0.163 HD
BRANCH  16  19
ATOM     19  CA  LEU d   1      46.925 -34.086  19.491  0.00  0.00     0.089 C 
ATOM     20  H   LEU d   1      46.304 -34.013  18.598  0.00  0.00     0.087 H 
BRANCH  19  21
ATOM     21  N   LEU d   1      47.883 -35.168  19.313  0.00  0.00    -0.346 N 
ATOM     22  C   GLY d   1      47.666 -36.175  18.473  0.00  0.00     0.236 C 
ATOM     23  O   GLY d   1      46.664 -36.251  17.759  0.00  0.00    -0.272 OA
ATOM     24  H   LEU d   1      48.749 -35.153  19.851  0.00  0.00     0.163 HD
BRANCH  22  25
ATOM     25  CA  GLY d   1      48.735 -37.252  18.436  0.00  0.00     0.069 C 
ATOM     26  H   GLY d   1      48.884 -37.547  17.397  0.00  0.00     0.078 H 
ATOM     27  H   GLY d   1      49.642 -36.845  18.883  0.00  0.00     0.078 H 
BRANCH  25  28
ATOM     28  N   GLY d   1      48.351 -38.433  19.190  0.00  0.00    -0.351 N 
ATOM     29  C   LEU d   1      48.031 -38.369  20.480  0.00  0.00     0.240 C 
ATOM     30  O   LEU d   1      48.089 -37.328  21.134  0.00  0.00    -0.271 OA
ATOM     31  H   GLY d   1      48.326 -39.337  18.717  0.00  0.00     0.163 HD
BRANCH  29  32
ATOM     32  CA  LEU d   1      47.589 -39.678  21.138  0.00  0.00     0.089 C 
ATOM     33  H   LEU d   1      47.819 -39.568  22.198  0.00  0.00     0.087 H 
BRANCH  32  34
ATOM     34  N   LEU d   1      46.149 -39.928  21.054  0.00  0.00    -0.346 N 
ATOM     35  C   LYS d   1      45.390 -39.523  20.038  0.00  0.00     0.248 C 
ATOM     36  O   LYS d   1      45.805 -38.829  19.110  0.00  0.00    -0.271 OA
ATOM     37  H   LEU d   1      45.703 -40.440  21.815  0.00  0.00     0.163 HD
BRANCH  35  38
ATOM     38  CA  LYS d   1      43.936 -39.971  20.082  0.00  0.00     0.176 C 
ATOM     39  H   LYS d   1      43.315 -39.134  20.401  0.00  0.00     0.099 H 
BRANCH  38  40
ATOM     40  N   LYS d   1      43.492 -40.390  18.758  0.00  0.00    -0.067 N 
ATOM     41  H   LYS d   1      43.600 -39.615  18.103  0.00  0.00     0.275 HD
ATOM     42  H   LYS d   1      44.055 -41.181  18.447  0.00  0.00     0.275 HD
ATOM     43  H   LYS d   1      42.511 -40.665  18.801  0.00  0.00     0.275 HD
ENDBRANCH  38  40
BRANCH  38  44
ATOM     44  CB  LYS d   1      43.783 -41.117  21.083  0.00  0.00    -0.030 C 
ATOM     45  H   LYS d   1      43.982 -40.709  22.074  0.00  0.00     0.036 H 
ATOM     46  H   LYS d   1      44.473 -41.905  20.781  0.00  0.00     0.036 H 
BRANCH  44  47
ATOM     47  CG  LYS d   1      42.395 -41.724  21.117  0.00  0.00    -0.061 C 
ATOM     48  H   LYS d   1      42.120 -42.011  20.102  0.00  0.00     0.033 H 
ATOM     49  H   LYS d   1      41.706 -40.985  21.526  0.00  0.00     0.033 H 
BRANCH  47  50
ATOM     50  CD  LYS d   1      42.348 -42.962  21.996  0.00  0.00    -0.043 C 
ATOM     51  H   LYS d   1      42.586 -42.671  23.019  0.00  0.00     0.035 H 
ATOM     52  H   LYS d   1      43.067 -43.687  21.614  0.00  0.00     0.035 H 
BRANCH  50  53
ATOM     53  CE  LYS d   1      40.965 -43.596  21.981  0.00  0.00     0.080 C 
ATOM     54  H   LYS d   1      40.719 -43.858  20.952  0.00  0.00     0.075 H 
ATOM     55  H   LYS d   1      40.255 -42.881  22.396  0.00  0.00     0.075 H 
BRANCH  53  56
ATOM     56  NZ  LYS d   1      40.918 -44.836  22.805  0.00  0.00    -0.079 N 
ATOM     57  H   LYS d   1      39.978 -45.230  22.770  0.00  0.00     0.274 HD
ATOM     58  H   LYS d   1      41.586 -45.513  22.437  0.00  0.00     0.274 HD
ATOM     59  H   LYS d   1      41.158 -44.611  23.770  0.00  0.00     0.274 HD
ENDBRANCH  53  56
ENDBRANCH  50  53
ENDBRANCH  47  50
ENDBRANCH  44  47
ENDBRANCH  38  44
ENDBRANCH  35  38
ENDBRANCH  32  34
BRANCH  32  60
ATOM     60  CB  LEU d   1      48.366 -40.864  20.558  0.00  0.00    -0.035 C 
ATOM     61  H   LEU d   1      49.415 -40.708  20.808  0.00  0.00     0.037 H 
ATOM     62  H   LEU d   1      48.151 -40.892  19.490  0.00  0.00     0.037 H 
BRANCH  60  63
ATOM     63  CG  LEU d   1      47.970 -42.230  21.128  0.00  0.00    -0.059 C 
ATOM     64  H   LEU d   1      46.921 -42.401  20.886  0.00  0.00     0.038 H 
BRANCH  63  65
ATOM     65  CD1 LEU d   1      48.784 -43.350  20.492  0.00  0.00    -0.073 C 
ATOM     66  H   LEU d   1      48.610 -43.358  19.416  0.00  0.00     0.028 H 
ATOM     67  H   LEU d   1      49.843 -43.184  20.689  0.00  0.00     0.028 H 
ATOM     68  H   LEU d   1      48.479 -44.306  20.918  0.00  0.00     0.028 H 
ENDBRANCH  63  65
BRANCH  63  69
ATOM     69  CD2 LEU d   1      48.118 -42.247  22.644  0.00  0.00    -0.073 C 
ATOM     70  H   LEU d   1      49.155 -42.042  22.909  0.00  0.00     0.028 H 
ATOM     71  H   LEU d   1      47.473 -41.484  23.079  0.00  0.00     0.028 H 
ATOM     72  H   LEU d   1      47.831 -43.227  23.025  0.00  0.00     0.028 H 
ENDBRANCH  63  69
ENDBRANCH  60  63
ENDBRANCH  32  60
ENDBRANCH  29  32
ENDBRANCH  25  28
ENDBRANCH  22  25
ENDBRANCH  19  21
BRANCH  19  73
ATOM     73  CB  LEU d   1      46.020 -34.367  20.690  0.00  0.00    -0.035 C 
ATOM     74  H   LEU d   1      46.685 -34.562  21.531  0.00  0.00     0.037 H 
ATOM     75  H   LEU d   1      45.365 -35.184  20.388  0.00  0.00     0.037 H 
BRANCH  73  76
ATOM     76  CG  LEU d   1      45.100 -33.229  21.133  0.00  0.00    -0.059 C 
ATOM     77  H   LEU d   1      45.719 -32.364  21.373  0.00  0.00     0.038 H 
BRANCH  76  78
ATOM     78  CD1 LEU d   1      44.151 -32.838  20.014  0.00  0.00    -0.073 C 
ATOM     79  H   LEU d   1      44.727 -32.509  19.149  0.00  0.00     0.028 H 
ATOM     80  H   LEU d   1      43.541 -33.698  19.740  0.00  0.00     0.028 H 
ATOM     81  H   LEU d   1      43.507 -32.027  20.353  0.00  0.00     0.028 H 
ENDBRANCH  76  78
BRANCH  76  82
ATOM     82  CD2 LEU d   1      44.323 -33.624  22.378  0.00  0.00    -0.073 C 
ATOM     83  H   LEU d   1      43.718 -34.505  22.163  0.00  0.00     0.028 H 
ATOM     84  H   LEU d   1      45.021 -33.849  23.184  0.00  0.00     0.028 H 
ATOM     85  H   LEU d   1      43.675 -32.800  22.677  0.00  0.00     0.028 H 
ENDBRANCH  76  82
ENDBRANCH  73  76
ENDBRANCH  19  73
ENDBRANCH  16  19
ENDBRANCH  13  15
BRANCH  13  86
ATOM     86  CB  ILE d   1      48.090 -29.843  17.515  0.00  0.00    -0.030 C 
ATOM     87  H   ILE d   1      47.070 -29.550  17.264  0.00  0.00     0.043 H 
BRANCH  86  88
ATOM     88  CG1 ILE d   1      48.597 -30.826  16.455  0.00  0.00    -0.063 C 
ATOM     89  H   ILE d   1      47.863 -31.628  16.381  0.00  0.00     0.033 H 
ATOM     90  H   ILE d   1      49.587 -31.157  16.769  0.00  0.00     0.033 H 
BRANCH  88  91
ATOM     91  CD1 ILE d   1      48.742 -30.225  15.078  0.00  0.00    -0.076 C 
ATOM     92  H   ILE d   1      47.773 -29.858  14.739  0.00  0.00     0.027 H 
ATOM     93  H   ILE d   1      49.452 -29.399  15.117  0.00  0.00     0.027 H 
ATOM     94  H   ILE d   1      49.105 -30.986  14.387  0.00  0.00     0.027 H 
ENDBRANCH  88  91
ENDBRANCH  86  88
BRANCH  86  95
ATOM     95  CG2 ILE d   1      48.946 -28.589  17.538  0.00  0.00    -0.071 C 
ATOM     96  H   ILE d   1      48.549 -27.893  18.277  0.00  0.00     0.028 H 
ATOM     97  H   ILE d   1      49.970 -28.854  17.801  0.00  0.00     0.028 H 
ATOM     98  H   ILE d   1      48.931 -28.123  16.553  0.00  0.00     0.028 H 
ENDBRANCH  86  95
ENDBRANCH  13  86
ENDBRANCH  10  13
ENDBRANCH   7   9
BRANCH   7  99
ATOM     99  CB  THR d   1      48.233 -29.450  23.422  0.00  0.00     0.060 C 
ATOM    100  H   THR d   1      47.933 -28.884  24.304  0.00  0.00     0.086 H 
BRANCH  99 101
ATOM    101  OG1 THR d   1      49.639 -29.730  23.474  0.00  0.00    -0.393 OA
ATOM    102  H   THR d   1      50.127 -28.904  23.510  0.00  0.00     0.210 HD
ENDBRANCH  99 101
BRANCH  99 103
ATOM    103  CG2 THR d   1      47.463 -30.761  23.388  0.00  0.00    -0.050 C 
ATOM    104  H   THR d   1      46.394 -30.552  23.355  0.00  0.00     0.031 H 
ATOM    105  H   THR d   1      47.752 -31.328  22.503  0.00  0.00     0.031 H 
ATOM    106  H   THR d   1      47.694 -31.340  24.282  0.00  0.00     0.031 H 
ENDBRANCH  99 103
ENDBRANCH   7  99
ENDBRANCH   4   7
ENDBRANCH   1   3
BRANCH   1 107
ATOM    107  C   ASN d   1      48.150 -24.163  22.119  0.00  0.00     0.241 C 
ATOM    108  O   ASN d   1      48.578 -23.453  23.029  0.00  0.00    -0.271 OA
ATOM    109  N   THR d   1      46.870 -24.179  21.758  0.00  0.00    -0.344 N 
ATOM    110  H   THR d   1      46.563 -24.808  21.016  0.00  0.00     0.163 HD
BRANCH 109 111
ATOM    111  CA  THR d   1      45.900 -23.306  22.412  0.00  0.00     0.113 C 
ATOM    112  H   THR d   1      46.465 -22.785  23.185  0.00  0.00     0.091 H 
BRANCH 111 113
ATOM    113  C   THR d   1      44.768 -24.067  23.101  0.00  0.00     0.243 C 
ATOM    114  O   THR d   1      43.805 -23.465  23.567  0.00  0.00    -0.271 OA
ATOM    115  N   ILE d   1      44.885 -25.389  23.164  0.00  0.00    -0.346 N 
ATOM    116  H   ILE d   1      45.619 -25.853  22.629  0.00  0.00     0.163 HD
BRANCH 115 117
ATOM    117  CA  ILE d   1      43.979 -26.191  23.988  0.00  0.00     0.092 C 
ATOM    118  H   ILE d   1      43.451 -25.495  24.640  0.00  0.00     0.088 H 
BRANCH 117 119
ATOM    119  C   ILE d   1      44.771 -27.197  24.816  0.00  0.00     0.241 C 
ATOM    120  O   ILE d   1      45.932 -27.476  24.518  0.00  0.00    -0.271 OA
ATOM    121  N   ALA d   1      44.144 -27.735  25.857  0.00  0.00    -0.346 N 
ATOM    122  H   ALA d   1      43.184 -27.457  26.060  0.00  0.00     0.163 HD
BRANCH 121 123
ATOM    123  CA  ALA d   1      44.801 -28.716  26.716  0.00  0.00     0.086 C 
ATOM    124  H   ALA d   1      45.879 -28.587  26.620  0.00  0.00     0.086 H 
BRANCH 123 125
ATOM    125  C   ALA d   1      44.443 -30.127  26.282  0.00  0.00     0.240 C 
ATOM    126  O   ALA d   1      45.272 -31.034  26.333  0.00  0.00    -0.271 OA
ATOM    127  N   GLY d   1      43.196 -30.304  25.858  0.00  0.00    -0.351 N 
ATOM    128  H   GLY d   1      42.553 -29.512  25.869  0.00  0.00     0.163 HD
BRANCH 127 129
ATOM    129  CA  GLY d   1      42.722 -31.588  25.380  0.00  0.00     0.069 C 
ATOM    130  H   GLY d   1      42.635 -32.270  26.226  0.00  0.00     0.078 H 
ATOM    131  H   GLY d   1      43.430 -31.975  24.647  0.00  0.00     0.078 H 
BRANCH 129 132
ATOM    132  C   GLY d   1      41.366 -31.444  24.724  0.00  0.00     0.236 C 
ATOM    133  O   GLY d   1      40.919 -30.330  24.450  0.00  0.00    -0.272 OA
ATOM    134  N   VAL d   1      40.709 -32.567  24.462  0.00  0.00    -0.346 N 
ATOM    135  H   VAL d   1      41.150 -33.468  24.650  0.00  0.00     0.163 HD
BRANCH 134 136
ATOM    136  CA  VAL d   1      39.364 -32.522  23.908  0.00  0.00     0.092 C 
ATOM    137  H   VAL d   1      39.376 -31.872  23.033  0.00  0.00     0.088 H 
BRANCH 136 138
ATOM    138  C   VAL d   1      38.420 -31.986  24.970  0.00  0.00     0.241 C 
ATOM    139  O   VAL d   1      38.707 -32.068  26.165  0.00  0.00    -0.271 OA
ATOM    140  N   ALA d   1      37.300 -31.427  24.529  0.00  0.00    -0.346 N 
ATOM    141  H   ALA d   1      37.122 -31.391  23.525  0.00  0.00     0.163 HD
BRANCH 140 142
ATOM    142  CA  ALA d   1      36.320 -30.864  25.446  0.00  0.00     0.086 C 
ATOM    143  H   ALA d   1      36.853 -30.406  26.279  0.00  0.00     0.086 H 
BRANCH 142 144
ATOM    144  C   ALA d   1      35.415 -31.954  26.015  0.00  0.00     0.240 C 
ATOM    145  O   ALA d   1      34.909 -31.829  27.131  0.00  0.00    -0.271 OA
ATOM    146  N   GLY d   1      35.221 -33.021  25.243  0.00  0.00    -0.351 N 
ATOM    147  H   GLY d   1      35.625 -33.033  24.306  0.00  0.00     0.163 HD
BRANCH 146 148
ATOM    148  CA  GLY d   1      34.453 -34.169  25.692  0.00  0.00     0.069 C 
ATOM    149  H   GLY d   1      34.369 -34.872  24.863  0.00  0.00     0.078 H 
ATOM    150  H   GLY d   1      33.475 -33.820  26.024  0.00  0.00     0.078 H 
BRANCH 148 151
ATOM    151  C   GLY d   1      35.129 -34.875  26.853  0.00  0.00     0.236 C 
ATOM    152  O   GLY d   1      35.780 -35.907  26.672  0.00  0.00    -0.272 OA
ATOM    153  N   LEU d   1      34.964 -34.304  28.045  0.00  0.00    -0.345 N 
ATOM    154  H   LEU d   1      34.372 -33.475  28.104  0.00  0.00     0.163 HD
BRANCH 153 155
ATOM    155  CA  LEU d   1      35.584 -34.798  29.275  0.00  0.00     0.096 C 
ATOM    156  H   LEU d   1      35.068 -34.316  30.106  0.00  0.00     0.089 H 
BRANCH 155 157
ATOM    157  C   LEU d   1      37.059 -34.414  29.365  0.00  0.00     0.196 C 
ATOM    158  O   LEU d   1      37.394 -33.279  29.711  0.00  0.00    -0.646 OA
ATOM    159  O1  LEU d   1      37.943 -35.266  29.083  0.00  0.00    -0.646 OA
ENDBRANCH 155 157
BRANCH 155 160
ATOM    160  CB  LEU d   1      35.410 -36.314  29.415  0.00  0.00    -0.034 C 
ATOM    161  H   LEU d   1      35.777 -36.577  30.407  0.00  0.00     0.037 H 
ATOM    162  H   LEU d   1      35.945 -36.765  28.579  0.00  0.00     0.037 H 
BRANCH 160 163
ATOM    163  CG  LEU d   1      33.969 -36.825  29.335  0.00  0.00    -0.059 C 
ATOM    164  H   LEU d   1      33.563 -36.550  28.362  0.00  0.00     0.038 H 
BRANCH 163 165
ATOM    165  CD1 LEU d   1      33.933 -38.341  29.453  0.00  0.00    -0.073 C 
ATOM    166  H   LEU d   1      34.511 -38.781  28.640  0.00  0.00     0.028 H 
ATOM    167  H   LEU d   1      34.362 -38.640  30.409  0.00  0.00     0.028 H 
ATOM    168  H   LEU d   1      32.900 -38.684  29.394  0.00  0.00     0.028 H 
ENDBRANCH 163 165
BRANCH 163 169
ATOM    169  CD2 LEU d   1      33.099 -36.173  30.403  0.00  0.00    -0.073 C 
ATOM    170  H   LEU d   1      33.500 -36.407  31.389  0.00  0.00     0.028 H 
ATOM    171  H   LEU d   1      33.096 -35.093  30.258  0.00  0.00     0.028 H 
ATOM    172  H   LEU d   1      32.081 -36.554  30.323  0.00  0.00     0.028 H 
ENDBRANCH 163 169
ENDBRANCH 160 163
ENDBRANCH 155 160
ENDBRANCH 153 155
ENDBRANCH 148 151
ENDBRANCH 146 148
ENDBRANCH 142 144
BRANCH 142 173
ATOM    173  CB  ALA d   1      35.503 -29.792  24.750  0.00  0.00    -0.049 C 
ATOM    174  H   ALA d   1      36.166 -28.998  24.405  0.00  0.00     0.030 H 
ATOM    175  H   ALA d   1      34.983 -30.229  23.897  0.00  0.00     0.030 H 
ATOM    176  H   ALA d   1      34.775 -29.381  25.449  0.00  0.00     0.030 H 
ENDBRANCH 142 173
ENDBRANCH 140 142
ENDBRANCH 136 138
BRANCH 136 177
ATOM    177  CB  VAL d   1      38.882 -33.906  23.444  0.00  0.00    -0.033 C 
ATOM    178  H   VAL d   1      37.913 -33.796  22.958  0.00  0.00     0.042 H 
BRANCH 177 179
ATOM    179  CG1 VAL d   1      39.857 -34.491  22.433  0.00  0.00    -0.071 C 
ATOM    180  H   VAL d   1      39.925 -33.829  21.570  0.00  0.00     0.028 H 
ATOM    181  H   VAL d   1      40.840 -34.591  22.894  0.00  0.00     0.028 H 
ATOM    182  H   VAL d   1      39.503 -35.471  22.113  0.00  0.00     0.028 H 
ENDBRANCH 177 179
BRANCH 177 183
ATOM    183  CG2 VAL d   1      38.704 -34.838  24.638  0.00  0.00    -0.071 C 
ATOM    184  H   VAL d   1      39.657 -34.950  25.155  0.00  0.00     0.028 H 
ATOM    185  H   VAL d   1      37.966 -34.416  25.320  0.00  0.00     0.028 H 
ATOM    186  H   VAL d   1      38.362 -35.812  24.289  0.00  0.00     0.028 H 
ENDBRANCH 177 183
ENDBRANCH 136 177
ENDBRANCH 134 136
ENDBRANCH 129 132
ENDBRANCH 127 129
ENDBRANCH 123 125
BRANCH 123 187
ATOM    187  CB  ALA d   1      44.420 -28.496  28.171  0.00  0.00    -0.049 C 
ATOM    188  H   ALA d   1      44.727 -27.496  28.478  0.00  0.00     0.030 H 
ATOM    189  H   ALA d   1      43.340 -28.597  28.282  0.00  0.00     0.030 H 
ATOM    190  H   ALA d   1      44.921 -29.238  28.793  0.00  0.00     0.030 H 
ENDBRANCH 123 187
ENDBRANCH 121 123
ENDBRANCH 117 119
BRANCH 117 191
ATOM    191  CB  ILE d   1      42.929 -26.944  23.151  0.00  0.00    -0.030 C 
ATOM    192  H   ILE d   1      42.255 -27.467  23.830  0.00  0.00     0.043 H 
BRANCH 191 193
ATOM    193  CG1 ILE d   1      43.606 -27.983  22.257  0.00  0.00    -0.063 C 
ATOM    194  H   ILE d   1      44.227 -28.609  22.898  0.00  0.00     0.033 H 
ATOM    195  H   ILE d   1      44.168 -27.441  21.496  0.00  0.00     0.033 H 
BRANCH 193 196
ATOM    196  CD1 ILE d   1      42.635 -28.893  21.539  0.00  0.00    -0.076 C 
ATOM    197  H   ILE d   1      42.037 -29.435  22.272  0.00  0.00     0.027 H 
ATOM    198  H   ILE d   1      41.980 -28.296  20.904  0.00  0.00     0.027 H 
ATOM    199  H   ILE d   1      43.190 -29.602  20.925  0.00  0.00     0.027 H 
ENDBRANCH 193 196
ENDBRANCH 191 193
BRANCH 191 200
ATOM    200  CG2 ILE d   1      42.099 -25.975  22.330  0.00  0.00    -0.071 C 
ATOM    201  H   ILE d   1      41.586 -25.282  22.997  0.00  0.00     0.028 H 
ATOM    202  H   ILE d   1      42.752 -25.418  21.658  0.00  0.00     0.028 H 
ATOM    203  H   ILE d   1      41.364 -26.531  21.747  0.00  0.00     0.028 H 
ENDBRANCH 191 200
ENDBRANCH 117 191
ENDBRANCH 115 117
ENDBRANCH 111 113
BRANCH 111 204
ATOM    204  CB  THR d   1      45.308 -22.274  21.436  0.00  0.00     0.060 C 
ATOM    205  H   THR d   1      44.675 -21.587  21.997  0.00  0.00     0.086 H 
BRANCH 204 206
ATOM    206  OG1 THR d   1      44.539 -22.949  20.440  0.00  0.00    -0.393 OA
ATOM    207  H   THR d   1      45.104 -23.558  19.959  0.00  0.00     0.210 HD
ENDBRANCH 204 206
BRANCH 204 208
ATOM    208  CG2 THR d   1      46.413 -21.485  20.759  0.00  0.00    -0.050 C 
ATOM    209  H   THR d   1      46.999 -20.962  21.514  0.00  0.00     0.031 H 
ATOM    210  H   THR d   1      47.058 -22.167  20.205  0.00  0.00     0.031 H 
ATOM    211  H   THR d   1      45.973 -20.761  20.073  0.00  0.00     0.031 H 
ENDBRANCH 204 208
ENDBRANCH 111 204
ENDBRANCH 109 111
ENDBRANCH   1 107
BRANCH   1 212
ATOM    212  CB  ASN d   1      49.367 -24.528  19.958  0.00  0.00     0.036 C 
ATOM    213  H   ASN d   1      49.581 -23.464  20.059  0.00  0.00     0.051 H 
ATOM    214  H   ASN d   1      48.492 -24.720  19.336  0.00  0.00     0.051 H 
BRANCH 212 215
ATOM    215  CG  ASN d   1      50.563 -25.186  19.299  0.00  0.00     0.217 C 
ATOM    216  OD1 ASN d   1      50.460 -25.727  18.200  0.00  0.00    -0.274 OA
ATOM    217  ND2 ASN d   1      51.710 -25.143  19.972  0.00  0.00    -0.370 N 
ATOM    218  H   ASN d   1      52.549 -25.570  19.578  0.00  0.00     0.159 HD
ATOM    219  H   ASN d   1      51.751 -24.683  20.882  0.00  0.00     0.159 HD
ENDBRANCH 212 215
ENDBRANCH   1 212
TORSDOF 68
