REMARK  8 active torsions:
REMARK  status: ('A' for Active; 'I' for Inactive)
REMARK    1  A    between atoms: CAH_4  and  CAA_24 
REMARK    2  A    between atoms: CAS_9  and  CAL_10 
REMARK    3  A    between atoms: CAL_10  and  OAN_11 
REMARK    4  A    between atoms: OAN_11  and  CAQ_12 
REMARK    5  A    between atoms: CAX_14  and  CAP_15 
REMARK    6  A    between atoms: CAX_14  and  OAF_18 
REMARK    7  A    between atoms: CAV_20  and  OAD_21 
REMARK    8  A    between atoms: CAW_22  and  OAE_23 
ROOT
ATOM      1  OAN CB6 d   1       8.096 -27.967 -46.689  0.00  0.00    -0.348 OA
ENDROOT
BRANCH   1   2
ATOM      2  CAL CB6 d   1       6.742 -28.285 -47.339  0.00  0.00     0.055 C 
ATOM      3  H   CB6 d   1       6.329 -29.097 -46.740  0.00  0.00     0.083 H 
ATOM      4  H   CB6 d   1       6.219 -27.329 -47.374  0.00  0.00     0.083 H 
BRANCH   2   5
ATOM      5  CAS CB6 d   1       6.709 -28.763 -48.665  0.00  0.00     0.008 A 
ATOM      6  CAK CB6 d   1       5.651 -29.087 -49.414  0.00  0.00    -0.057 A 
ATOM      7  CAT CB6 d   1       5.939 -29.549 -50.651  0.00  0.00    -0.018 A 
ATOM      8  H   CB6 d   1       4.628 -28.986 -49.053  0.00  0.00     0.086 H 
ATOM      9  CAI CB6 d   1       5.109 -29.977 -51.687  0.00  0.00    -0.066 A 
ATOM     10  CAU CB6 d   1       7.312 -29.594 -50.894  0.00  0.00     0.015 A 
ATOM     11  CAH CB6 d   1       5.651 -30.412 -52.903  0.00  0.00    -0.061 A 
ATOM     12  H   CB6 d   1       4.028 -29.973 -51.549  0.00  0.00     0.085 H 
ATOM     13  CAR CB6 d   1       7.034 -30.437 -53.091  0.00  0.00    -0.076 A 
ATOM     14  CAJ CB6 d   1       7.855 -30.022 -52.078  0.00  0.00    -0.065 A 
ATOM     15  H   CB6 d   1       7.455 -30.783 -54.035  0.00  0.00     0.084 H 
ATOM     16  H   CB6 d   1       8.937 -30.032 -52.212  0.00  0.00     0.085 H 
ATOM     17  SAO CB6 d   1       8.099 -29.076 -49.536  0.00  0.00    -0.092 SA
BRANCH  11  18
ATOM     18  CAA CB6 d   1       4.777 -30.884 -54.084  0.00  0.00    -0.051 C 
ATOM     19  H   CB6 d   1       4.968 -30.252 -54.951  0.00  0.00     0.033 H 
ATOM     20  H   CB6 d   1       5.023 -31.918 -54.326  0.00  0.00     0.033 H 
ATOM     21  H   CB6 d   1       3.725 -30.814 -53.806  0.00  0.00     0.033 H 
ENDBRANCH  11  18
ENDBRANCH   2   5
ENDBRANCH   1   2
BRANCH   1  22
ATOM     22  CAQ CB6 d   1       8.225 -28.398 -45.414  0.00  0.00     0.077 C 
ATOM     23  CAG CB6 d   1       7.111 -28.596 -44.601  0.00  0.00    -0.029 C 
ATOM     24  CAX CB6 d   1       7.231 -29.066 -43.280  0.00  0.00     0.168 C 
ATOM     25  H   CB6 d   1       6.119 -28.381 -44.999  0.00  0.00     0.086 H 
ATOM     26  CAM CB6 d   1       8.580 -29.749 -42.966  0.00  0.00     0.004 C 
ATOM     27  CAV CB6 d   1       9.732 -28.876 -43.453  0.00  0.00     0.069 C 
ATOM     28  H   CB6 d   1       8.621 -30.713 -43.473  0.00  0.00     0.042 H 
ATOM     29  H   CB6 d   1       8.668 -29.891 -41.889  0.00  0.00     0.042 H 
ATOM     30  CAW CB6 d   1       9.634 -28.802 -44.964  0.00  0.00     0.106 C 
ATOM     31  H   CB6 d   1       9.696 -27.878 -43.017  0.00  0.00     0.087 H 
ATOM     32  H   CB6 d   1       9.869 -29.806 -45.316  0.00  0.00     0.097 H 
BRANCH  24  33
ATOM     33  CAP CB6 d   1       6.057 -29.996 -42.933  0.00  0.00     0.213 C 
ATOM     34  OAC CB6 d   1       6.227 -31.203 -42.610  0.00  0.00    -0.645 OA
ATOM     35  OAB CB6 d   1       4.945 -29.443 -42.965  0.00  0.00    -0.645 OA
ENDBRANCH  24  33
BRANCH  24  36
ATOM     36  OAF CB6 d   1       7.108 -27.879 -42.410  0.00  0.00    -0.375 OA
ATOM     37  H   CB6 d   1       6.268 -27.446 -42.579  0.00  0.00     0.211 HD
ENDBRANCH  24  36
BRANCH  27  38
ATOM     38  OAD CB6 d   1      10.957 -29.526 -43.094  0.00  0.00    -0.392 OA
ATOM     39  H   CB6 d   1      10.996 -29.628 -42.140  0.00  0.00     0.210 HD
ENDBRANCH  27  38
BRANCH  30  40
ATOM     40  OAE CB6 d   1      10.589 -27.868 -45.553  0.00  0.00    -0.386 OA
ATOM     41  H   CB6 d   1      10.482 -27.862 -46.507  0.00  0.00     0.210 HD
ENDBRANCH  30  40
ENDBRANCH   1  22
TORSDOF 8
