REMARK  9 active torsions:
REMARK  status: ('A' for Active; 'I' for Inactive)
REMARK    1  A    between atoms: CAZ_9  and  CAQ_10 
REMARK    2  A    between atoms: CAQ_10  and  CAW_11 
REMARK    3  A    between atoms: CBG_12  and  CAV_13 
REMARK    4  A    between atoms: CBG_12  and  OAE_16 
REMARK    5  A    between atoms: CBE_18  and  OAC_19 
REMARK    6  A    between atoms: CBF_20  and  OAD_21 
REMARK    7  A    between atoms: CAX_22  and  OAS_23 
REMARK    8  A    between atoms: OAS_23  and  CAP_24 
REMARK    9  A    between atoms: CAP_24  and  CAY_25 
ROOT
ATOM      1  CAW CB7 d   1       7.170  18.248  28.573  0.00  0.00     0.001 C 
ATOM      2  CBG CB7 d   1       7.102  19.727  29.002  0.00  0.00     0.174 C 
ATOM      3  CAR CB7 d   1       8.361  20.134  29.778  0.00  0.00     0.004 C 
ATOM      4  CBE CB7 d   1       9.574  19.826  28.909  0.00  0.00     0.069 C 
ATOM      5  CBF CB7 d   1       9.739  18.303  28.753  0.00  0.00     0.106 C 
ATOM      6  CAX CB7 d   1       8.414  17.637  28.428  0.00  0.00     0.084 C 
ATOM      7  H   CB7 d   1       8.420  19.580  30.715  0.00  0.00     0.042 H 
ATOM      8  H   CB7 d   1       8.329  21.198  30.014  0.00  0.00     0.042 H 
ATOM      9  H   CB7 d   1       9.437  20.259  27.918  0.00  0.00     0.087 H 
ATOM     10  H   CB7 d   1      10.149  17.965  29.704  0.00  0.00     0.097 H 
ENDROOT
BRANCH   6  11
ATOM     11  OAS CB7 d   1       8.520  16.354  28.044  0.00  0.00    -0.348 OA
BRANCH  11  12
ATOM     12  CAP CB7 d   1       8.670  15.633  29.345  0.00  0.00     0.049 C 
ATOM     13  H   CB7 d   1       7.987  16.175  29.999  0.00  0.00     0.082 H 
ATOM     14  H   CB7 d   1       9.751  15.604  29.480  0.00  0.00     0.082 H 
BRANCH  12  15
ATOM     15  CAY CB7 d   1       8.297  14.292  29.551  0.00  0.00    -0.033 A 
ATOM     16  CAN CB7 d   1       8.445  13.659  30.785  0.00  0.00    -0.064 A 
ATOM     17  CBA CB7 d   1       8.072  12.325  30.973  0.00  0.00    -0.018 A 
ATOM     18  H   CB7 d   1       8.861  14.218  31.623  0.00  0.00     0.085 H 
ATOM     19  CAJ CB7 d   1       8.147  11.560  32.087  0.00  0.00    -0.065 A 
ATOM     20  CBC CB7 d   1       7.542  11.642  29.882  0.00  0.00     0.015 A 
ATOM     21  CAF CB7 d   1       7.709  10.299  31.984  0.00  0.00    -0.043 A 
ATOM     22  H   CB7 d   1       8.545  11.952  33.023  0.00  0.00     0.085 H 
ATOM     23  SAT CB7 d   1       7.187  10.118  30.384  0.00  0.00    -0.101 SA
ATOM     24  H   CB7 d   1       7.692   9.544  32.770  0.00  0.00     0.095 H 
ATOM     25  CAL CB7 d   1       7.384  12.261  28.669  0.00  0.00    -0.065 A 
ATOM     26  CAH CB7 d   1       7.762  13.580  28.503  0.00  0.00    -0.073 A 
ATOM     27  H   CB7 d   1       6.958  11.710  27.831  0.00  0.00     0.085 H 
ATOM     28  H   CB7 d   1       7.635  14.060  27.533  0.00  0.00     0.084 H 
ENDBRANCH  12  15
ENDBRANCH  11  12
ENDBRANCH   6  11
BRANCH   1  29
ATOM     29  CAQ CB7 d   1       5.873  17.565  28.172  0.00  0.00    -0.015 C 
ATOM     30  H   CB7 d   1       5.129  18.349  28.034  0.00  0.00     0.047 H 
ATOM     31  H   CB7 d   1       6.084  16.979  27.277  0.00  0.00     0.047 H 
BRANCH  29  32
ATOM     32  CAZ CB7 d   1       5.314  16.597  29.220  0.00  0.00    -0.053 A 
ATOM     33  CAO CB7 d   1       5.169  15.248  28.897  0.00  0.00    -0.065 A 
ATOM     34  CBB CB7 d   1       4.651  14.343  29.824  0.00  0.00    -0.018 A 
ATOM     35  H   CB7 d   1       5.464  14.896  27.908  0.00  0.00     0.085 H 
ATOM     36  CAK CB7 d   1       4.446  13.015  29.680  0.00  0.00    -0.065 A 
ATOM     37  CBD CB7 d   1       4.250  14.822  31.088  0.00  0.00     0.015 A 
ATOM     38  CAG CB7 d   1       3.926  12.347  30.720  0.00  0.00    -0.043 A 
ATOM     39  H   CB7 d   1       4.695  12.504  28.750  0.00  0.00     0.085 H 
ATOM     40  SAU CB7 d   1       3.659  13.477  31.944  0.00  0.00    -0.101 SA
ATOM     41  H   CB7 d   1       3.716  11.278  30.766  0.00  0.00     0.095 H 
ATOM     42  CAM CB7 d   1       4.384  16.169  31.420  0.00  0.00    -0.065 A 
ATOM     43  CAI CB7 d   1       4.906  17.058  30.477  0.00  0.00    -0.075 A 
ATOM     44  H   CB7 d   1       4.085  16.525  32.406  0.00  0.00     0.085 H 
ATOM     45  H   CB7 d   1       4.996  18.116  30.722  0.00  0.00     0.084 H 
ENDBRANCH  29  32
ENDBRANCH   1  29
BRANCH   5  46
ATOM     46  OAD CB7 d   1      10.604  17.959  27.663  0.00  0.00    -0.386 OA
ATOM     47  H   CB7 d   1      10.677  17.004  27.603  0.00  0.00     0.210 HD
ENDBRANCH   5  46
BRANCH   2  48
ATOM     48  CAV CB7 d   1       5.877  20.085  29.847  0.00  0.00     0.213 C 
ATOM     49  OAB CB7 d   1       6.014  20.124  31.087  0.00  0.00    -0.645 OA
ATOM     50  OAA CB7 d   1       4.847  20.390  29.211  0.00  0.00    -0.645 OA
ENDBRANCH   2  48
BRANCH   2  51
ATOM     51  OAE CB7 d   1       7.008  20.483  27.781  0.00  0.00    -0.374 OA
ATOM     52  H   CB7 d   1       6.199  20.248  27.322  0.00  0.00     0.211 HD
ENDBRANCH   2  51
BRANCH   4  53
ATOM     53  OAC CB7 d   1      10.739  20.392  29.522  0.00  0.00    -0.392 OA
ATOM     54  H   CB7 d   1      11.508  20.202  28.980  0.00  0.00     0.210 HD
ENDBRANCH   4  53
TORSDOF 9
