REMARK  2 active torsions:
REMARK  status: ('A' for Active; 'I' for Inactive)
REMARK    1  A    between atoms: C1'_1  and  C1_4 
REMARK    2  A    between atoms: C2_5  and  O2_10 
ROOT
ATOM      1  C1  SAL d   1      26.605  18.557  72.653  0.00  0.00     0.073 A 
ATOM      2  C2  SAL d   1      26.413  19.273  71.481  0.00  0.00     0.082 A 
ATOM      3  C3  SAL d   1      27.127  18.929  70.323  0.00  0.00    -0.050 A 
ATOM      4  C4  SAL d   1      28.044  17.855  70.352  0.00  0.00    -0.080 A 
ATOM      5  C5  SAL d   1      28.234  17.144  71.532  0.00  0.00    -0.082 A 
ATOM      6  C6  SAL d   1      27.515  17.492  72.679  0.00  0.00    -0.064 A 
ATOM      7  H1  SAL d   1      26.975  19.487  69.406  0.00  0.00     0.087 H 
ATOM      8  H2  SAL d   1      28.597  17.586  69.459  0.00  0.00     0.083 H 
ATOM      9  H3  SAL d   1      28.939  16.321  71.562  0.00  0.00     0.083 H 
ATOM     10  H4  SAL d   1      27.663  16.933  73.596  0.00  0.00     0.085 H 
ENDROOT
BRANCH   1  11
ATOM     11  C1' SAL d   1      25.779  18.933  73.897  0.00  0.00     0.212 C 
ATOM     12  O1' SAL d   1      24.905  19.840  73.805  0.00  0.00    -0.644 OA
ATOM     13  O2' SAL d   1      26.016  18.316  74.953  0.00  0.00    -0.644 OA
ENDBRANCH   1  11
BRANCH   2  14
ATOM     14  O2  SAL d   1      25.514  20.319  71.513  0.00  0.00    -0.360 OA
ATOM     15  H5  SAL d   1      25.139  20.387  72.383  0.00  0.00     0.217 HD
ENDBRANCH   2  14
TORSDOF 2
