REMARK  2 active torsions:
REMARK  status: ('A' for Active; 'I' for Inactive)
REMARK    1  A    between atoms: C1'_1  and  C1_4 
REMARK    2  A    between atoms: C2_5  and  O2_10 
ROOT
ATOM      1  C1  SAL d   1      13.783  47.751   2.981  0.00  0.00     0.073 A 
ATOM      2  C2  SAL d   1      12.986  46.893   3.875  0.00  0.00     0.082 A 
ATOM      3  C3  SAL d   1      12.043  46.032   3.344  0.00  0.00    -0.050 A 
ATOM      4  C4  SAL d   1      11.818  45.974   1.948  0.00  0.00    -0.080 A 
ATOM      5  C5  SAL d   1      12.575  46.780   1.122  0.00  0.00    -0.082 A 
ATOM      6  C6  SAL d   1      13.562  47.677   1.597  0.00  0.00    -0.064 A 
ATOM      7  H1  SAL d   1      11.469  45.393   4.005  0.00  0.00     0.087 H 
ATOM      8  H2  SAL d   1      11.067  45.310   1.536  0.00  0.00     0.083 H 
ATOM      9  H3  SAL d   1      12.405  46.723   0.053  0.00  0.00     0.083 H 
ATOM     10  H4  SAL d   1      14.132  48.291   0.909  0.00  0.00     0.085 H 
ENDROOT
BRANCH   1  11
ATOM     11  C1' SAL d   1      14.816  48.631   3.554  0.00  0.00     0.212 C 
ATOM     12  O1' SAL d   1      15.539  49.372   2.817  0.00  0.00    -0.644 OA
ATOM     13  O2' SAL d   1      14.982  48.605   4.795  0.00  0.00    -0.644 OA
ENDBRANCH   1  11
BRANCH   2  14
ATOM     14  O2  SAL d   1      13.193  46.980   5.229  0.00  0.00    -0.360 OA
ATOM     15  H5  SAL d   1      13.874  47.619   5.404  0.00  0.00     0.217 HD
ENDBRANCH   2  14
TORSDOF 2
