REMARK  9 active torsions:
REMARK  status: ('A' for Active; 'I' for Inactive)
REMARK    1  A    between atoms: O3A_8  and  PB_1 
REMARK    2  A    between atoms: PA_5  and  O3A_8 
REMARK    3  A    between atoms: PA_5  and  O5'_9 
REMARK    4  A    between atoms: O5'_9  and  C5'_10 
REMARK    5  A    between atoms: C5'_10  and  C4'_11 
REMARK    6  A    between atoms: C3'_13  and  O3'_14 
REMARK    7  A    between atoms: C2'_15  and  O2'_16 
REMARK    8  A    between atoms: C1'_17  and  N9_18 
REMARK    9  A    between atoms: C6_22  and  N6_23 
ROOT
ATOM      1  C4' ADP d   1      22.137  40.615  57.297  0.00  0.00     0.089 C 
ATOM      2  O4' ADP d   1      21.674  41.173  56.117  0.00  0.00    -0.353 OA
ATOM      3  C3' ADP d   1      21.082  40.751  58.294  0.00  0.00     0.091 C 
ATOM      4  C2' ADP d   1      20.199  41.749  57.811  0.00  0.00     0.105 C 
ATOM      5  C1' ADP d   1      20.574  41.967  56.426  0.00  0.00     0.139 C 
ATOM      6  H   ADP d   1      23.060  41.089  57.632  0.00  0.00     0.090 H 
ATOM      7  H   ADP d   1      20.549  39.814  58.455  0.00  0.00     0.091 H 
ATOM      8  H   ADP d   1      19.165  41.436  57.955  0.00  0.00     0.093 H 
ATOM      9  H   ADP d   1      20.769  43.038  56.375  0.00  0.00     0.122 H 
ENDROOT
BRANCH   5  10
ATOM     10  N9  ADP d   1      19.568  41.687  55.434  0.00  0.00    -0.294 N 
ATOM     11  C8  ADP d   1      19.368  40.530  54.783  0.00  0.00     0.071 A 
ATOM     12  N7  ADP d   1      18.369  40.686  53.906  0.00  0.00    -0.236 NA
ATOM     13  H   ADP d   1      19.930  39.610  54.943  0.00  0.00     0.144 H 
ATOM     14  C5  ADP d   1      17.941  41.959  53.994  0.00  0.00     0.149 A 
ATOM     15  C6  ADP d   1      16.958  42.691  53.334  0.00  0.00     0.155 A 
ATOM     16  C4  ADP d   1      18.701  42.600  54.963  0.00  0.00     0.167 A 
ATOM     17  N1  ADP d   1      16.769  43.983  53.643  0.00  0.00    -0.222 NA
ATOM     18  C2  ADP d   1      17.513  44.576  54.580  0.00  0.00     0.091 A 
ATOM     19  N3  ADP d   1      18.463  43.892  55.232  0.00  0.00    -0.222 NA
ATOM     20  H   ADP d   1      17.346  45.627  54.817  0.00  0.00     0.146 H 
BRANCH  15  21
ATOM     21  N6  ADP d   1      16.169  42.051  52.345  0.00  0.00    -0.382 N 
ATOM     22  H   ADP d   1      16.326  41.067  52.126  0.00  0.00     0.157 HD
ATOM     23  H   ADP d   1      15.445  42.574  51.853  0.00  0.00     0.157 HD
ENDBRANCH  15  21
ENDBRANCH   5  10
BRANCH   4  24
ATOM     24  O2' ADP d   1      20.427  42.989  58.479  0.00  0.00    -0.388 OA
ATOM     25  H   ADP d   1      20.282  42.875  59.421  0.00  0.00     0.210 HD
ENDBRANCH   4  24
BRANCH   1  26
ATOM     26  C5' ADP d   1      22.313  39.167  57.042  0.00  0.00     0.058 C 
ATOM     27  H   ADP d   1      23.046  39.050  56.244  0.00  0.00     0.079 H 
ATOM     28  H   ADP d   1      22.636  38.696  57.970  0.00  0.00     0.079 H 
BRANCH  26  29
ATOM     29  O5' ADP d   1      21.161  38.574  56.647  0.00  0.00    -0.287 OA
BRANCH  29  30
ATOM     30  PA  ADP d   1      20.592  37.326  57.432  0.00  0.00     0.418 P 
ATOM     31  O1A ADP d   1      19.094  37.306  57.192  0.00  0.00    -0.624 OA
ATOM     32  O2A ADP d   1      20.905  37.481  58.827  0.00  0.00    -0.624 OA
BRANCH  30  33
ATOM     33  O3A ADP d   1      21.204  36.087  56.730  0.00  0.00    -0.173 OA
BRANCH  33  34
ATOM     34  PB  ADP d   1      21.691  34.716  57.479  0.00  0.00     0.431 P 
ATOM     35  O1B ADP d   1      23.101  34.813  58.024  0.00  0.00    -0.616 OA
ATOM     36  O2B ADP d   1      21.762  33.684  56.340  0.00  0.00    -0.616 OA
ATOM     37  O3B ADP d   1      20.722  34.315  58.630  0.00  0.00    -0.616 OA
ENDBRANCH  33  34
ENDBRANCH  30  33
ENDBRANCH  29  30
ENDBRANCH  26  29
ENDBRANCH   1  26
BRANCH   3  38
ATOM     38  O3' ADP d   1      21.655  41.144  59.532  0.00  0.00    -0.390 OA
ATOM     39  H   ADP d   1      22.105  41.985  59.422  0.00  0.00     0.210 HD
ENDBRANCH   3  38
TORSDOF 9
