REMARK  8 active torsions:
REMARK  status: ('A' for Active; 'I' for Inactive)
REMARK    1  A    between atoms: O3A_8  and  PB_1 
REMARK    2  A    between atoms: PA_5  and  O3A_8 
REMARK    3  A    between atoms: PA_5  and  O5'_9 
REMARK    4  A    between atoms: O5'_9  and  C5'_10 
REMARK    5  A    between atoms: C5'_10  and  C4'_11 
REMARK    6  A    between atoms: C3'_13  and  O3'_14 
REMARK    7  A    between atoms: C2'_15  and  O2'_16 
REMARK    8  A    between atoms: C1'_17  and  N9_18 
ROOT
ATOM      1  C4' ADP d   1      -5.748 -11.051 -33.665  0.00  0.00     0.089 C 
ATOM      2  O4' ADP d   1      -5.014 -11.506 -32.525  0.00  0.00    -0.353 OA
ATOM      3  C3' ADP d   1      -6.247  -9.659 -33.296  0.00  0.00     0.091 C 
ATOM      4  C2' ADP d   1      -5.258  -9.182 -32.255  0.00  0.00     0.105 C 
ATOM      5  C1' ADP d   1      -4.832 -10.461 -31.559  0.00  0.00     0.139 C 
ATOM      6  H   ADP d   1      -6.609 -11.672 -33.912  0.00  0.00     0.090 H 
ATOM      7  H   ADP d   1      -6.316  -8.981 -34.147  0.00  0.00     0.091 H 
ATOM      8  H   ADP d   1      -4.431  -8.636 -32.710  0.00  0.00     0.093 H 
ATOM      9  H   ADP d   1      -5.413 -10.648 -30.656  0.00  0.00     0.122 H 
ENDROOT
BRANCH   5  10
ATOM     10  N9  ADP d   1      -3.403 -10.367 -31.153  0.00  0.00    -0.294 N 
ATOM     11  C8  ADP d   1      -2.395  -9.835 -31.879  0.00  0.00     0.071 A 
ATOM     12  N7  ADP d   1      -1.221  -9.914 -31.215  0.00  0.00    -0.236 NA
ATOM     13  H   ADP d   1      -2.514  -9.399 -32.871  0.00  0.00     0.144 H 
ATOM     14  C5  ADP d   1      -1.472 -10.514 -30.030  0.00  0.00     0.149 A 
ATOM     15  C6  ADP d   1      -0.690 -10.915 -28.827  0.00  0.00     0.155 A 
ATOM     16  C4  ADP d   1      -2.911 -10.809 -29.997  0.00  0.00     0.167 A 
ATOM     17  N6  ADP d   1       0.630 -10.679 -28.761  0.00  0.00    -0.382 N 
ATOM     18  N1  ADP d   1      -1.347 -11.513 -27.789  0.00  0.00    -0.222 NA
ATOM     19  H   ADP d   1       1.106 -10.222 -29.539  0.00  0.00     0.157 HD
ATOM     20  H   ADP d   1       1.157 -10.957 -27.933  0.00  0.00     0.157 HD
ATOM     21  C2  ADP d   1      -2.675 -11.756 -27.840  0.00  0.00     0.091 A 
ATOM     22  N3  ADP d   1      -3.435 -11.420 -28.900  0.00  0.00    -0.222 NA
ATOM     23  H   ADP d   1      -3.151 -12.244 -26.989  0.00  0.00     0.146 H 
ENDBRANCH   5  10
BRANCH   4  24
ATOM     24  O2' ADP d   1      -5.812  -8.242 -31.329  0.00  0.00    -0.388 OA
ATOM     25  H   ADP d   1      -6.122  -7.469 -31.806  0.00  0.00     0.210 HD
ENDBRANCH   4  24
BRANCH   1  26
ATOM     26  C5' ADP d   1      -4.879 -11.133 -34.932  0.00  0.00     0.058 C 
ATOM     27  H   ADP d   1      -4.255 -12.023 -34.846  0.00  0.00     0.079 H 
ATOM     28  H   ADP d   1      -5.550 -11.158 -35.791  0.00  0.00     0.079 H 
BRANCH  26  29
ATOM     29  O5' ADP d   1      -4.014 -10.015 -35.095  0.00  0.00    -0.287 OA
BRANCH  29  30
ATOM     30  PA  ADP d   1      -2.690 -10.115 -35.979  0.00  0.00     0.418 P 
ATOM     31  O1A ADP d   1      -1.545 -10.519 -35.098  0.00  0.00    -0.624 OA
ATOM     32  O2A ADP d   1      -2.930 -10.929 -37.214  0.00  0.00    -0.624 OA
BRANCH  30  33
ATOM     33  O3A ADP d   1      -2.358  -8.586 -36.275  0.00  0.00    -0.173 OA
BRANCH  33  34
ATOM     34  PB  ADP d   1      -2.564  -7.748 -37.615  0.00  0.00     0.431 P 
ATOM     35  O1B ADP d   1      -1.711  -6.530 -37.316  0.00  0.00    -0.616 OA
ATOM     36  O2B ADP d   1      -4.033  -7.463 -37.513  0.00  0.00    -0.616 OA
ATOM     37  O3B ADP d   1      -2.115  -8.665 -38.702  0.00  0.00    -0.616 OA
ENDBRANCH  33  34
ENDBRANCH  30  33
ENDBRANCH  29  30
ENDBRANCH  26  29
ENDBRANCH   1  26
BRANCH   3  38
ATOM     38  O3' ADP d   1      -7.565  -9.771 -32.716  0.00  0.00    -0.390 OA
ATOM     39  H   ADP d   1      -7.885  -8.897 -32.481  0.00  0.00     0.210 HD
ENDBRANCH   3  38
TORSDOF 8
