REMARK  30 active torsions:
REMARK  status: ('A' for Active; 'I' for Inactive)
REMARK    1  A    between atoms: N_1  and  CA_2 
REMARK    2  A    between atoms: CA_2  and  C_3 
REMARK    3  A    between atoms: CA_2  and  CB_5 
REMARK       I    between atoms: C_3  and  N_9 
REMARK    4  A    between atoms: CB_5  and  CG_6 
REMARK       I    between atoms: CG_6  and  ND2_8 
REMARK    5  A    between atoms: CA_10  and  C_11 
REMARK       I    between atoms: C_11  and  N_16 
REMARK    6  A    between atoms: N_16  and  CA_17 
REMARK    7  A    between atoms: CA_17  and  C_18 
REMARK       I    between atoms: C_18  and  N_20 
REMARK    8  A    between atoms: N_20  and  CA_21 
REMARK    9  A    between atoms: CA_21  and  C_22 
REMARK   10  A    between atoms: CA_21  and  CB_24 
REMARK       I    between atoms: C_22  and  N_28 
REMARK   11  A    between atoms: CB_24  and  CG_25 
REMARK   12  A    between atoms: CG_25  and  CD1_26 
REMARK   13  A    between atoms: CG_25  and  CD2_27 
REMARK   14  A    between atoms: N_28  and  CA_29 
REMARK   15  A    between atoms: CA_29  and  C_30 
REMARK   16  A    between atoms: CA_29  and  CB_32 
REMARK       I    between atoms: C_30  and  N_37 
REMARK   17  A    between atoms: CB_32  and  CG_33 
REMARK   18  A    between atoms: CG_33  and  CD_34 
REMARK   19  A    between atoms: CD_34  and  CE_35 
REMARK   20  A    between atoms: CE_35  and  NZ_36 
REMARK   21  A    between atoms: N_37  and  CA_38 
REMARK   22  A    between atoms: CA_38  and  C_39 
REMARK   23  A    between atoms: CA_38  and  CB_41 
REMARK       I    between atoms: C_39  and  N_45 
REMARK   24  A    between atoms: CB_41  and  CG1_42 
REMARK   25  A    between atoms: CB_41  and  CG2_43 
REMARK   26  A    between atoms: CG1_42  and  CD1_44 
REMARK   27  A    between atoms: CA_46  and  C_47 
REMARK       I    between atoms: C_47  and  N_52 
REMARK   28  A    between atoms: N_52  and  CA_53 
REMARK   29  A    between atoms: CA_53  and  C_54 
REMARK   30  A    between atoms: CA_53  and  CB_56 
ROOT
ATOM      1  CA  LYS d   1     -26.255  43.092   9.551  0.00  0.00     0.089 C 
ATOM      2  H   LYS d   1     -25.347  43.664   9.361  0.00  0.00     0.087 H 
ENDROOT
BRANCH   1   3
ATOM      3  N   LYS d   1     -27.367  43.718   8.851  0.00  0.00    -0.346 N 
ATOM      4  C   LEU d   1     -27.259  44.192   7.607  0.00  0.00     0.241 C 
ATOM      5  O   LEU d   1     -26.182  44.316   7.013  0.00  0.00    -0.271 OA
ATOM      6  H   LYS d   1     -28.264  43.798   9.329  0.00  0.00     0.163 HD
BRANCH   4   7
ATOM      7  CA  LEU d   1     -28.565  44.591   6.937  0.00  0.00     0.089 C 
ATOM      8  H   LEU d   1     -29.265  44.911   7.709  0.00  0.00     0.087 H 
BRANCH   7   9
ATOM      9  N   LEU d   1     -28.404  45.733   6.029  0.00  0.00    -0.346 N 
ATOM     10  C   GLY d   1     -29.340  46.680   5.925  0.00  0.00     0.236 C 
ATOM     11  O   GLY d   1     -30.366  46.677   6.604  0.00  0.00    -0.272 OA
ATOM     12  H   LEU d   1     -27.558  45.805   5.464  0.00  0.00     0.163 HD
BRANCH  10  13
ATOM     13  CA  GLY d   1     -29.101  47.801   4.920  0.00  0.00     0.069 C 
ATOM     14  H   GLY d   1     -28.452  48.538   5.393  0.00  0.00     0.078 H 
ATOM     15  H   GLY d   1     -28.661  47.358   4.026  0.00  0.00     0.078 H 
BRANCH  13  16
ATOM     16  N   GLY d   1     -30.331  48.481   4.521  0.00  0.00    -0.351 N 
ATOM     17  C   PRO d   1     -30.895  48.283   3.328  0.00  0.00     0.241 C 
ATOM     18  O   PRO d   1     -30.440  47.502   2.494  0.00  0.00    -0.271 OA
ATOM     19  H   GLY d   1     -30.773  49.127   5.175  0.00  0.00     0.163 HD
BRANCH  17  20
ATOM     20  CA  PRO d   1     -32.161  49.090   2.979  0.00  0.00     0.091 C 
ATOM     21  N   PRO d   1     -32.324  49.266   1.527  0.00  0.00    -0.337 N 
ATOM     22  C   ASN d   1     -31.417  50.011   0.886  0.00  0.00     0.251 C 
ATOM     23  CD  PRO d   1     -33.603  48.734   1.021  0.00  0.00    -0.001 C 
ATOM     24  O   ASN d   1     -30.567  50.667   1.483  0.00  0.00    -0.271 OA
ATOM     25  CG  PRO d   1     -34.067  47.846   2.123  0.00  0.00    -0.048 C 
ATOM     26  H   PRO d   1     -33.491  48.204   0.075  0.00  0.00     0.064 H 
ATOM     27  H   PRO d   1     -34.320  49.520   0.786  0.00  0.00     0.064 H 
ATOM     28  CB  PRO d   1     -33.439  48.350   3.398  0.00  0.00    -0.036 C 
ATOM     29  H   PRO d   1     -35.154  47.864   2.198  0.00  0.00     0.035 H 
ATOM     30  H   PRO d   1     -33.773  46.814   1.933  0.00  0.00     0.035 H 
ATOM     31  H   PRO d   1     -34.118  49.011   3.937  0.00  0.00     0.036 H 
ATOM     32  H   PRO d   1     -33.214  47.528   4.078  0.00  0.00     0.036 H 
ATOM     33  H   PRO d   1     -32.031  50.038   3.501  0.00  0.00     0.087 H 
BRANCH  22  34
ATOM     34  CA  ASN d   1     -31.466  50.010  -0.638  0.00  0.00     0.184 C 
ATOM     35  H   ASN d   1     -32.402  49.556  -0.965  0.00  0.00     0.099 H 
BRANCH  34  36
ATOM     36  N   ASN d   1     -31.445  51.364  -1.186  0.00  0.00    -0.066 N 
ATOM     37  H   ASN d   1     -32.248  51.885  -0.834  0.00  0.00     0.275 HD
ATOM     38  H   ASN d   1     -30.584  51.831  -0.901  0.00  0.00     0.275 HD
ATOM     39  H   ASN d   1     -31.488  51.318  -2.204  0.00  0.00     0.275 HD
ENDBRANCH  34  36
BRANCH  34  40
ATOM     40  CB  ASN d   1     -30.269  49.205  -1.151  0.00  0.00     0.044 C 
ATOM     41  H   ASN d   1     -30.031  48.451  -0.401  0.00  0.00     0.051 H 
ATOM     42  H   ASN d   1     -29.452  49.904  -1.329  0.00  0.00     0.051 H 
BRANCH  40  43
ATOM     43  CG  ASN d   1     -30.552  48.481  -2.461  0.00  0.00     0.217 C 
ATOM     44  OD1 ASN d   1     -31.438  48.870  -3.237  0.00  0.00    -0.274 OA
ATOM     45  ND2 ASN d   1     -29.782  47.417  -2.718  0.00  0.00    -0.370 N 
ATOM     46  H   ASN d   1     -29.912  46.890  -3.582  0.00  0.00     0.159 HD
ATOM     47  H   ASN d   1     -29.065  47.133  -2.050  0.00  0.00     0.159 HD
ENDBRANCH  40  43
ENDBRANCH  34  40
ENDBRANCH  22  34
ENDBRANCH  17  20
ENDBRANCH  13  16
ENDBRANCH  10  13
ENDBRANCH   7   9
BRANCH   7  48
ATOM     48  CB  LEU d   1     -29.119  43.376   6.185  0.00  0.00    -0.035 C 
ATOM     49  H   LEU d   1     -29.107  42.549   6.895  0.00  0.00     0.037 H 
ATOM     50  H   LEU d   1     -28.498  43.261   5.296  0.00  0.00     0.037 H 
BRANCH  48  51
ATOM     51  CG  LEU d   1     -30.561  43.485   5.685  0.00  0.00    -0.059 C 
ATOM     52  H   LEU d   1     -30.657  44.390   5.086  0.00  0.00     0.038 H 
BRANCH  51  53
ATOM     53  CD1 LEU d   1     -30.898  42.287   4.827  0.00  0.00    -0.073 C 
ATOM     54  H   LEU d   1     -30.222  42.252   3.973  0.00  0.00     0.028 H 
ATOM     55  H   LEU d   1     -30.788  41.377   5.417  0.00  0.00     0.028 H 
ATOM     56  H   LEU d   1     -31.926  42.372   4.475  0.00  0.00     0.028 H 
ENDBRANCH  51  53
BRANCH  51  57
ATOM     57  CD2 LEU d   1     -31.534  43.584   6.865  0.00  0.00    -0.073 C 
ATOM     58  H   LEU d   1     -31.441  42.693   7.487  0.00  0.00     0.028 H 
ATOM     59  H   LEU d   1     -31.297  44.468   7.457  0.00  0.00     0.028 H 
ATOM     60  H   LEU d   1     -32.554  43.661   6.488  0.00  0.00     0.028 H 
ENDBRANCH  51  57
ENDBRANCH  48  51
ENDBRANCH   7  48
ENDBRANCH   4   7
ENDBRANCH   1   3
BRANCH   1  61
ATOM     61  C   LYS d   1     -26.146  41.661   9.057  0.00  0.00     0.241 C 
ATOM     62  O   LYS d   1     -27.155  40.952   8.982  0.00  0.00    -0.271 OA
ATOM     63  N   ILE d   1     -24.928  41.241   8.728  0.00  0.00    -0.346 N 
ATOM     64  H   ILE d   1     -24.150  41.899   8.781  0.00  0.00     0.163 HD
BRANCH  63  65
ATOM     65  CA  ILE d   1     -24.664  39.877   8.295  0.00  0.00     0.092 C 
ATOM     66  H   ILE d   1     -25.616  39.391   8.080  0.00  0.00     0.088 H 
BRANCH  65  67
ATOM     67  C   ILE d   1     -23.912  39.158   9.394  0.00  0.00     0.243 C 
ATOM     68  O   ILE d   1     -22.819  39.572   9.762  0.00  0.00    -0.271 OA
ATOM     69  N   PRO d   1     -24.486  38.074   9.928  0.00  0.00    -0.337 N 
ATOM     70  CA  PRO d   1     -23.808  37.434  11.061  0.00  0.00     0.091 C 
ATOM     71  CD  PRO d   1     -25.671  37.322   9.476  0.00  0.00    -0.001 C 
ATOM     72  CB  PRO d   1     -24.787  36.336  11.483  0.00  0.00    -0.036 C 
ATOM     73  H   PRO d   1     -23.580  38.138  11.861  0.00  0.00     0.087 H 
ATOM     74  CG  PRO d   1     -25.592  36.039  10.256  0.00  0.00    -0.048 C 
ATOM     75  H   PRO d   1     -25.419  36.656  12.312  0.00  0.00     0.036 H 
ATOM     76  H   PRO d   1     -24.267  35.450  11.848  0.00  0.00     0.036 H 
ATOM     77  H   PRO d   1     -26.587  35.681  10.520  0.00  0.00     0.035 H 
ATOM     78  H   PRO d   1     -25.126  35.251   9.665  0.00  0.00     0.035 H 
ATOM     79  H   PRO d   1     -25.674  37.156   8.399  0.00  0.00     0.064 H 
ATOM     80  H   PRO d   1     -26.601  37.862   9.654  0.00  0.00     0.064 H 
BRANCH  70  81
ATOM     81  C   PRO d   1     -22.447  36.844  10.663  0.00  0.00     0.241 C 
ATOM     82  O   PRO d   1     -22.286  36.380   9.533  0.00  0.00    -0.271 OA
ATOM     83  N   LYS d   1     -21.477  36.874  11.573  0.00  0.00    -0.345 N 
ATOM     84  H   LYS d   1     -20.568  36.476  11.335  0.00  0.00     0.163 HD
BRANCH  83  85
ATOM     85  CA  LYS d   1     -21.663  37.453  12.896  0.00  0.00     0.093 C 
ATOM     86  H   LYS d   1     -22.271  38.353  12.804  0.00  0.00     0.089 H 
BRANCH  85  87
ATOM     87  C   LYS d   1     -20.311  37.820  13.492  0.00  0.00     0.196 C 
ATOM     88  O   LYS d   1     -19.305  37.086  13.302  0.00  0.00    -0.646 OA
ATOM     89  O   LYS d   1     -20.197  38.868  14.182  0.00  0.00    -0.646 OA
ENDBRANCH  85  87
BRANCH  85  90
ATOM     90  CB  LYS d   1     -22.389  36.466  13.813  0.00  0.00    -0.048 C 
ATOM     91  H   LYS d   1     -23.364  36.228  13.389  0.00  0.00     0.030 H 
ATOM     92  H   LYS d   1     -21.798  35.554  13.904  0.00  0.00     0.030 H 
ATOM     93  H   LYS d   1     -22.520  36.915  14.797  0.00  0.00     0.030 H 
ENDBRANCH  85  90
ENDBRANCH  83  85
ENDBRANCH  70  81
ENDBRANCH  65  67
BRANCH  65  94
ATOM     94  CB  ILE d   1     -23.798  39.858   7.029  0.00  0.00    -0.030 C 
ATOM     95  H   ILE d   1     -23.098  40.692   7.082  0.00  0.00     0.043 H 
BRANCH  94  96
ATOM     96  CG1 ILE d   1     -24.674  40.007   5.793  0.00  0.00    -0.063 C 
ATOM     97  H   ILE d   1     -25.499  39.301   5.892  0.00  0.00     0.033 H 
ATOM     98  H   ILE d   1     -24.043  39.826   4.923  0.00  0.00     0.033 H 
BRANCH  96  99
ATOM     99  CD1 ILE d   1     -25.266  41.363   5.637  0.00  0.00    -0.076 C 
ATOM    100  H   ILE d   1     -25.887  41.589   6.504  0.00  0.00     0.027 H 
ATOM    101  H   ILE d   1     -24.467  42.100   5.559  0.00  0.00     0.027 H 
ATOM    102  H   ILE d   1     -25.876  41.390   4.734  0.00  0.00     0.027 H 
ENDBRANCH  96  99
ENDBRANCH  94  96
BRANCH  94 103
ATOM    103  CG2 ILE d   1     -23.015  38.560   6.937  0.00  0.00    -0.071 C 
ATOM    104  H   ILE d   1     -22.369  38.465   7.809  0.00  0.00     0.028 H 
ATOM    105  H   ILE d   1     -23.709  37.720   6.904  0.00  0.00     0.028 H 
ATOM    106  H   ILE d   1     -22.407  38.567   6.032  0.00  0.00     0.028 H 
ENDBRANCH  94 103
ENDBRANCH  65  94
ENDBRANCH  63  65
ENDBRANCH   1  61
BRANCH   1 107
ATOM    107  CB  LYS d   1     -26.507  43.051  11.062  0.00  0.00    -0.038 C 
ATOM    108  H   LYS d   1     -25.668  42.514  11.505  0.00  0.00     0.036 H 
ATOM    109  H   LYS d   1     -27.483  42.587  11.204  0.00  0.00     0.036 H 
BRANCH 107 110
ATOM    110  CG  LYS d   1     -26.566  44.405  11.745  0.00  0.00    -0.061 C 
ATOM    111  H   LYS d   1     -27.062  45.110  11.077  0.00  0.00     0.033 H 
ATOM    112  H   LYS d   1     -25.549  44.725  11.972  0.00  0.00     0.033 H 
BRANCH 110 113
ATOM    113  CD  LYS d   1     -27.358  44.332  13.053  0.00  0.00    -0.043 C 
ATOM    114  H   LYS d   1     -26.904  43.578  13.696  0.00  0.00     0.035 H 
ATOM    115  H   LYS d   1     -28.392  44.075  12.823  0.00  0.00     0.035 H 
BRANCH 113 116
ATOM    116  CE  LYS d   1     -27.335  45.669  13.776  0.00  0.00     0.080 C 
ATOM    117  H   LYS d   1     -27.944  46.374  13.210  0.00  0.00     0.075 H 
ATOM    118  H   LYS d   1     -26.299  45.998  13.853  0.00  0.00     0.075 H 
BRANCH 116 119
ATOM    119  NZ  LYS d   1     -27.891  45.566  15.139  0.00  0.00    -0.079 N 
ATOM    120  H   LYS d   1     -27.858  46.481  15.589  0.00  0.00     0.274 HD
ATOM    121  H   LYS d   1     -28.858  45.246  15.087  0.00  0.00     0.274 HD
ATOM    122  H   LYS d   1     -27.340  44.900  15.680  0.00  0.00     0.274 HD
ENDBRANCH 116 119
ENDBRANCH 113 116
ENDBRANCH 110 113
ENDBRANCH 107 110
ENDBRANCH   1 107
TORSDOF 30
