REMARK  8 active torsions:
REMARK  status: ('A' for Active; 'I' for Inactive)
REMARK    1  A    between atoms: O3A_8  and  PB_1 
REMARK    2  A    between atoms: PA_5  and  O3A_8 
REMARK    3  A    between atoms: PA_5  and  O5'_9 
REMARK    4  A    between atoms: O5'_9  and  C5'_10 
REMARK    5  A    between atoms: C5'_10  and  C4'_11 
REMARK    6  A    between atoms: C3'_13  and  O3'_14 
REMARK    7  A    between atoms: C2'_15  and  O2'_16 
REMARK    8  A    between atoms: C1'_17  and  N9_18 
ROOT
ATOM      1  C4' ADP d   1      30.105  70.558  29.297  0.00  0.00     0.089 C 
ATOM      2  O4' ADP d   1      29.430  71.077  30.452  0.00  0.00    -0.353 OA
ATOM      3  C3' ADP d   1      30.481  69.122  29.640  0.00  0.00     0.091 C 
ATOM      4  C2' ADP d   1      29.537  68.721  30.763  0.00  0.00     0.105 C 
ATOM      5  C1' ADP d   1      29.210  70.048  31.437  0.00  0.00     0.139 C 
ATOM      6  H   ADP d   1      31.002  71.128  29.054  0.00  0.00     0.090 H 
ATOM      7  H   ADP d   1      30.395  68.423  28.808  0.00  0.00     0.091 H 
ATOM      8  H   ADP d   1      28.652  68.203  30.393  0.00  0.00     0.093 H 
ATOM      9  H   ADP d   1      29.837  70.213  32.313  0.00  0.00     0.122 H 
ENDROOT
BRANCH   5  10
ATOM     10  N9  ADP d   1      27.798  70.053  31.901  0.00  0.00    -0.294 N 
ATOM     11  C8  ADP d   1      26.751  69.544  31.223  0.00  0.00     0.071 A 
ATOM     12  N7  ADP d   1      25.600  69.702  31.930  0.00  0.00    -0.236 NA
ATOM     13  H   ADP d   1      26.817  69.071  30.243  0.00  0.00     0.144 H 
ATOM     14  C5  ADP d   1      25.905  70.336  33.079  0.00  0.00     0.149 A 
ATOM     15  C6  ADP d   1      25.147  70.818  34.263  0.00  0.00     0.155 A 
ATOM     16  C4  ADP d   1      27.358  70.567  33.053  0.00  0.00     0.167 A 
ATOM     17  N6  ADP d   1      23.807  70.631  34.350  0.00  0.00    -0.382 N 
ATOM     18  N1  ADP d   1      25.847  71.439  35.244  0.00  0.00    -0.222 NA
ATOM     19  H   ADP d   1      23.309  70.155  33.598  0.00  0.00     0.157 HD
ATOM     20  H   ADP d   1      23.297  70.966  35.167  0.00  0.00     0.157 HD
ATOM     21  C2  ADP d   1      27.185  71.609  35.151  0.00  0.00     0.091 A 
ATOM     22  N3  ADP d   1      27.930  71.200  34.101  0.00  0.00    -0.222 NA
ATOM     23  H   ADP d   1      27.695  72.108  35.975  0.00  0.00     0.146 H 
ENDBRANCH   5  10
BRANCH   4  24
ATOM     24  O2' ADP d   1      30.112  67.775  31.670  0.00  0.00    -0.388 OA
ATOM     25  H   ADP d   1      30.350  66.978  31.191  0.00  0.00     0.210 HD
ENDBRANCH   4  24
BRANCH   1  26
ATOM     26  C5' ADP d   1      29.219  70.666  28.054  0.00  0.00     0.058 C 
ATOM     27  H   ADP d   1      28.529  71.497  28.196  0.00  0.00     0.079 H 
ATOM     28  H   ADP d   1      29.862  70.818  27.187  0.00  0.00     0.079 H 
BRANCH  26  29
ATOM     29  O5' ADP d   1      28.455  69.478  27.844  0.00  0.00    -0.287 OA
BRANCH  29  30
ATOM     30  PA  ADP d   1      27.064  69.651  27.074  0.00  0.00     0.418 P 
ATOM     31  O1A ADP d   1      26.065  70.211  28.058  0.00  0.00    -0.624 OA
ATOM     32  O2A ADP d   1      27.366  70.405  25.813  0.00  0.00    -0.624 OA
BRANCH  30  33
ATOM     33  O3A ADP d   1      26.539  68.157  26.766  0.00  0.00    -0.173 OA
BRANCH  33  34
ATOM     34  PB  ADP d   1      26.993  67.287  25.489  0.00  0.00     0.431 P 
ATOM     35  O1B ADP d   1      26.369  65.912  25.699  0.00  0.00    -0.616 OA
ATOM     36  O2B ADP d   1      28.483  67.338  25.674  0.00  0.00    -0.616 OA
ATOM     37  O3B ADP d   1      26.445  68.009  24.273  0.00  0.00    -0.616 OA
ENDBRANCH  33  34
ENDBRANCH  30  33
ENDBRANCH  29  30
ENDBRANCH  26  29
ENDBRANCH   1  26
BRANCH   3  38
ATOM     38  O3' ADP d   1      31.844  69.137  30.079  0.00  0.00    -0.390 OA
ATOM     39  H   ADP d   1      32.116  68.245  30.305  0.00  0.00     0.210 HD
ENDBRANCH   3  38
TORSDOF 8
