REMARK  12 active torsions:
REMARK  status: ('A' for Active; 'I' for Inactive)
REMARK    1  A    between atoms: O1_7  and  C1_1 
REMARK    2  A    between atoms: C2_2  and  O2_8 
REMARK    3  A    between atoms: C3_3  and  O3_9 
REMARK    4  A    between atoms: C4_4  and  O4_10 
REMARK    5  A    between atoms: C5_5  and  C6_6 
REMARK    6  A    between atoms: C6_6  and  O6_12 
REMARK    7  A    between atoms: C4'_16  and  O1_7 
REMARK    8  A    between atoms: C1'_13  and  O1'_19 
REMARK    9  A    between atoms: C2'_14  and  O2'_20 
REMARK   10  A    between atoms: C3'_15  and  O3'_21 
REMARK   11  A    between atoms: C5'_17  and  C6'_18 
REMARK   12  A    between atoms: C6'_18  and  O6'_23 
ROOT
ATOM      1  O1  LBT d   1      -1.281   4.703  -0.497  0.00  0.00    -0.348 OA
ENDROOT
BRANCH   1   2
ATOM      2  C1  LBT d   1      -0.455   4.345  -1.586  0.00  0.00     0.159 C 
ATOM      3  C2  LBT d   1      -1.168   4.816  -2.859  0.00  0.00     0.110 C 
ATOM      4  C3  LBT d   1      -0.208   4.770  -4.044  0.00  0.00     0.092 C 
ATOM      5  H2  LBT d   1      -1.484   5.858  -2.703  0.00  0.00     0.094 H 
ATOM      6  C4  LBT d   1       1.046   5.568  -3.666  0.00  0.00     0.090 C 
ATOM      7  H3  LBT d   1       0.061   3.731  -4.287  0.00  0.00     0.091 H 
ATOM      8  C5  LBT d   1       1.685   4.925  -2.388  0.00  0.00     0.089 C 
ATOM      9  H4  LBT d   1       1.761   5.550  -4.502  0.00  0.00     0.091 H 
ATOM     10  O5  LBT d   1       0.691   5.161  -1.366  0.00  0.00    -0.348 OA
ATOM     11  H5  LBT d   1       1.875   3.853  -2.541  0.00  0.00     0.090 H 
ATOM     12  H1  LBT d   1      -0.217   3.272  -1.621  0.00  0.00     0.133 H 
BRANCH   3  13
ATOM     13  O2  LBT d   1      -2.348   4.032  -3.173  0.00  0.00    -0.388 OA
ATOM     14  H8  LBT d   1      -2.949   4.058  -2.438  0.00  0.00     0.210 HD
ENDBRANCH   3  13
BRANCH   4  15
ATOM     15  O3  LBT d   1      -0.883   5.403  -5.190  0.00  0.00    -0.390 OA
ATOM     16  H9  LBT d   1      -1.135   6.289  -4.958  0.00  0.00     0.210 HD
ENDBRANCH   4  15
BRANCH   6  17
ATOM     17  O4  LBT d   1       0.699   6.980  -3.323  0.00  0.00    -0.390 OA
ATOM     18  H10 LBT d   1       0.308   7.401  -4.079  0.00  0.00     0.210 HD
ENDBRANCH   6  17
BRANCH   8  19
ATOM     19  C6  LBT d   1       2.990   5.641  -1.934  0.00  0.00     0.043 C 
ATOM     20  H6  LBT d   1       3.332   5.193  -0.990  0.00  0.00     0.078 H 
ATOM     21  H7  LBT d   1       2.774   6.708  -1.776  0.00  0.00     0.078 H 
BRANCH  19  22
ATOM     22  O6  LBT d   1       4.062   5.514  -2.938  0.00  0.00    -0.398 OA
ATOM     23  H11 LBT d   1       3.776   5.904  -3.756  0.00  0.00     0.209 HD
ENDBRANCH  19  22
ENDBRANCH   8  19
ENDBRANCH   1   2
BRANCH   1  24
ATOM     24  C4' LBT d   1      -1.087   3.977   0.732  0.00  0.00     0.096 C 
ATOM     25  C3' LBT d   1      -0.988   4.987   1.891  0.00  0.00     0.092 C 
ATOM     26  C2' LBT d   1      -1.002   4.356   3.263  0.00  0.00     0.110 C 
ATOM     27  H14 LBT d   1      -1.887   5.616   1.816  0.00  0.00     0.091 H 
ATOM     28  C1' LBT d   1      -2.177   3.366   3.354  0.00  0.00     0.156 C 
ATOM     29  H13 LBT d   1      -0.055   3.823   3.433  0.00  0.00     0.094 H 
ATOM     30  O5' LBT d   1      -2.220   2.443   2.304  0.00  0.00    -0.349 OA
ATOM     31  H12 LBT d   1      -2.038   2.798   4.286  0.00  0.00     0.133 H 
ATOM     32  C5' LBT d   1      -2.303   3.041   0.947  0.00  0.00     0.089 C 
ATOM     33  H16 LBT d   1      -3.227   3.626   0.830  0.00  0.00     0.090 H 
ATOM     34  H15 LBT d   1      -0.164   3.382   0.677  0.00  0.00     0.091 H 
BRANCH  25  35
ATOM     35  O3' LBT d   1       0.148   5.869   1.823  0.00  0.00    -0.390 OA
ATOM     36  H21 LBT d   1       0.136   6.457   2.569  0.00  0.00     0.210 HD
ENDBRANCH  25  35
BRANCH  26  37
ATOM     37  O2' LBT d   1      -1.171   5.389   4.279  0.00  0.00    -0.388 OA
ATOM     38  H20 LBT d   1      -0.451   6.007   4.224  0.00  0.00     0.210 HD
ENDBRANCH  26  37
BRANCH  28  39
ATOM     39  O1' LBT d   1      -3.424   4.013   3.431  0.00  0.00    -0.369 OA
ATOM     40  H19 LBT d   1      -3.409   4.644   4.141  0.00  0.00     0.212 HD
ENDBRANCH  28  39
BRANCH  32  41
ATOM     41  C6' LBT d   1      -2.333   1.841   0.026  0.00  0.00     0.043 C 
ATOM     42  H17 LBT d   1      -2.645   2.165  -0.978  0.00  0.00     0.078 H 
ATOM     43  H18 LBT d   1      -3.053   1.106   0.415  0.00  0.00     0.078 H 
BRANCH  41  44
ATOM     44  O6' LBT d   1      -1.010   1.218  -0.060  0.00  0.00    -0.398 OA
ATOM     45  H22 LBT d   1      -1.052   0.468  -0.642  0.00  0.00     0.209 HD
ENDBRANCH  41  44
ENDBRANCH  32  41
ENDBRANCH   1  24
TORSDOF 12
