REMARK WARNING: 32 MAX_TORS EXCEEDED!!!
REMARK  82 active torsions:
REMARK  status: ('A' for Active; 'I' for Inactive)
REMARK    1  A    between atoms: N_1  and  CA_2 
REMARK    2  A    between atoms: CA_2  and  C_3 
REMARK    3  A    between atoms: CA_2  and  CB_5 
REMARK       I    between atoms: C_3  and  N_9 
REMARK    4  A    between atoms: CB_5  and  CG_6 
REMARK    5  A    between atoms: CG_6  and  SD_7 
REMARK    6  A    between atoms: SD_7  and  CE_8 
REMARK    7  A    between atoms: N_9  and  CA_10 
REMARK    8  A    between atoms: CA_10  and  C_11 
REMARK    9  A    between atoms: CA_10  and  CB_13 
REMARK       I    between atoms: C_11  and  N_18 
REMARK   10  A    between atoms: CB_13  and  CG_14 
REMARK   11  A    between atoms: CG_14  and  CD_15 
REMARK   12  A    between atoms: CD_15  and  CE_16 
REMARK   13  A    between atoms: CE_16  and  NZ_17 
REMARK   14  A    between atoms: N_18  and  CA_19 
REMARK   15  A    between atoms: CA_19  and  C_20 
REMARK   16  A    between atoms: CA_19  and  CB_22 
REMARK       I    between atoms: C_20  and  N_26 
REMARK   17  A    between atoms: CB_22  and  CG_23 
REMARK   18  A    between atoms: CG_23  and  CD1_24 
REMARK   19  A    between atoms: CG_23  and  CD2_25 
REMARK   20  A    between atoms: N_26  and  CA_27 
REMARK   21  A    between atoms: CA_27  and  C_28 
REMARK   22  A    between atoms: CA_27  and  CB_30 
REMARK       I    between atoms: C_28  and  N_32 
REMARK   23  A    between atoms: CB_30  and  OG_31 
REMARK   24  A    between atoms: CA_33  and  C_34 
REMARK       I    between atoms: C_34  and  N_39 
REMARK   25  A    between atoms: CA_40  and  C_41 
REMARK       I    between atoms: C_41  and  N_46 
REMARK   26  A    between atoms: N_46  and  CA_47 
REMARK   27  A    between atoms: CA_47  and  C_48 
REMARK   28  A    between atoms: CA_47  and  CB_50 
REMARK       I    between atoms: C_48  and  N_52 
REMARK   29  A    between atoms: CB_50  and  OG_51 
REMARK   30  A    between atoms: N_52  and  CA_53 
REMARK   31  A    between atoms: CA_53  and  C_54 
REMARK   32  A    between atoms: CA_53  and  CB_56 
REMARK       I    between atoms: C_54  and  N_61 
REMARK   33  A    between atoms: CB_56  and  CG_57 
REMARK   34  A    between atoms: CG_57  and  CD_58 
REMARK   35  A    between atoms: CD_58  and  CE_59 
REMARK   36  A    between atoms: CE_59  and  NZ_60 
REMARK   37  A    between atoms: N_61  and  CA_62 
REMARK   38  A    between atoms: CA_62  and  C_63 
REMARK   39  A    between atoms: CA_62  and  CB_65 
REMARK       I    between atoms: C_63  and  N_67 
REMARK   40  A    between atoms: CB_65  and  OG_66 
REMARK   41  A    between atoms: N_67  and  CA_68 
REMARK   42  A    between atoms: CA_68  and  C_69 
REMARK   43  A    between atoms: CA_68  and  CB_71 
REMARK       I    between atoms: C_69  and  N_78 
REMARK   44  A    between atoms: CB_71  and  CG_72 
REMARK   45  A    between atoms: CG_72  and  CD_73 
REMARK   46  A    between atoms: CD_73  and  NE_74 
REMARK       I    between atoms: NE_74  and  CZ_75 
REMARK       I    between atoms: CZ_75  and  NH1_76 
REMARK       I    between atoms: CZ_75  and  NH2_77 
REMARK   47  A    between atoms: N_78  and  CA_79 
REMARK   48  A    between atoms: CA_79  and  C_80 
REMARK   49  A    between atoms: CA_79  and  CB_82 
REMARK       I    between atoms: C_80  and  N_86 
REMARK   50  A    between atoms: CB_82  and  CG_83 
REMARK   51  A    between atoms: CG_83  and  CD1_84 
REMARK   52  A    between atoms: CG_83  and  CD2_85 
REMARK   53  A    between atoms: N_86  and  CA_87 
REMARK   54  A    between atoms: CA_87  and  C_88 
REMARK   55  A    between atoms: CA_87  and  CB_90 
REMARK       I    between atoms: C_88  and  N_91 
REMARK   56  A    between atoms: N_91  and  CA_92 
REMARK   57  A    between atoms: CA_92  and  C_93 
REMARK   58  A    between atoms: CA_92  and  CB_95 
REMARK       I    between atoms: C_93  and  N_102 
REMARK   59  A    between atoms: CB_95  and  CG_96 
REMARK   60  A    between atoms: CG_96  and  CD_97 
REMARK   61  A    between atoms: CD_97  and  NE_98 
REMARK       I    between atoms: NE_98  and  CZ_99 
REMARK       I    between atoms: CZ_99  and  NH1_100 
REMARK       I    between atoms: CZ_99  and  NH2_101 
REMARK   62  A    between atoms: N_102  and  CA_103 
REMARK   63  A    between atoms: CA_103  and  C_104 
REMARK   64  A    between atoms: CA_103  and  CB_106 
REMARK       I    between atoms: C_104  and  N_113 
REMARK   65  A    between atoms: CB_106  and  CG_107 
REMARK   66  A    between atoms: CG_107  and  CD_108 
REMARK   67  A    between atoms: CD_108  and  NE_109 
REMARK       I    between atoms: NE_109  and  CZ_110 
REMARK       I    between atoms: CZ_110  and  NH1_111 
REMARK       I    between atoms: CZ_110  and  NH2_112 
REMARK   68  A    between atoms: N_113  and  CA_114 
REMARK   69  A    between atoms: CA_114  and  C_115 
REMARK   70  A    between atoms: CA_114  and  CB_117 
REMARK       I    between atoms: C_115  and  N_124 
REMARK   71  A    between atoms: CB_117  and  CG_118 
REMARK   72  A    between atoms: CG_118  and  CD_119 
REMARK   73  A    between atoms: CD_119  and  NE_120 
REMARK       I    between atoms: NE_120  and  CZ_121 
REMARK       I    between atoms: CZ_121  and  NH1_122 
REMARK   74  A    between atoms: N_124  and  CA_125 
REMARK   75  A    between atoms: CA_125  and  C_126 
REMARK   76  A    between atoms: CA_125  and  CB_128 
REMARK       I    between atoms: C_126  and  N_129 
REMARK   77  A    between atoms: N_129  and  CA_130 
REMARK   78  A    between atoms: CA_130  and  C_131 
REMARK   79  A    between atoms: CA_130  and  CB_133 
REMARK   80  A    between atoms: CB_133  and  CG_134 
REMARK   81  A    between atoms: CG_134  and  CD1_135 
REMARK   82  A    between atoms: CG_134  and  CD2_136 
ROOT
ATOM      1  CA  ARG d   1      72.242  44.584   8.566  0.00  0.00     0.089 C 
ATOM      2  H   ARG d   1      72.823  45.500   8.459  0.00  0.00     0.087 H 
ENDROOT
BRANCH   1   3
ATOM      3  N   ARG d   1      71.194  44.627   7.532  0.00  0.00    -0.346 N 
ATOM      4  C   SER d   1      71.493  44.797   6.245  0.00  0.00     0.243 C 
ATOM      5  O   SER d   1      72.651  44.812   5.830  0.00  0.00    -0.271 OA
ATOM      6  H   ARG d   1      70.217  44.524   7.808  0.00  0.00     0.163 HD
BRANCH   4   7
ATOM      7  CA  SER d   1      70.329  44.967   5.263  0.00  0.00     0.109 C 
ATOM      8  H   SER d   1      69.478  45.375   5.808  0.00  0.00     0.090 H 
BRANCH   7   9
ATOM      9  N   SER d   1      70.730  45.871   4.194  0.00  0.00    -0.344 N 
ATOM     10  C   LYS d   1      70.837  47.182   4.386  0.00  0.00     0.241 C 
ATOM     11  O   LYS d   1      70.647  47.710   5.481  0.00  0.00    -0.271 OA
ATOM     12  H   SER d   1      70.935  45.487   3.271  0.00  0.00     0.163 HD
BRANCH  10  13
ATOM     13  CA  LYS d   1      71.223  48.027   3.167  0.00  0.00     0.089 C 
ATOM     14  H   LYS d   1      72.060  48.667   3.446  0.00  0.00     0.087 H 
BRANCH  13  15
ATOM     15  N   LYS d   1      71.665  47.199   2.052  0.00  0.00    -0.346 N 
ATOM     16  C   SER d   1      72.935  46.828   1.911  0.00  0.00     0.243 C 
ATOM     17  O   SER d   1      73.818  47.171   2.697  0.00  0.00    -0.271 OA
ATOM     18  H   LYS d   1      70.981  46.895   1.359  0.00  0.00     0.163 HD
BRANCH  16  19
ATOM     19  CA  SER d   1      73.269  45.943   0.706  0.00  0.00     0.109 C 
ATOM     20  H   SER d   1      73.874  45.115   1.074  0.00  0.00     0.090 H 
BRANCH  19  21
ATOM     21  N   SER d   1      72.080  45.379   0.086  0.00  0.00    -0.344 N 
ATOM     22  C   PRO d   1      71.305  44.514   0.733  0.00  0.00     0.241 C 
ATOM     23  O   PRO d   1      71.454  44.236   1.912  0.00  0.00    -0.271 OA
ATOM     24  H   SER d   1      71.836  45.653  -0.866  0.00  0.00     0.163 HD
BRANCH  22  25
ATOM     25  CA  PRO d   1      70.141  43.893  -0.040  0.00  0.00     0.091 C 
ATOM     26  N   PRO d   1      69.652  44.747  -1.125  0.00  0.00    -0.337 N 
ATOM     27  C   PRO d   1      69.235  45.978  -0.814  0.00  0.00     0.243 C 
ATOM     28  CD  PRO d   1      69.672  44.081  -2.437  0.00  0.00    -0.001 C 
ATOM     29  O   PRO d   1      69.242  46.408   0.342  0.00  0.00    -0.271 OA
ATOM     30  CG  PRO d   1      70.044  42.674  -2.110  0.00  0.00    -0.048 C 
ATOM     31  H   PRO d   1      70.372  44.547  -3.131  0.00  0.00     0.064 H 
ATOM     32  H   PRO d   1      68.715  44.150  -2.954  0.00  0.00     0.064 H 
ATOM     33  CB  PRO d   1      70.589  42.604  -0.754  0.00  0.00    -0.036 C 
ATOM     34  H   PRO d   1      69.157  42.044  -2.173  0.00  0.00     0.035 H 
ATOM     35  H   PRO d   1      70.797  42.328  -2.818  0.00  0.00     0.035 H 
ATOM     36  H   PRO d   1      70.225  41.720  -0.231  0.00  0.00     0.036 H 
ATOM     37  H   PRO d   1      71.676  42.524  -0.772  0.00  0.00     0.036 H 
ATOM     38  H   PRO d   1      69.369  43.729   0.711  0.00  0.00     0.087 H 
BRANCH  27  39
ATOM     39  CA  PRO d   1      68.725  46.855  -1.945  0.00  0.00     0.092 C 
ATOM     40  N   PRO d   1      67.631  47.699  -1.465  0.00  0.00    -0.337 N 
ATOM     41  C   SER d   1      66.514  47.112  -1.033  0.00  0.00     0.245 C 
ATOM     42  CD  PRO d   1      67.947  49.132  -1.567  0.00  0.00    -0.001 C 
ATOM     43  O   SER d   1      66.328  45.906  -1.122  0.00  0.00    -0.271 OA
ATOM     44  CG  PRO d   1      69.097  49.150  -2.524  0.00  0.00    -0.048 C 
ATOM     45  H   PRO d   1      68.189  49.583  -0.605  0.00  0.00     0.064 H 
ATOM     46  H   PRO d   1      67.102  49.730  -1.908  0.00  0.00     0.064 H 
ATOM     47  CB  PRO d   1      69.799  47.868  -2.360  0.00  0.00    -0.036 C 
ATOM     48  H   PRO d   1      68.749  49.275  -3.549  0.00  0.00     0.035 H 
ATOM     49  H   PRO d   1      69.763  49.988  -2.317  0.00  0.00     0.035 H 
ATOM     50  H   PRO d   1      70.294  47.566  -3.283  0.00  0.00     0.036 H 
ATOM     51  H   PRO d   1      70.587  47.940  -1.611  0.00  0.00     0.036 H 
ATOM     52  H   PRO d   1      68.434  46.187  -2.756  0.00  0.00     0.087 H 
BRANCH  41  53
ATOM     53  CA  SER d   1      65.451  48.016  -0.437  0.00  0.00     0.109 C 
ATOM     54  H   SER d   1      65.329  48.909  -1.050  0.00  0.00     0.090 H 
BRANCH  53  55
ATOM     55  N   SER d   1      64.213  47.268  -0.383  0.00  0.00    -0.344 N 
ATOM     56  C   LEU d   1      63.504  47.004  -1.472  0.00  0.00     0.241 C 
ATOM     57  O   LEU d   1      63.716  47.543  -2.578  0.00  0.00    -0.271 OA
ATOM     58  H   SER d   1      63.876  46.934   0.520  0.00  0.00     0.163 HD
BRANCH  56  59
ATOM     59  CA  LEU d   1      62.388  45.987  -1.276  0.00  0.00     0.089 C 
ATOM     60  H   LEU d   1      62.147  45.910  -0.216  0.00  0.00     0.087 H 
BRANCH  59  61
ATOM     61  N   LEU d   1      61.175  46.402  -1.965  0.00  0.00    -0.346 N 
ATOM     62  C   LYS d   1      60.422  47.379  -1.488  0.00  0.00     0.241 C 
ATOM     63  O   LYS d   1      60.693  47.969  -0.452  0.00  0.00    -0.271 OA
ATOM     64  H   LEU d   1      60.902  45.932  -2.828  0.00  0.00     0.163 HD
BRANCH  62  65
ATOM     65  CA  LYS d   1      59.182  47.759  -2.298  0.00  0.00     0.089 C 
ATOM     66  H   LYS d   1      59.192  47.227  -3.249  0.00  0.00     0.087 H 
BRANCH  65  67
ATOM     67  N   LYS d   1      57.985  47.390  -1.551  0.00  0.00    -0.346 N 
ATOM     68  C   MET d   1      57.320  46.270  -1.797  0.00  0.00     0.249 C 
ATOM     69  O   MET d   1      57.609  45.514  -2.720  0.00  0.00    -0.271 OA
ATOM     70  H   LYS d   1      57.649  48.013  -0.817  0.00  0.00     0.163 HD
BRANCH  68  71
ATOM     71  CA  MET d   1      56.167  45.954  -0.857  0.00  0.00     0.176 C 
ATOM     72  H   MET d   1      55.890  46.857  -0.314  0.00  0.00     0.099 H 
BRANCH  71  73
ATOM     73  N   MET d   1      55.003  45.503  -1.607  0.00  0.00    -0.066 N 
ATOM     74  H   MET d   1      54.720  46.231  -2.263  0.00  0.00     0.275 HD
ATOM     75  H   MET d   1      55.239  44.654  -2.120  0.00  0.00     0.275 HD
ATOM     76  H   MET d   1      54.238  45.310  -0.961  0.00  0.00     0.275 HD
ENDBRANCH  71  73
BRANCH  71  77
ATOM     77  CB  MET d   1      56.608  44.878   0.133  0.00  0.00    -0.022 C 
ATOM     78  H   MET d   1      57.490  44.392  -0.285  0.00  0.00     0.037 H 
ATOM     79  H   MET d   1      55.764  44.205   0.279  0.00  0.00     0.037 H 
BRANCH  77  80
ATOM     80  CG  MET d   1      56.995  45.423   1.497  0.00  0.00    -0.021 C 
ATOM     81  H   MET d   1      56.097  45.824   1.966  0.00  0.00     0.049 H 
ATOM     82  H   MET d   1      57.763  46.182   1.351  0.00  0.00     0.049 H 
BRANCH  80  83
ATOM     83  SD  MET d   1      57.667  44.154   2.578  0.00  0.00    -0.173 SA
BRANCH  83  84
ATOM     84  CE  MET d   1      58.843  43.432   1.472  0.00  0.00    -0.035 C 
ATOM     85  H   MET d   1      58.325  43.046   0.594  0.00  0.00     0.041 H 
ATOM     86  H   MET d   1      59.565  44.190   1.166  0.00  0.00     0.041 H 
ATOM     87  H   MET d   1      59.362  42.617   1.977  0.00  0.00     0.041 H 
ENDBRANCH  83  84
ENDBRANCH  80  83
ENDBRANCH  77  80
ENDBRANCH  71  77
ENDBRANCH  68  71
ENDBRANCH  65  67
BRANCH  65  88
ATOM     88  CB  LYS d   1      59.183  49.260  -2.572  0.00  0.00    -0.038 C 
ATOM     89  H   LYS d   1      58.955  49.754  -1.628  0.00  0.00     0.036 H 
ATOM     90  H   LYS d   1      58.459  49.437  -3.368  0.00  0.00     0.036 H 
BRANCH  88  91
ATOM     91  CG  LYS d   1      60.516  49.822  -3.054  0.00  0.00    -0.061 C 
ATOM     92  H   LYS d   1      61.292  49.474  -2.373  0.00  0.00     0.033 H 
ATOM     93  H   LYS d   1      60.433  50.909  -3.076  0.00  0.00     0.033 H 
BRANCH  91  94
ATOM     94  CD  LYS d   1      60.879  49.351  -4.458  0.00  0.00    -0.043 C 
ATOM     95  H   LYS d   1      59.971  49.302  -5.059  0.00  0.00     0.035 H 
ATOM     96  H   LYS d   1      61.349  48.370  -4.390  0.00  0.00     0.035 H 
BRANCH  94  97
ATOM     97  CE  LYS d   1      61.859  50.326  -5.119  0.00  0.00     0.080 C 
ATOM     98  H   LYS d   1      62.724  50.424  -4.463  0.00  0.00     0.075 H 
ATOM     99  H   LYS d   1      61.336  51.270  -5.275  0.00  0.00     0.075 H 
BRANCH  97 100
ATOM    100  NZ  LYS d   1      62.345  49.849  -6.448  0.00  0.00    -0.079 N 
ATOM    101  H   LYS d   1      62.991  50.535  -6.839  0.00  0.00     0.274 HD
ATOM    102  H   LYS d   1      62.824  48.956  -6.333  0.00  0.00     0.274 HD
ATOM    103  H   LYS d   1      61.551  49.731  -7.077  0.00  0.00     0.274 HD
ENDBRANCH  97 100
ENDBRANCH  94  97
ENDBRANCH  91  94
ENDBRANCH  88  91
ENDBRANCH  65  88
ENDBRANCH  62  65
ENDBRANCH  59  61
BRANCH  59 104
ATOM    104  CB  LEU d   1      62.870  44.635  -1.800  0.00  0.00    -0.035 C 
ATOM    105  H   LEU d   1      63.811  44.439  -1.287  0.00  0.00     0.037 H 
ATOM    106  H   LEU d   1      62.902  44.734  -2.885  0.00  0.00     0.037 H 
BRANCH 104 107
ATOM    107  CG  LEU d   1      61.989  43.421  -1.523  0.00  0.00    -0.059 C 
ATOM    108  H   LEU d   1      60.959  43.660  -1.786  0.00  0.00     0.038 H 
BRANCH 107 109
ATOM    109  CD1 LEU d   1      62.446  42.240  -2.385  0.00  0.00    -0.073 C 
ATOM    110  H   LEU d   1      62.368  42.509  -3.438  0.00  0.00     0.028 H 
ATOM    111  H   LEU d   1      63.481  41.997  -2.146  0.00  0.00     0.028 H 
ATOM    112  H   LEU d   1      61.812  41.377  -2.182  0.00  0.00     0.028 H 
ENDBRANCH 107 109
BRANCH 107 113
ATOM    113  CD2 LEU d   1      62.017  43.062  -0.023  0.00  0.00    -0.073 C 
ATOM    114  H   LEU d   1      63.040  42.833   0.275  0.00  0.00     0.028 H 
ATOM    115  H   LEU d   1      61.648  43.907   0.558  0.00  0.00     0.028 H 
ATOM    116  H   LEU d   1      61.382  42.194   0.153  0.00  0.00     0.028 H 
ENDBRANCH 107 113
ENDBRANCH 104 107
ENDBRANCH  59 104
ENDBRANCH  56  59
ENDBRANCH  53  55
BRANCH  53 117
ATOM    117  CB  SER d   1      65.858  48.463   0.963  0.00  0.00     0.044 C 
ATOM    118  H   SER d   1      66.820  48.973   0.909  0.00  0.00     0.077 H 
ATOM    119  H   SER d   1      65.931  47.588   1.609  0.00  0.00     0.077 H 
BRANCH 117 120
ATOM    120  OG  SER d   1      64.889  49.354   1.495  0.00  0.00    -0.398 OA
ATOM    121  H   SER d   1      65.157  49.628   2.375  0.00  0.00     0.209 HD
ENDBRANCH 117 120
ENDBRANCH  53 117
ENDBRANCH  41  53
ENDBRANCH  27  39
ENDBRANCH  22  25
ENDBRANCH  19  21
BRANCH  19 122
ATOM    122  CB  SER d   1      74.049  46.746  -0.329  0.00  0.00     0.044 C 
ATOM    123  H   SER d   1      74.214  46.127  -1.211  0.00  0.00     0.077 H 
ATOM    124  H   SER d   1      75.003  47.051   0.101  0.00  0.00     0.077 H 
BRANCH 122 125
ATOM    125  OG  SER d   1      73.321  47.899  -0.703  0.00  0.00    -0.398 OA
ATOM    126  H   SER d   1      73.822  48.395  -1.354  0.00  0.00     0.209 HD
ENDBRANCH 122 125
ENDBRANCH  19 122
ENDBRANCH  16  19
ENDBRANCH  13  15
BRANCH  13 127
ATOM    127  CB  LYS d   1      70.025  48.888   2.748  0.00  0.00    -0.038 C 
ATOM    128  H   LYS d   1      69.797  49.542   3.590  0.00  0.00     0.036 H 
ATOM    129  H   LYS d   1      69.225  48.202   2.470  0.00  0.00     0.036 H 
BRANCH 127 130
ATOM    130  CG  LYS d   1      70.270  49.784   1.550  0.00  0.00    -0.061 C 
ATOM    131  H   LYS d   1      69.304  50.070   1.133  0.00  0.00     0.033 H 
ATOM    132  H   LYS d   1      70.876  49.234   0.830  0.00  0.00     0.033 H 
BRANCH 130 133
ATOM    133  CD  LYS d   1      71.009  51.036   1.931  0.00  0.00    -0.043 C 
ATOM    134  H   LYS d   1      72.037  50.773   2.179  0.00  0.00     0.035 H 
ATOM    135  H   LYS d   1      70.507  51.493   2.784  0.00  0.00     0.035 H 
BRANCH 133 136
ATOM    136  CE  LYS d   1      71.023  52.034   0.779  0.00  0.00     0.080 C 
ATOM    137  H   LYS d   1      71.560  51.580  -0.054  0.00  0.00     0.075 H 
ATOM    138  H   LYS d   1      71.499  52.949   1.132  0.00  0.00     0.075 H 
BRANCH 136 139
ATOM    139  NZ  LYS d   1      69.643  52.382   0.306  0.00  0.00    -0.079 N 
ATOM    140  H   LYS d   1      69.707  53.050  -0.462  0.00  0.00     0.274 HD
ATOM    141  H   LYS d   1      69.172  51.536  -0.015  0.00  0.00     0.274 HD
ATOM    142  H   LYS d   1      69.115  52.795   1.075  0.00  0.00     0.274 HD
ENDBRANCH 136 139
ENDBRANCH 133 136
ENDBRANCH 130 133
ENDBRANCH 127 130
ENDBRANCH  13 127
ENDBRANCH  10  13
ENDBRANCH   7   9
BRANCH   7 143
ATOM    143  CB  SER d   1      69.917  43.618   4.651  0.00  0.00     0.044 C 
ATOM    144  H   SER d   1      70.797  43.186   4.175  0.00  0.00     0.077 H 
ATOM    145  H   SER d   1      69.103  43.806   3.950  0.00  0.00     0.077 H 
BRANCH 143 146
ATOM    146  OG  SER d   1      69.454  42.699   5.609  0.00  0.00    -0.398 OA
ATOM    147  H   SER d   1      68.687  43.064   6.056  0.00  0.00     0.209 HD
ENDBRANCH 143 146
ENDBRANCH   7 143
ENDBRANCH   4   7
ENDBRANCH   1   3
BRANCH   1 148
ATOM    148  C   ARG d   1      73.216  43.417   8.376  0.00  0.00     0.241 C 
ATOM    149  O   ARG d   1      74.425  43.604   8.470  0.00  0.00    -0.271 OA
ATOM    150  N   LEU d   1      72.700  42.219   8.102  0.00  0.00    -0.346 N 
ATOM    151  H   LEU d   1      71.687  42.118   8.043  0.00  0.00     0.163 HD
BRANCH 150 152
ATOM    152  CA  LEU d   1      73.545  41.045   7.884  0.00  0.00     0.089 C 
ATOM    153  H   LEU d   1      74.218  40.923   8.733  0.00  0.00     0.087 H 
BRANCH 152 154
ATOM    154  C   LEU d   1      74.410  41.224   6.638  0.00  0.00     0.241 C 
ATOM    155  O   LEU d   1      75.614  40.952   6.661  0.00  0.00    -0.271 OA
ATOM    156  N   ALA d   1      73.823  41.701   5.548  0.00  0.00    -0.346 N 
ATOM    157  H   ALA d   1      72.813  41.841   5.535  0.00  0.00     0.163 HD
BRANCH 156 158
ATOM    158  CA  ALA d   1      74.622  42.027   4.363  0.00  0.00     0.086 C 
ATOM    159  H   ALA d   1      75.085  41.100   4.027  0.00  0.00     0.086 H 
BRANCH 158 160
ATOM    160  C   ALA d   1      75.728  43.028   4.681  0.00  0.00     0.240 C 
ATOM    161  O   ALA d   1      76.841  42.931   4.150  0.00  0.00    -0.271 OA
ATOM    162  N   ARG d   1      75.419  44.021   5.507  0.00  0.00    -0.346 N 
ATOM    163  H   ARG d   1      74.491  44.058   5.928  0.00  0.00     0.163 HD
BRANCH 162 164
ATOM    164  CA  ARG d   1      76.399  45.064   5.818  0.00  0.00     0.089 C 
ATOM    165  H   ARG d   1      76.784  45.465   4.880  0.00  0.00     0.087 H 
BRANCH 164 166
ATOM    166  C   ARG d   1      77.561  44.473   6.605  0.00  0.00     0.241 C 
ATOM    167  O   ARG d   1      78.715  44.869   6.410  0.00  0.00    -0.271 OA
ATOM    168  N   ARG d   1      77.268  43.517   7.489  0.00  0.00    -0.346 N 
ATOM    169  H   ARG d   1      76.294  43.270   7.663  0.00  0.00     0.163 HD
BRANCH 168 170
ATOM    170  CA  ARG d   1      78.338  42.817   8.214  0.00  0.00     0.089 C 
ATOM    171  H   ARG d   1      78.902  43.577   8.755  0.00  0.00     0.087 H 
BRANCH 170 172
ATOM    172  C   ARG d   1      79.257  42.081   7.241  0.00  0.00     0.241 C 
ATOM    173  O   ARG d   1      80.478  42.088   7.401  0.00  0.00    -0.271 OA
ATOM    174  N   ARG d   1      78.673  41.462   6.220  0.00  0.00    -0.346 N 
ATOM    175  H   ARG d   1      77.659  41.506   6.124  0.00  0.00     0.163 HD
BRANCH 174 176
ATOM    176  CA  ARG d   1      79.452  40.721   5.234  0.00  0.00     0.089 C 
ATOM    177  H   ARG d   1      80.136  40.090   5.801  0.00  0.00     0.087 H 
BRANCH 176 178
ATOM    178  C   ARG d   1      80.303  41.609   4.336  0.00  0.00     0.241 C 
ATOM    179  O   ARG d   1      81.324  41.170   3.808  0.00  0.00    -0.271 OA
ATOM    180  N   ALA d   1      79.881  42.853   4.156  0.00  0.00    -0.346 N 
ATOM    181  H   ALA d   1      79.049  43.176   4.651  0.00  0.00     0.163 HD
BRANCH 180 182
ATOM    182  CA  ALA d   1      80.585  43.770   3.262  0.00  0.00     0.086 C 
ATOM    183  H   ALA d   1      80.867  43.207   2.372  0.00  0.00     0.086 H 
BRANCH 182 184
ATOM    184  C   ALA d   1      81.865  44.306   3.884  0.00  0.00     0.240 C 
ATOM    185  O   ALA d   1      82.744  44.795   3.176  0.00  0.00    -0.271 OA
ATOM    186  N   LEU d   1      81.971  44.221   5.205  0.00  0.00    -0.345 N 
ATOM    187  H   LEU d   1      81.215  43.800   5.745  0.00  0.00     0.163 HD
BRANCH 186 188
ATOM    188  CA  LEU d   1      83.156  44.722   5.895  0.00  0.00     0.096 C 
ATOM    189  H   LEU d   1      83.371  45.718   5.508  0.00  0.00     0.089 H 
BRANCH 188 190
ATOM    190  C   LEU d   1      84.373  43.839   5.629  0.00  0.00     0.196 C 
ATOM    191  O   LEU d   1      84.243  42.637   5.387  0.00  0.00    -0.646 OA
ATOM    192  O   LEU d   1      85.526  44.346   5.657  0.00  0.00    -0.646 OA
ENDBRANCH 188 190
BRANCH 188 193
ATOM    193  CB  LEU d   1      82.894  44.804   7.392  0.00  0.00    -0.034 C 
ATOM    194  H   LEU d   1      83.796  45.210   7.851  0.00  0.00     0.037 H 
ATOM    195  H   LEU d   1      82.628  43.800   7.724  0.00  0.00     0.037 H 
BRANCH 193 196
ATOM    196  CG  LEU d   1      81.739  45.725   7.787  0.00  0.00    -0.059 C 
ATOM    197  H   LEU d   1      80.888  45.517   7.139  0.00  0.00     0.038 H 
BRANCH 196 198
ATOM    198  CD1 LEU d   1      81.319  45.453   9.225  0.00  0.00    -0.073 C 
ATOM    199  H   LEU d   1      80.997  44.416   9.318  0.00  0.00     0.028 H 
ATOM    200  H   LEU d   1      82.164  45.634   9.889  0.00  0.00     0.028 H 
ATOM    201  H   LEU d   1      80.496  46.115   9.493  0.00  0.00     0.028 H 
ENDBRANCH 196 198
BRANCH 196 202
ATOM    202  CD2 LEU d   1      82.121  47.186   7.589  0.00  0.00    -0.073 C 
ATOM    203  H   LEU d   1      82.987  47.421   8.208  0.00  0.00     0.028 H 
ATOM    204  H   LEU d   1      82.365  47.357   6.541  0.00  0.00     0.028 H 
ATOM    205  H   LEU d   1      81.283  47.821   7.877  0.00  0.00     0.028 H 
ENDBRANCH 196 202
ENDBRANCH 193 196
ENDBRANCH 188 193
ENDBRANCH 186 188
ENDBRANCH 182 184
BRANCH 182 206
ATOM    206  CB  ALA d   1      79.675  44.915   2.866  0.00  0.00    -0.049 C 
ATOM    207  H   ALA d   1      78.797  44.520   2.354  0.00  0.00     0.030 H 
ATOM    208  H   ALA d   1      79.363  45.456   3.760  0.00  0.00     0.030 H 
ATOM    209  H   ALA d   1      80.212  45.590   2.200  0.00  0.00     0.030 H 
ENDBRANCH 182 206
ENDBRANCH 180 182
ENDBRANCH 176 178
BRANCH 176 210
ATOM    210  CB  ARG d   1      78.526  39.877   4.366  0.00  0.00    -0.036 C 
ATOM    211  H   ARG d   1      79.129  39.412   3.586  0.00  0.00     0.036 H 
ATOM    212  H   ARG d   1      77.753  40.533   3.964  0.00  0.00     0.036 H 
BRANCH 210 213
ATOM    213  CG  ARG d   1      77.849  38.786   5.136  0.00  0.00    -0.048 C 
ATOM    214  H   ARG d   1      77.089  38.331   4.501  0.00  0.00     0.035 H 
ATOM    215  H   ARG d   1      77.404  39.217   6.033  0.00  0.00     0.035 H 
BRANCH 213 216
ATOM    216  CD  ARG d   1      78.839  37.716   5.551  0.00  0.00     0.009 C 
ATOM    217  H   ARG d   1      79.602  38.144   6.201  0.00  0.00     0.064 H 
ATOM    218  H   ARG d   1      79.332  37.301   4.672  0.00  0.00     0.064 H 
BRANCH 216 219
ATOM    219  NE  ARG d   1      78.113  36.671   6.255  0.00  0.00    -0.227 N 
ATOM    220  CZ  ARG d   1      77.834  36.709   7.549  0.00  0.00     0.665 C 
ATOM    221  NH1 ARG d   1      78.243  37.724   8.290  0.00  0.00    -0.235 N 
ATOM    222  NH2 ARG d   1      77.132  35.737   8.096  0.00  0.00    -0.235 N 
ATOM    223  H   ARG d   1      78.776  38.483   7.866  0.00  0.00     0.174 HD
ATOM    224  H   ARG d   1      78.025  37.748   9.286  0.00  0.00     0.174 HD
ATOM    225  H   ARG d   1      76.805  34.959   7.523  0.00  0.00     0.174 HD
ATOM    226  H   ARG d   1      76.915  35.763   9.092  0.00  0.00     0.174 HD
ATOM    227  H   ARG d   1      77.800  35.861   5.720  0.00  0.00     0.177 HD
ENDBRANCH 216 219
ENDBRANCH 213 216
ENDBRANCH 210 213
ENDBRANCH 176 210
ENDBRANCH 174 176
ENDBRANCH 170 172
BRANCH 170 228
ATOM    228  CB  ARG d   1      77.777  41.808   9.225  0.00  0.00    -0.036 C 
ATOM    229  H   ARG d   1      78.630  41.325   9.702  0.00  0.00     0.036 H 
ATOM    230  H   ARG d   1      77.126  41.130   8.673  0.00  0.00     0.036 H 
BRANCH 228 231
ATOM    231  CG  ARG d   1      76.945  42.424  10.324  0.00  0.00    -0.048 C 
ATOM    232  H   ARG d   1      75.911  42.460   9.980  0.00  0.00     0.035 H 
ATOM    233  H   ARG d   1      77.353  43.412  10.538  0.00  0.00     0.035 H 
BRANCH 231 234
ATOM    234  CD  ARG d   1      76.980  41.605  11.629  0.00  0.00     0.009 C 
ATOM    235  H   ARG d   1      76.343  42.115  12.352  0.00  0.00     0.064 H 
ATOM    236  H   ARG d   1      78.022  41.531  11.940  0.00  0.00     0.064 H 
BRANCH 234 237
ATOM    237  NE  ARG d   1      76.470  40.243  11.480  0.00  0.00    -0.227 N 
ATOM    238  CZ  ARG d   1      75.182  39.900  11.584  0.00  0.00     0.665 C 
ATOM    239  NH1 ARG d   1      74.245  40.814  11.823  0.00  0.00    -0.235 N 
ATOM    240  NH2 ARG d   1      74.831  38.641  11.446  0.00  0.00    -0.235 N 
ATOM    241  H   ARG d   1      74.505  41.795  11.930  0.00  0.00     0.174 HD
ATOM    242  H   ARG d   1      73.267  40.534  11.899  0.00  0.00     0.174 HD
ATOM    243  H   ARG d   1      75.540  37.931  11.261  0.00  0.00     0.174 HD
ATOM    244  H   ARG d   1      73.850  38.374  11.524  0.00  0.00     0.174 HD
ATOM    245  H   ARG d   1      77.144  39.503  11.283  0.00  0.00     0.177 HD
ENDBRANCH 234 237
ENDBRANCH 231 234
ENDBRANCH 228 231
ENDBRANCH 170 228
ENDBRANCH 168 170
ENDBRANCH 164 166
BRANCH 164 246
ATOM    246  CB  ARG d   1      75.751  46.224   6.580  0.00  0.00    -0.036 C 
ATOM    247  H   ARG d   1      76.555  46.850   6.966  0.00  0.00     0.036 H 
ATOM    248  H   ARG d   1      75.121  45.792   7.357  0.00  0.00     0.036 H 
BRANCH 246 249
ATOM    249  CG  ARG d   1      74.864  47.106   5.713  0.00  0.00    -0.048 C 
ATOM    250  H   ARG d   1      74.043  46.492   5.343  0.00  0.00     0.035 H 
ATOM    251  H   ARG d   1      75.481  47.515   4.913  0.00  0.00     0.035 H 
BRANCH 249 252
ATOM    252  CD  ARG d   1      74.260  48.277   6.481  0.00  0.00     0.009 C 
ATOM    253  H   ARG d   1      74.974  48.613   7.233  0.00  0.00     0.064 H 
ATOM    254  H   ARG d   1      73.333  47.950   6.953  0.00  0.00     0.064 H 
BRANCH 252 255
ATOM    255  NE  ARG d   1      73.965  49.392   5.572  0.00  0.00    -0.227 N 
ATOM    256  CZ  ARG d   1      72.858  50.136   5.597  0.00  0.00     0.665 C 
ATOM    257  NH1 ARG d   1      71.901  49.909   6.490  0.00  0.00    -0.235 N 
ATOM    258  NH2 ARG d   1      72.708  51.118   4.717  0.00  0.00    -0.235 N 
ATOM    259  H   ARG d   1      72.006  49.156   7.170  0.00  0.00     0.174 HD
ATOM    260  H   ARG d   1      71.061  50.487   6.495  0.00  0.00     0.174 HD
ATOM    261  H   ARG d   1      73.437  51.300   4.027  0.00  0.00     0.174 HD
ATOM    262  H   ARG d   1      71.864  51.691   4.731  0.00  0.00     0.174 HD
ATOM    263  H   ARG d   1      74.664  49.616   4.864  0.00  0.00     0.177 HD
ENDBRANCH 252 255
ENDBRANCH 249 252
ENDBRANCH 246 249
ENDBRANCH 164 246
ENDBRANCH 162 164
ENDBRANCH 158 160
BRANCH 158 264
ATOM    264  CB  ALA d   1      73.739  42.587   3.260  0.00  0.00    -0.049 C 
ATOM    265  H   ALA d   1      72.987  41.846   2.987  0.00  0.00     0.030 H 
ATOM    266  H   ALA d   1      73.247  43.492   3.615  0.00  0.00     0.030 H 
ATOM    267  H   ALA d   1      74.352  42.822   2.390  0.00  0.00     0.030 H 
ENDBRANCH 158 264
ENDBRANCH 156 158
ENDBRANCH 152 154
BRANCH 152 268
ATOM    268  CB  LEU d   1      72.659  39.799   7.766  0.00  0.00    -0.035 C 
ATOM    269  H   LEU d   1      71.899  40.070   7.034  0.00  0.00     0.037 H 
ATOM    270  H   LEU d   1      72.363  39.573   8.790  0.00  0.00     0.037 H 
BRANCH 268 271
ATOM    271  CG  LEU d   1      73.256  38.497   7.240  0.00  0.00    -0.059 C 
ATOM    272  H   LEU d   1      73.711  38.697   6.270  0.00  0.00     0.038 H 
BRANCH 271 273
ATOM    273  CD1 LEU d   1      74.332  37.985   8.174  0.00  0.00    -0.073 C 
ATOM    274  H   LEU d   1      75.125  38.729   8.255  0.00  0.00     0.028 H 
ATOM    275  H   LEU d   1      73.900  37.803   9.158  0.00  0.00     0.028 H 
ATOM    276  H   LEU d   1      74.743  37.056   7.778  0.00  0.00     0.028 H 
ENDBRANCH 271 273
BRANCH 271 277
ATOM    277  CD2 LEU d   1      72.173  37.453   7.062  0.00  0.00    -0.073 C 
ATOM    278  H   LEU d   1      71.693  37.262   8.022  0.00  0.00     0.028 H 
ATOM    279  H   LEU d   1      71.432  37.818   6.350  0.00  0.00     0.028 H 
ATOM    280  H   LEU d   1      72.617  36.531   6.686  0.00  0.00     0.028 H 
ENDBRANCH 271 277
ENDBRANCH 268 271
ENDBRANCH 152 268
ENDBRANCH 150 152
ENDBRANCH   1 148
BRANCH   1 281
ATOM    281  CB  ARG d   1      71.620  44.547   9.975  0.00  0.00    -0.036 C 
ATOM    282  H   ARG d   1      72.396  44.209  10.662  0.00  0.00     0.036 H 
ATOM    283  H   ARG d   1      70.752  43.890   9.927  0.00  0.00     0.036 H 
BRANCH 281 284
ATOM    284  CG  ARG d   1      71.140  45.885  10.469  0.00  0.00    -0.048 C 
ATOM    285  H   ARG d   1      70.565  46.364   9.677  0.00  0.00     0.035 H 
ATOM    286  H   ARG d   1      72.006  46.488  10.742  0.00  0.00     0.035 H 
BRANCH 284 287
ATOM    287  CD  ARG d   1      70.246  45.726  11.697  0.00  0.00     0.009 C 
ATOM    288  H   ARG d   1      70.014  46.718  12.085  0.00  0.00     0.064 H 
ATOM    289  H   ARG d   1      70.776  45.121  12.432  0.00  0.00     0.064 H 
BRANCH 287 290
ATOM    290  NE  ARG d   1      68.986  45.053  11.365  0.00  0.00    -0.227 N 
ATOM    291  CZ  ARG d   1      68.013  44.811  12.238  0.00  0.00     0.665 C 
ATOM    292  NH1 ARG d   1      68.144  45.183  13.504  0.00  0.00    -0.235 N 
ATOM    293  NH2 ARG d   1      66.908  44.194  11.846  0.00  0.00    -0.235 N 
ATOM    294  H   ARG d   1      68.994  45.657  13.811  0.00  0.00     0.174 HD
ATOM    295  H   ARG d   1      67.395  44.995  14.171  0.00  0.00     0.174 HD
ATOM    296  H   ARG d   1      66.803  43.904  10.874  0.00  0.00     0.174 HD
ATOM    297  H   ARG d   1      66.162  44.009  12.517  0.00  0.00     0.174 HD
ATOM    298  H   ARG d   1      68.847  44.751  10.401  0.00  0.00     0.177 HD
ENDBRANCH 287 290
ENDBRANCH 284 287
ENDBRANCH 281 284
ENDBRANCH   1 281
TORSDOF 82
