REMARK  10 active torsions:
REMARK  status: ('A' for Active; 'I' for Inactive)
REMARK    1  A    between atoms: C2_2  and  N14_14 
REMARK    2  A    between atoms: N11_11  and  C29_29 
REMARK    3  A    between atoms: C13_13  and  C15_15 
REMARK    4  A    between atoms: N14_14  and  C17_17 
REMARK       I    between atoms: C15_15  and  N28_28 
REMARK    5  A    between atoms: C19_19  and  N32_32 
REMARK    6  A    between atoms: C22_22  and  O23_23 
REMARK    7  A    between atoms: O23_23  and  C24_24 
REMARK    8  A    between atoms: C29_29  and  C30_30 
REMARK    9  A    between atoms: C30_30  and  O31_31 
REMARK   10  A    between atoms: N35_35  and  C38_38 
ROOT
ATOM      1  C17 937 d   1     -45.103  11.514   7.284  0.00  0.00     0.085 A 
ATOM      2  C18 937 d   1     -44.195  10.590   7.720  0.00  0.00    -0.028 A 
ATOM      3  C19 937 d   1     -44.561   9.134   7.798  0.00  0.00     0.032 A 
ATOM      4  C20 937 d   1     -45.816   8.749   7.423  0.00  0.00    -0.055 A 
ATOM      5  C21 937 d   1     -46.793   9.732   6.956  0.00  0.00    -0.046 A 
ATOM      6  C22 937 d   1     -46.474  11.050   6.883  0.00  0.00     0.105 A 
ATOM      7  H5  937 d   1     -43.202  10.910   8.012  0.00  0.00     0.090 H 
ATOM      8  H6  937 d   1     -46.092   7.702   7.472  0.00  0.00     0.087 H 
ATOM      9  H7  937 d   1     -47.784   9.404   6.664  0.00  0.00     0.087 H 
ENDROOT
BRANCH   1  10
ATOM     10  N14 937 d   1     -44.702  12.908   7.219  0.00  0.00    -0.185 N 
ATOM     11  H4  937 d   1     -44.829  13.354   6.299  0.00  0.00     0.184 HD
BRANCH  10  12
ATOM     12  C2  937 d   1     -44.170  13.741   8.211  0.00  0.00     0.727 A 
ATOM     13  N1  937 d   1     -43.959  14.987   8.022  0.00  0.00    -0.074 NA
ATOM     14  C4  937 d   1     -43.349  15.775   9.031  0.00  0.00     0.033 A 
ATOM     15  C5  937 d   1     -42.992  15.185  10.193  0.00  0.00     0.014 A 
ATOM     16  H1  937 d   1     -43.172  16.833   8.873  0.00  0.00     0.117 H 
ATOM     17  C6  937 d   1     -43.249  13.756  10.359  0.00  0.00     0.117 A 
ATOM     18  C8  937 d   1     -42.331  15.977  11.325  0.00  0.00    -0.068 C 
ATOM     19  N3  937 d   1     -43.809  13.116   9.424  0.00  0.00    -0.060 NA
ATOM     20  C10 937 d   1     -42.724  13.081  11.541  0.00  0.00     0.096 A 
ATOM     21  C9  937 d   1     -41.861  13.645  12.355  0.00  0.00     0.031 A 
ATOM     22  N11 937 d   1     -42.914  11.763  11.977  0.00  0.00    -0.264 N 
ATOM     23  C7  937 d   1     -41.405  15.095  12.249  0.00  0.00    -0.067 C 
ATOM     24  C13 937 d   1     -41.488  12.622  13.335  0.00  0.00     0.157 A 
ATOM     25  H2  937 d   1     -40.530  15.483  12.758  0.00  0.00     0.085 H 
ATOM     26  N12 937 d   1     -42.137  11.543  13.076  0.00  0.00    -0.166 NA
ATOM     27  H3  937 d   1     -42.484  17.039  11.476  0.00  0.00     0.085 H 
BRANCH  24  28
ATOM     28  C15 937 d   1     -40.510  12.742  14.454  0.00  0.00     0.270 C 
ATOM     29  O16 937 d   1     -39.982  13.815  14.738  0.00  0.00    -0.266 OA
ATOM     30  N28 937 d   1     -40.171  11.604  15.192  0.00  0.00    -0.365 N 
ATOM     31  H8  937 d   1     -39.516  11.673  15.945  0.00  0.00     0.159 HD
ATOM     32  H9  937 d   1     -40.583  10.721  14.967  0.00  0.00     0.159 HD
ENDBRANCH  24  28
BRANCH  22  33
ATOM     33  C29 937 d   1     -43.759  10.766  11.350  0.00  0.00     0.037 C 
ATOM     34  H10 937 d   1     -43.146  10.142  10.683  0.00  0.00     0.070 H 
ATOM     35  H11 937 d   1     -44.539  11.272  10.763  0.00  0.00     0.070 H 
BRANCH  33  36
ATOM     36  C30 937 d   1     -44.422   9.875  12.402  0.00  0.00     0.033 C 
ATOM     37  H12 937 d   1     -45.450   9.633  12.094  0.00  0.00     0.076 H 
ATOM     38  H13 937 d   1     -44.442  10.392  13.373  0.00  0.00     0.076 H 
BRANCH  36  39
ATOM     39  O31 937 d   1     -43.650   8.677  12.505  0.00  0.00    -0.399 OA
ATOM     40  H14 937 d   1     -44.041   8.104  13.154  0.00  0.00     0.209 HD
ENDBRANCH  36  39
ENDBRANCH  33  36
ENDBRANCH  22  33
ENDBRANCH  10  12
ENDBRANCH   1  10
BRANCH   6  41
ATOM     41  O23 937 d   1     -47.390  12.033   6.438  0.00  0.00    -0.253 OA
BRANCH  41  42
ATOM     42  C24 937 d   1     -47.858  11.964   5.076  0.00  0.00     0.530 C 
ATOM     43  F25 937 d   1     -48.865  11.048   4.992  0.00  0.00    -0.144 F 
ATOM     44  F26 937 d   1     -48.336  13.205   4.673  0.00  0.00    -0.144 F 
ATOM     45  F27 937 d   1     -46.864  11.550   4.200  0.00  0.00    -0.144 F 
ENDBRANCH  41  42
ENDBRANCH   6  41
BRANCH   3  46
ATOM     46  N32 937 d   1     -43.622   8.150   8.249  0.00  0.00    -0.378 N 
ATOM     47  C33 937 d   1     -44.124   6.921   8.920  0.00  0.00     0.018 C 
ATOM     48  C34 937 d   1     -43.078   6.214   9.812  0.00  0.00     0.098 C 
ATOM     49  H15 937 d   1     -44.450   6.213   8.144  0.00  0.00     0.066 H 
ATOM     50  H16 937 d   1     -44.983   7.198   9.549  0.00  0.00     0.066 H 
ATOM     51  N35 937 d   1     -41.716   6.273   9.227  0.00  0.00    -0.072 N 
ATOM     52  H17 937 d   1     -43.368   5.160   9.931  0.00  0.00     0.078 H 
ATOM     53  H18 937 d   1     -43.063   6.704  10.797  0.00  0.00     0.078 H 
ATOM     54  C36 937 d   1     -41.308   7.688   9.088  0.00  0.00     0.098 C 
ATOM     55  H19 937 d   1     -41.711   5.824   8.325  0.00  0.00     0.279 HD
ATOM     56  C37 937 d   1     -42.185   8.370   8.010  0.00  0.00     0.018 C 
ATOM     57  H20 937 d   1     -40.251   7.738   8.787  0.00  0.00     0.078 H 
ATOM     58  H21 937 d   1     -41.440   8.205  10.050  0.00  0.00     0.078 H 
ATOM     59  H22 937 d   1     -41.984   9.451   8.021  0.00  0.00     0.066 H 
ATOM     60  H23 937 d   1     -41.921   7.958   7.025  0.00  0.00     0.066 H 
BRANCH  51  61
ATOM     61  C38 937 d   1     -40.777   5.598  10.127  0.00  0.00     0.066 C 
ATOM     62  H24 937 d   1     -41.070   4.544  10.239  0.00  0.00     0.068 H 
ATOM     63  H25 937 d   1     -40.794   6.090  11.111  0.00  0.00     0.068 H 
ATOM     64  H26 937 d   1     -39.762   5.654   9.707  0.00  0.00     0.068 H 
ENDBRANCH  51  61
ENDBRANCH   3  46
TORSDOF 10
