REMARK  7 active torsions:
REMARK  status: ('A' for Active; 'I' for Inactive)
REMARK    1  A    between atoms: RU_40  and  N_2 
REMARK    2  A    between atoms: CBA_39  and  CAA_13 
REMARK    3  A    between atoms: CBA_39  and  CAB_14 
REMARK    4  A    between atoms: CAP_28  and  OAN_26 
REMARK    5  A    between atoms: OAN_26  and  CBA_39 
REMARK    6  A    between atoms: CAU_33  and  CAX_36 
REMARK    7  A    between atoms: CAZ_38  and  CAY_37 
ROOT
ATOM      1  C   OSV d   1     -11.070 -12.033  20.367  0.00  0.00     0.187 C 
ATOM      2  N   OSV d   1     -10.845 -11.147  19.655  0.00  0.00    -0.134 NA
ATOM      3  S   OSV d   1     -11.461 -13.343  21.451  0.00  0.00    -0.053 SA
ENDROOT
BRANCH   2   4
ATOM      4 RU   OSV d   1     -11.688  -9.871  18.293  0.00  0.00     0.000 Ru
ATOM      5  S16 OSV d   1     -13.392  -9.576  19.248  0.00  0.00    -0.164 SA
ATOM      6  C6  OSV d   1     -14.607  -8.964  18.281  0.00  0.00    -0.015 C 
ATOM      7  C11 OSV d   1     -13.269  -8.537  20.543  0.00  0.00    -0.003 C 
ATOM      8  C7  OSV d   1     -13.912  -8.113  17.215  0.00  0.00    -0.015 C 
ATOM      9  H   OSV d   1     -15.191  -9.765  17.827  0.00  0.00     0.050 H 
ATOM     10  H   OSV d   1     -15.312  -8.369  18.862  0.00  0.00     0.050 H 
ATOM     11  S17 OSV d   1     -12.346  -8.638  16.956  0.00  0.00    -0.168 SA
ATOM     12  H   OSV d   1     -13.882  -7.079  17.558  0.00  0.00     0.050 H 
ATOM     13  H   OSV d   1     -14.468  -8.199  16.282  0.00  0.00     0.050 H 
ATOM     14  C8  OSV d   1     -11.536  -7.184  17.128  0.00  0.00    -0.015 C 
ATOM     15  C9  OSV d   1     -11.228  -6.897  18.633  0.00  0.00    -0.012 C 
ATOM     16  H   OSV d   1     -10.595  -7.238  16.580  0.00  0.00     0.050 H 
ATOM     17  H   OSV d   1     -12.164  -6.383  16.738  0.00  0.00     0.050 H 
ATOM     18  S18 OSV d   1     -10.984  -8.347  19.423  0.00  0.00    -0.144 SA
ATOM     19  H   OSV d   1     -12.067  -6.368  19.086  0.00  0.00     0.050 H 
ATOM     20  H   OSV d   1     -10.334  -6.279  18.714  0.00  0.00     0.050 H 
ATOM     21  C10 OSV d   1     -11.799  -8.188  20.832  0.00  0.00    -0.060 C 
ATOM     22  H   OSV d   1     -11.380  -7.891  21.793  0.00  0.00     0.088 H 
ATOM     23  H   OSV d   1     -13.806  -7.619  20.307  0.00  0.00     0.055 H 
ATOM     24  H   OSV d   1     -13.693  -9.022  21.422  0.00  0.00     0.055 H 
ATOM     25  NAK OSV d   1      -9.876  -9.866  17.122  0.00  0.00    -0.255 N 
ATOM     26  CAH OSV d   1      -8.671  -9.075  17.129  0.00  0.00     0.040 A 
ATOM     27  CAV OSV d   1     -10.043 -10.869  16.135  0.00  0.00     0.097 A 
ATOM     28  CAO OSV d   1      -7.739  -9.283  16.114  0.00  0.00     0.134 A 
ATOM     29  H   OSV d   1      -8.493  -8.334  17.908  0.00  0.00     0.119 H 
ATOM     30  F1  OSV d   1      -6.624  -8.524  16.078  0.00  0.00    -0.205 F 
ATOM     31  CAI OSV d   1      -7.963 -10.272  15.124  0.00  0.00    -0.031 A 
ATOM     32  CAU OSV d   1      -9.109 -11.076  15.141  0.00  0.00     0.015 A 
ATOM     33  H   OSV d   1      -7.227 -10.410  14.332  0.00  0.00     0.089 H 
ATOM     34  CAW OSV d   1     -11.185 -11.642  16.126  0.00  0.00     0.099 A 
ATOM     35  NAM OSV d   1     -12.190 -11.568  16.967  0.00  0.00    -0.245 N 
ATOM     36  CAZ OSV d   1     -11.453 -12.641  15.155  0.00  0.00     0.025 A 
ATOM     37  CAS OSV d   1     -13.077 -12.465  16.680  0.00  0.00     0.069 A 
ATOM     38  CAG OSV d   1     -14.251 -12.699  17.352  0.00  0.00    -0.052 A 
ATOM     39  CAT OSV d   1     -12.676 -13.173  15.531  0.00  0.00     0.009 A 
ATOM     40  CAF OSV d   1     -15.077 -13.696  16.899  0.00  0.00    -0.049 A 
ATOM     41  H   OSV d   1     -14.521 -12.106  18.226  0.00  0.00     0.087 H 
ATOM     42  CAP OSV d   1     -14.707 -14.449  15.807  0.00  0.00     0.070 A 
ATOM     43  H   OSV d   1     -16.024 -13.892  17.402  0.00  0.00     0.087 H 
ATOM     44  CAJ OSV d   1     -13.519 -14.158  15.078  0.00  0.00    -0.038 A 
ATOM     45  H   OSV d   1     -13.281 -14.711  14.170  0.00  0.00     0.089 H 
BRANCH  32  46
ATOM     46  CAX OSV d   1      -9.352 -12.081  14.172  0.00  0.00     0.061 A 
ATOM     47  CAQ OSV d   1      -8.621 -12.506  13.033  0.00  0.00     0.260 A 
ATOM     48  OAC OSV d   1      -7.529 -12.056  12.659  0.00  0.00    -0.267 OA
ATOM     49  NAL OSV d   1      -9.271 -13.470  12.383  0.00  0.00    -0.289 N 
ATOM     50  CAR OSV d   1     -10.422 -13.723  13.039  0.00  0.00     0.260 A 
ATOM     51  H   OSV d   1      -8.953 -13.937  11.534  0.00  0.00     0.172 HD
ATOM     52  OAD OSV d   1     -11.235 -14.583  12.652  0.00  0.00    -0.267 OA
ATOM     53  CAY OSV d   1     -10.518 -12.879  14.176  0.00  0.00     0.062 A 
ENDBRANCH  32  46
BRANCH  42  54
ATOM     54  OAN OSV d   1     -15.634 -15.433  15.459  0.00  0.00    -0.347 OA
BRANCH  54  55
ATOM     55  CBA OSV d   1     -15.427 -16.406  14.363  0.00  0.00     0.038 C 
ATOM     56  H   OSV d   1     -16.258 -16.765  13.755  0.00  0.00     0.082 H 
BRANCH  55  57
ATOM     57  CAA OSV d   1     -14.837 -17.504  15.261  0.00  0.00    -0.052 C 
ATOM     58  H   OSV d   1     -14.648 -18.397  14.665  0.00  0.00     0.030 H 
ATOM     59  H   OSV d   1     -13.902 -17.152  15.696  0.00  0.00     0.030 H 
ATOM     60  H   OSV d   1     -15.544 -17.740  16.057  0.00  0.00     0.030 H 
ENDBRANCH  55  57
BRANCH  55  61
ATOM     61  CAB OSV d   1     -14.683 -15.832  13.132  0.00  0.00    -0.052 C 
ATOM     62  H   OSV d   1     -13.740 -15.390  13.453  0.00  0.00     0.030 H 
ATOM     63  H   OSV d   1     -14.486 -16.635  12.421  0.00  0.00     0.030 H 
ATOM     64  H   OSV d   1     -15.301 -15.069  12.659  0.00  0.00     0.030 H 
ENDBRANCH  55  61
ENDBRANCH  54  55
ENDBRANCH  42  54
ENDBRANCH   2   4
TORSDOF 7
