REMARK  12 active torsions:
REMARK  status: ('A' for Active; 'I' for Inactive)
REMARK       I    between atoms: N_2  and  C_1 
REMARK    1  A    between atoms: C_1  and  CA1_19 
REMARK    2  A    between atoms: C11_15  and  N_2 
REMARK    3  A    between atoms: C11_15  and  C1_4 
REMARK    4  A    between atoms: CA_10  and  CB1_20 
REMARK    5  A    between atoms: CA_10  and  CB2_21 
REMARK    6  A    between atoms: CH2_29  and  CA_10 
REMARK    7  A    between atoms: CG_13  and  CD_12 
REMARK    8  A    between atoms: CB1_20  and  CG_13 
REMARK    9  A    between atoms: CH_14  and  C11_15 
REMARK   10  A    between atoms: CZ1_31  and  CH_14 
REMARK   11  A    between atoms: CA1_19  and  CH2_29 
REMARK   12  A    between atoms: CD2_22  and  CG3_28 
ROOT
ATOM      1  C4  HA0 d   1      31.263  44.933  33.527  0.00  0.00    -0.050 C 
ATOM      2  C5  HA0 d   1      29.703  45.740  35.207  0.00  0.00    -0.050 C 
ATOM      3  CA1 HA0 d   1      29.956  44.495  34.285  0.00  0.00     0.042 C 
ATOM      4  CG1 HA0 d   1      32.011  45.998  34.377  0.00  0.00    -0.064 C 
ATOM      5  CG2 HA0 d   1      31.114  46.229  35.607  0.00  0.00    -0.064 C 
ATOM      6  H2  HA0 d   1      30.996  45.363  32.550  0.00  0.00     0.034 H 
ATOM      7  H3  HA0 d   1      31.913  44.058  33.378  0.00  0.00     0.034 H 
ATOM      8  H4  HA0 d   1      29.126  45.451  36.098  0.00  0.00     0.034 H 
ATOM      9  H5  HA0 d   1      29.162  46.525  34.658  0.00  0.00     0.034 H 
ATOM     10  H22 HA0 d   1      32.133  46.931  33.807  0.00  0.00     0.033 H 
ATOM     11  H23 HA0 d   1      32.999  45.623  34.684  0.00  0.00     0.033 H 
ATOM     12  H24 HA0 d   1      31.488  45.653  36.466  0.00  0.00     0.033 H 
ATOM     13  H25 HA0 d   1      31.088  47.298  35.865  0.00  0.00     0.033 H 
ENDROOT
BRANCH   3  14
ATOM     14  C   HA0 d   1      30.236  43.229  35.123  0.00  0.00     0.227 C 
ATOM     15  N   HA0 d   1      29.232  43.036  36.012  0.00  0.00    -0.345 N 
ATOM     16  H1  HA0 d   1      28.491  43.707  35.976  0.00  0.00     0.163 HD
ATOM     17  O   HA0 d   1      31.255  42.549  34.984  0.00  0.00    -0.273 OA
BRANCH  15  18
ATOM     18  C11 HA0 d   1      29.079  41.990  37.012  0.00  0.00     0.103 C 
ATOM     19  H15 HA0 d   1      28.048  41.991  37.395  0.00  0.00     0.090 H 
BRANCH  18  20
ATOM     20  C1  HA0 d   1      29.308  40.631  36.267  0.00  0.00     0.197 C 
ATOM     21  O1  HA0 d   1      30.567  40.167  36.376  0.00  0.00    -0.646 OA
ATOM     22  OXT HA0 d   1      28.449  40.106  35.584  0.00  0.00    -0.646 OA
ENDBRANCH  18  20
BRANCH  18  23
ATOM     23  CH  HA0 d   1      30.015  42.327  38.199  0.00  0.00     0.025 C 
ATOM     24  H13 HA0 d   1      29.811  43.367  38.494  0.00  0.00     0.049 H 
ATOM     25  H14 HA0 d   1      31.050  42.245  37.835  0.00  0.00     0.049 H 
BRANCH  23  26
ATOM     26  CZ1 HA0 d   1      29.902  41.457  39.468  0.00  0.00     0.148 A 
ATOM     27  N3  HA0 d   1      28.845  40.813  39.991  0.00  0.00    -0.238 NA
ATOM     28  CB  HA0 d   1      29.418  40.180  41.228  0.00  0.00     0.038 A 
ATOM     29  CG3 HA0 d   1      30.749  40.523  41.266  0.00  0.00     0.105 A 
ATOM     30  H7  HA0 d   1      28.883  39.569  41.953  0.00  0.00     0.119 H 
ATOM     31  O6  HA0 d   1      31.028  41.313  40.194  0.00  0.00    -0.294 OA
BRANCH  29  32
ATOM     32  CD2 HA0 d   1      31.829  40.154  42.255  0.00  0.00    -0.001 A 
ATOM     33  C17 HA0 d   1      31.595  39.305  43.396  0.00  0.00    -0.070 A 
ATOM     34  C20 HA0 d   1      32.672  39.000  44.280  0.00  0.00    -0.082 A 
ATOM     35  H16 HA0 d   1      30.606  38.901  43.581  0.00  0.00     0.084 H 
ATOM     36  C21 HA0 d   1      33.987  39.509  44.008  0.00  0.00    -0.083 A 
ATOM     37  H17 HA0 d   1      32.498  38.385  45.156  0.00  0.00     0.083 H 
ATOM     38  CZ3 HA0 d   1      34.249  40.339  42.923  0.00  0.00    -0.082 A 
ATOM     39  H18 HA0 d   1      34.802  39.238  44.670  0.00  0.00     0.083 H 
ATOM     40  CE3 HA0 d   1      33.171  40.655  42.049  0.00  0.00    -0.070 A 
ATOM     41  H28 HA0 d   1      35.244  40.733  42.748  0.00  0.00     0.083 H 
ATOM     42  H21 HA0 d   1      33.363  41.296  41.196  0.00  0.00     0.084 H 
ENDBRANCH  29  32
ENDBRANCH  23  26
ENDBRANCH  18  23
ENDBRANCH  15  18
ENDBRANCH   3  14
BRANCH   3  43
ATOM     43  CH2 HA0 d   1      28.703  44.204  33.401  0.00  0.00    -0.037 C 
ATOM     44  H26 HA0 d   1      27.828  44.215  34.067  0.00  0.00     0.036 H 
ATOM     45  H27 HA0 d   1      28.621  45.026  32.675  0.00  0.00     0.036 H 
BRANCH  43  46
ATOM     46  CA  HA0 d   1      28.648  42.865  32.589  0.00  0.00     0.032 C 
ATOM     47  H6  HA0 d   1      29.098  42.054  33.181  0.00  0.00     0.056 H 
BRANCH  46  48
ATOM     48  CB1 HA0 d   1      27.266  42.458  32.190  0.00  0.00    -0.053 C 
ATOM     49  H19 HA0 d   1      26.881  43.189  31.464  0.00  0.00     0.034 H 
ATOM     50  H20 HA0 d   1      26.628  42.460  33.086  0.00  0.00     0.034 H 
BRANCH  48  51
ATOM     51  CG  HA0 d   1      27.213  41.085  31.564  0.00  0.00    -0.068 C 
ATOM     52  H11 HA0 d   1      27.775  41.117  30.619  0.00  0.00     0.032 H 
ATOM     53  H12 HA0 d   1      27.694  40.375  32.253  0.00  0.00     0.032 H 
BRANCH  51  54
ATOM     54  CD  HA0 d   1      25.805  40.579  31.264  0.00  0.00    -0.076 C 
ATOM     55  H8  HA0 d   1      25.864  39.578  30.812  0.00  0.00     0.027 H 
ATOM     56  H9  HA0 d   1      25.309  41.268  30.565  0.00  0.00     0.027 H 
ATOM     57  H10 HA0 d   1      25.227  40.526  32.199  0.00  0.00     0.027 H 
ENDBRANCH  51  54
ENDBRANCH  48  51
ENDBRANCH  46  48
BRANCH  46  58
ATOM     58  CB2 HA0 d   1      29.471  43.140  31.354  0.00  0.00     0.177 C 
ATOM     59  OG1 HA0 d   1      29.554  44.121  30.623  0.00  0.00    -0.648 OA
ATOM     60  OG2 HA0 d   1      30.224  42.119  31.263  0.00  0.00    -0.648 OA
ENDBRANCH  46  58
ENDBRANCH  43  46
ENDBRANCH   3  43
TORSDOF 12
