REMARK  5 active torsions:
REMARK  status: ('A' for Active; 'I' for Inactive)
REMARK    1  A    between atoms: C1_1  and  C2_3 
REMARK    2  A    between atoms: C2_3  and  C3_5 
REMARK    3  A    between atoms: C2_3  and  O3_6 
REMARK    4  A    between atoms: C3_5  and  C4_7 
REMARK    5  A    between atoms: C4_7  and  C5_9 
ROOT
ATOM      1  C3  2HG d   1     -26.413 -21.437   5.224  0.00  0.00    -0.023 C 
ATOM      2  H2  2HG d   1     -26.386 -20.345   5.354  0.00  0.00     0.038 H 
ATOM      3  H3  2HG d   1     -26.034 -21.924   6.134  0.00  0.00     0.038 H 
ENDROOT
BRANCH   1   4
ATOM      4  C2  2HG d   1     -25.521 -21.822   4.042  0.00  0.00     0.119 C 
ATOM      5  H1  2HG d   1     -25.634 -22.896   3.833  0.00  0.00     0.100 H 
BRANCH   4   6
ATOM      6  C1  2HG d   1     -24.061 -21.521   4.385  0.00  0.00     0.203 C 
ATOM      7  O1  2HG d   1     -23.229 -21.614   3.456  0.00  0.00    -0.646 OA
ATOM      8  O2  2HG d   1     -23.809 -21.204   5.567  0.00  0.00    -0.646 OA
ENDBRANCH   4   6
BRANCH   4   9
ATOM      9  O3  2HG d   1     -25.906 -21.070   2.889  0.00  0.00    -0.385 OA
ATOM     10  H4  2HG d   1     -26.812 -21.259   2.677  0.00  0.00     0.210 HD
ENDBRANCH   4   9
ENDBRANCH   1   4
BRANCH   1  11
ATOM     11  C4  2HG d   1     -27.859 -21.877   4.986  0.00  0.00     0.018 C 
ATOM     12  H5  2HG d   1     -27.884 -22.968   4.844  0.00  0.00     0.049 H 
ATOM     13  H6  2HG d   1     -28.242 -21.380   4.082  0.00  0.00     0.049 H 
BRANCH  11  14
ATOM     14  C5  2HG d   1     -28.748 -21.507   6.175  0.00  0.00     0.172 C 
ATOM     15  O4  2HG d   1     -29.950 -21.264   5.931  0.00  0.00    -0.648 OA
ATOM     16  O5  2HG d   1     -28.205 -21.475   7.300  0.00  0.00    -0.648 OA
ENDBRANCH  11  14
ENDBRANCH   1  11
TORSDOF 5
