REMARK  5 active torsions:
REMARK  status: ('A' for Active; 'I' for Inactive)
REMARK    1  A    between atoms: C1_1  and  C2_3 
REMARK    2  A    between atoms: C2_3  and  C3_5 
REMARK    3  A    between atoms: C2_3  and  O3_6 
REMARK    4  A    between atoms: C3_5  and  C4_7 
REMARK    5  A    between atoms: C4_7  and  C5_9 
ROOT
ATOM      1  C3  2HG d   1      41.845 -55.378  -1.187  0.00  0.00    -0.023 C 
ATOM      2  H   2HG d   1      42.048 -56.385  -1.551  0.00  0.00     0.038 H 
ATOM      3  H   2HG d   1      41.712 -55.405  -0.105  0.00  0.00     0.038 H 
ENDROOT
BRANCH   1   4
ATOM      4  C2  2HG d   1      40.573 -54.843  -1.845  0.00  0.00     0.119 C 
ATOM      5  H   2HG d   1      40.327 -53.861  -1.440  0.00  0.00     0.100 H 
BRANCH   4   6
ATOM      6  C1  2HG d   1      39.400 -55.777  -1.550  0.00  0.00     0.203 C 
ATOM      7  O1  2HG d   1      38.405 -55.699  -2.308  0.00  0.00    -0.646 OA
ATOM      8  O2  2HG d   1      39.517 -56.537  -0.566  0.00  0.00    -0.646 OA
ENDBRANCH   4   6
BRANCH   4   9
ATOM      9  O3  2HG d   1      40.794 -54.720  -3.252  0.00  0.00    -0.385 OA
ATOM     10  H   2HG d   1      41.011 -55.581  -3.617  0.00  0.00     0.210 HD
ENDBRANCH   4   9
ENDBRANCH   1   4
BRANCH   1  11
ATOM     11  C4  2HG d   1      43.019 -54.463  -1.535  0.00  0.00     0.018 C 
ATOM     12  H   2HG d   1      42.789 -53.449  -1.208  0.00  0.00     0.049 H 
ATOM     13  H   2HG d   1      43.180 -54.485  -2.613  0.00  0.00     0.049 H 
BRANCH  11  14
ATOM     14  C5  2HG d   1      44.289 -54.939  -0.830  0.00  0.00     0.172 C 
ATOM     15  O4  2HG d   1      44.221 -55.058   0.413  0.00  0.00    -0.648 OA
ATOM     16  O5  2HG d   1      45.282 -55.177  -1.549  0.00  0.00    -0.648 OA
ENDBRANCH  11  14
ENDBRANCH   1  11
TORSDOF 5
