REMARK  8 active torsions:
REMARK  status: ('A' for Active; 'I' for Inactive)
REMARK    1  A    between atoms: CAK_21  and  N1_1 
REMARK    2  A    between atoms: N3_4  and  CAC_16 
REMARK    3  A    between atoms: N7_9  and  CAA_14 
REMARK    4  A    between atoms: N10_12  and  CA0_13 
REMARK    5  A    between atoms: CA0_13  and  CAL_22 
REMARK    6  A    between atoms: NAX_28  and  CAB_15 
REMARK    7  A    between atoms: NAZ_29  and  CAD_17 
REMARK    8  A    between atoms: CAL_22  and  CAK_21 
ROOT
ATOM      1  CAL DW0 d   1      27.560 -34.052 -42.335  0.00  0.00    -0.034 C 
ATOM      2  H19 DW0 d   1      28.258 -34.059 -41.484  0.00  0.00     0.037 H 
ATOM      3  H20 DW0 d   1      26.608 -34.513 -42.032  0.00  0.00     0.037 H 
ENDROOT
BRANCH   1   4
ATOM      4  CA0 DW0 d   1      28.162 -34.768 -43.554  0.00  0.00     0.009 C 
ATOM      5  H2  DW0 d   1      27.432 -34.729 -44.376  0.00  0.00     0.065 H 
ATOM      6  H3  DW0 d   1      29.078 -34.237 -43.852  0.00  0.00     0.065 H 
BRANCH   4   7
ATOM      7  N10 DW0 d   1      28.505 -36.187 -43.299  0.00  0.00    -0.264 N 
ATOM      8  CAP DW0 d   1      27.433 -37.136 -43.218  0.00  0.00     0.282 A 
ATOM      9  OAF DW0 d   1      26.260 -36.708 -43.369  0.00  0.00    -0.265 OA
ATOM     10  CAV DW0 d   1      27.792 -38.475 -42.973  0.00  0.00     0.151 A 
ATOM     11  CAT DW0 d   1      29.155 -38.826 -42.843  0.00  0.00     0.167 A 
ATOM     12  NAX DW0 d   1      27.123 -39.635 -42.819  0.00  0.00    -0.338 N 
ATOM     13  NAN DW0 d   1      29.247 -40.120 -42.634  0.00  0.00    -0.223 NA
ATOM     14  NAZ DW0 d   1      30.183 -37.907 -42.954  0.00  0.00    -0.286 N 
ATOM     15  CAJ DW0 d   1      27.990 -40.650 -42.622  0.00  0.00     0.068 A 
ATOM     16  H16 DW0 d   1      27.734 -41.699 -42.480  0.00  0.00     0.143 H 
ATOM     17  CAR DW0 d   1      29.858 -36.610 -43.184  0.00  0.00     0.333 A 
ATOM     18  OAH DW0 d   1      30.806 -35.835 -43.234  0.00  0.00    -0.246 OA
BRANCH  14  19
ATOM     19  CAD DW0 d   1      31.640 -38.289 -42.816  0.00  0.00    -0.008 C 
ATOM     20  H13 DW0 d   1      32.267 -37.394 -42.942  0.00  0.00     0.057 H 
ATOM     21  H14 DW0 d   1      31.899 -39.030 -43.586  0.00  0.00     0.057 H 
ATOM     22  H15 DW0 d   1      31.813 -38.720 -41.819  0.00  0.00     0.057 H 
ENDBRANCH  14  19
BRANCH  12  23
ATOM     23  CAB DW0 d   1      25.656 -39.850 -42.890  0.00  0.00    -0.013 C 
ATOM     24  H7  DW0 d   1      25.433 -40.914 -42.720  0.00  0.00     0.057 H 
ATOM     25  H8  DW0 d   1      25.290 -39.553 -43.884  0.00  0.00     0.057 H 
ATOM     26  H9  DW0 d   1      25.159 -39.243 -42.119  0.00  0.00     0.057 H 
ENDBRANCH  12  23
ENDBRANCH   4   7
ENDBRANCH   1   4
BRANCH   1  27
ATOM     27  CAK DW0 d   1      27.346 -32.641 -42.860  0.00  0.00     0.009 C 
ATOM     28  H17 DW0 d   1      28.315 -32.235 -43.185  0.00  0.00     0.065 H 
ATOM     29  H18 DW0 d   1      26.660 -32.685 -43.719  0.00  0.00     0.065 H 
BRANCH  27  30
ATOM     30  N1  DW0 d   1      26.773 -31.740 -41.844  0.00  0.00    -0.264 N 
ATOM     31  C2  DW0 d   1      27.631 -30.810 -41.305  0.00  0.00     0.333 A 
ATOM     32  O2  DW0 d   1      28.855 -30.784 -41.650  0.00  0.00    -0.246 OA
ATOM     33  N3  DW0 d   1      27.088 -29.917 -40.383  0.00  0.00    -0.286 N 
ATOM     34  C4  DW0 d   1      25.688 -30.021 -39.998  0.00  0.00     0.167 A 
ATOM     35  C5  DW0 d   1      24.820 -30.987 -40.576  0.00  0.00     0.151 A 
ATOM     36  N9  DW0 d   1      24.930 -29.299 -39.134  0.00  0.00    -0.223 NA
ATOM     37  C6  DW0 d   1      25.386 -31.843 -41.526  0.00  0.00     0.282 A 
ATOM     38  N7  DW0 d   1      23.588 -30.806 -40.007  0.00  0.00    -0.338 N 
ATOM     39  O6  DW0 d   1      24.713 -32.709 -42.126  0.00  0.00    -0.265 OA
ATOM     40  C8  DW0 d   1      23.674 -29.792 -39.132  0.00  0.00     0.068 A 
ATOM     41  H1  DW0 d   1      22.856 -29.424 -38.515  0.00  0.00     0.143 H 
BRANCH  33  42
ATOM     42  CAC DW0 d   1      28.036 -28.912 -39.787  0.00  0.00    -0.008 C 
ATOM     43  H10 DW0 d   1      29.031 -29.033 -40.240  0.00  0.00     0.057 H 
ATOM     44  H11 DW0 d   1      28.105 -29.072 -38.701  0.00  0.00     0.057 H 
ATOM     45  H12 DW0 d   1      27.665 -27.896 -39.985  0.00  0.00     0.057 H 
ENDBRANCH  33  42
BRANCH  38  46
ATOM     46  CAA DW0 d   1      22.250 -31.537 -40.242  0.00  0.00    -0.013 C 
ATOM     47  H4  DW0 d   1      22.392 -32.330 -40.991  0.00  0.00     0.057 H 
ATOM     48  H5  DW0 d   1      21.499 -30.820 -40.605  0.00  0.00     0.057 H 
ATOM     49  H6  DW0 d   1      21.905 -31.983 -39.297  0.00  0.00     0.057 H 
ENDBRANCH  38  46
ENDBRANCH  27  30
ENDBRANCH   1  27
TORSDOF 8
