REMARK  7 active torsions:
REMARK  status: ('A' for Active; 'I' for Inactive)
REMARK    1  A    between atoms: N1_4  and  CAK_14 
REMARK    2  A    between atoms: N7_5  and  CAA_7 
REMARK    3  A    between atoms: N3_10  and  CAC_11 
REMARK    4  A    between atoms: CAK_14  and  CAL_15 
REMARK    5  A    between atoms: CAL_15  and  CA0_16 
REMARK    6  A    between atoms: CA0_16  and  N10_17 
REMARK    7  A    between atoms: NAZ_26  and  CAD_27 
ROOT
ATOM      1  CAK CX9 d   1      27.951 -34.827 -43.183  0.00  0.00     0.009 C 
ATOM      2  H8  CX9 d   1      27.090 -34.883 -43.865  0.00  0.00     0.065 H 
ATOM      3  H9  CX9 d   1      28.770 -34.279 -43.671  0.00  0.00     0.065 H 
ENDROOT
BRANCH   1   4
ATOM      4  N1  CX9 d   1      28.411 -36.194 -42.910  0.00  0.00    -0.264 N 
ATOM      5  C6  CX9 d   1      27.471 -37.195 -42.766  0.00  0.00     0.282 A 
ATOM      6  O6  CX9 d   1      26.263 -36.963 -42.882  0.00  0.00    -0.265 OA
ATOM      7  C5  CX9 d   1      27.946 -38.469 -42.536  0.00  0.00     0.151 A 
ATOM      8  N7  CX9 d   1      27.327 -39.615 -42.356  0.00  0.00    -0.338 N 
ATOM      9  C4  CX9 d   1      29.297 -38.744 -42.446  0.00  0.00     0.167 A 
ATOM     10  C8  CX9 d   1      28.269 -40.571 -42.194  0.00  0.00     0.068 A 
ATOM     11  N9  CX9 d   1      29.501 -40.008 -42.238  0.00  0.00    -0.223 NA
ATOM     12  H4  CX9 d   1      28.069 -41.632 -42.050  0.00  0.00     0.143 H 
ATOM     13  N3  CX9 d   1      30.221 -37.776 -42.547  0.00  0.00    -0.286 N 
ATOM     14  C2  CX9 d   1      29.751 -36.511 -42.802  0.00  0.00     0.333 A 
ATOM     15  O2  CX9 d   1      30.567 -35.625 -42.873  0.00  0.00    -0.246 OA
BRANCH   8  16
ATOM     16  CAA CX9 d   1      25.854 -39.825 -42.417  0.00  0.00    -0.013 C 
ATOM     17  H1  CX9 d   1      25.627 -40.884 -42.227  0.00  0.00     0.057 H 
ATOM     18  H2  CX9 d   1      25.485 -39.544 -43.414  0.00  0.00     0.057 H 
ATOM     19  H3  CX9 d   1      25.363 -39.202 -41.655  0.00  0.00     0.057 H 
ENDBRANCH   8  16
BRANCH  13  20
ATOM     20  CAC CX9 d   1      31.736 -38.163 -42.440  0.00  0.00    -0.008 C 
ATOM     21  H5  CX9 d   1      31.826 -39.239 -42.230  0.00  0.00     0.057 H 
ATOM     22  H6  CX9 d   1      32.204 -37.590 -41.626  0.00  0.00     0.057 H 
ATOM     23  H7  CX9 d   1      32.242 -37.932 -43.389  0.00  0.00     0.057 H 
ENDBRANCH  13  20
ENDBRANCH   1   4
BRANCH   1  24
ATOM     24  CAL CX9 d   1      27.526 -34.046 -41.938  0.00  0.00    -0.034 C 
ATOM     25  H10 CX9 d   1      28.331 -34.021 -41.188  0.00  0.00     0.037 H 
ATOM     26  H11 CX9 d   1      26.619 -34.475 -41.488  0.00  0.00     0.037 H 
BRANCH  24  27
ATOM     27  CA0 CX9 d   1      27.256 -32.653 -42.510  0.00  0.00     0.009 C 
ATOM     28  H12 CX9 d   1      26.603 -32.742 -43.391  0.00  0.00     0.065 H 
ATOM     29  H13 CX9 d   1      28.209 -32.190 -42.805  0.00  0.00     0.065 H 
BRANCH  27  30
ATOM     30  N10 CX9 d   1      26.597 -31.807 -41.500  0.00  0.00    -0.264 N 
ATOM     31  CAP CX9 d   1      25.254 -31.975 -41.215  0.00  0.00     0.284 A 
ATOM     32  OAF CX9 d   1      24.602 -32.879 -41.832  0.00  0.00    -0.265 OA
ATOM     33  CAV CX9 d   1      24.684 -31.121 -40.281  0.00  0.00     0.170 A 
ATOM     34  NAX CX9 d   1      23.441 -31.051 -39.777  0.00  0.00    -0.234 NA
ATOM     35  CAT CX9 d   1      25.460 -30.181 -39.602  0.00  0.00     0.147 A 
ATOM     36  CAJ CX9 d   1      23.392 -30.095 -38.833  0.00  0.00     0.066 A 
ATOM     37  NAN CX9 d   1      24.638 -29.522 -38.746  0.00  0.00    -0.335 N 
ATOM     38  H14 CX9 d   1      22.519 -29.823 -38.242  0.00  0.00     0.143 H 
ATOM     39  H15 CX9 d   1      24.901 -28.733 -38.139  0.00  0.00     0.168 HD
ATOM     40  NAZ CX9 d   1      26.834 -30.043 -39.922  0.00  0.00    -0.287 N 
ATOM     41  CAR CX9 d   1      27.377 -30.870 -40.847  0.00  0.00     0.332 A 
ATOM     42  OAH CX9 d   1      28.582 -30.758 -41.129  0.00  0.00    -0.246 OA
BRANCH  40  43
ATOM     43  CAD CX9 d   1      27.773 -29.038 -39.286  0.00  0.00    -0.008 C 
ATOM     44  H16 CX9 d   1      28.778 -29.150 -39.719  0.00  0.00     0.057 H 
ATOM     45  H17 CX9 d   1      27.820 -29.215 -38.201  0.00  0.00     0.057 H 
ATOM     46  H18 CX9 d   1      27.403 -28.020 -39.475  0.00  0.00     0.057 H 
ENDBRANCH  40  43
ENDBRANCH  27  30
ENDBRANCH  24  27
ENDBRANCH   1  24
TORSDOF 7
