REMARK  5 active torsions:
REMARK  status: ('A' for Active; 'I' for Inactive)
REMARK    1  A    between atoms: C1_1  and  C2_3 
REMARK    2  A    between atoms: C2_3  and  C3_5 
REMARK    3  A    between atoms: C2_3  and  O3_6 
REMARK    4  A    between atoms: C3_5  and  C4_7 
REMARK    5  A    between atoms: C4_7  and  C5_9 
ROOT
ATOM      1  C3  2HG d   1      20.132  25.333  28.650  0.00  0.00    -0.023 C 
ATOM      2  H2  2HG d   1      20.380  24.695  29.511  0.00  0.00     0.038 H 
ATOM      3  H3  2HG d   1      19.857  24.701  27.793  0.00  0.00     0.038 H 
ENDROOT
BRANCH   1   4
ATOM      4  C2  2HG d   1      21.347  26.191  28.283  0.00  0.00     0.119 C 
ATOM      5  H1  2HG d   1      21.105  26.774  27.382  0.00  0.00     0.100 H 
BRANCH   4   6
ATOM      6  C1  2HG d   1      22.537  25.266  27.969  0.00  0.00     0.203 C 
ATOM      7  O1  2HG d   1      23.672  25.698  28.287  0.00  0.00    -0.646 OA
ATOM      8  O2  2HG d   1      22.288  24.181  27.427  0.00  0.00    -0.646 OA
ENDBRANCH   4   6
BRANCH   4   9
ATOM      9  O3  2HG d   1      21.675  27.099  29.324  0.00  0.00    -0.385 OA
ATOM     10  H4  2HG d   1      22.430  27.615  29.067  0.00  0.00     0.210 HD
ENDBRANCH   4   9
ENDBRANCH   1   4
BRANCH   1  11
ATOM     11  C4  2HG d   1      18.949  26.248  29.014  0.00  0.00     0.018 C 
ATOM     12  H5  2HG d   1      18.955  27.117  28.339  0.00  0.00     0.049 H 
ATOM     13  H6  2HG d   1      19.074  26.589  30.052  0.00  0.00     0.049 H 
BRANCH  11  14
ATOM     14  C5  2HG d   1      17.602  25.545  28.891  0.00  0.00     0.172 C 
ATOM     15  O4  2HG d   1      16.709  25.874  29.699  0.00  0.00    -0.648 OA
ATOM     16  O5  2HG d   1      17.466  24.729  27.947  0.00  0.00    -0.648 OA
ENDBRANCH  11  14
ENDBRANCH   1  11
TORSDOF 5
