REMARK  2 active torsions:
REMARK  status: ('A' for Active; 'I' for Inactive)
REMARK    1  A    between atoms: C4_6  and  C6_12 
REMARK    2  A    between atoms: C6_12  and  C7_13 
ROOT
ATOM      1  C6  MW5 d   1      14.659  55.945 -18.205  0.00  0.00    -0.009 C 
ATOM      2  H3  MW5 d   1      14.092  56.407 -17.383  0.00  0.00     0.047 H 
ATOM      3  H4  MW5 d   1      15.242  55.096 -17.817  0.00  0.00     0.047 H 
ENDROOT
BRANCH   1   4
ATOM      4  C4  MW5 d   1      15.643  56.970 -18.692  0.00  0.00     0.056 A 
ATOM      5  C5  MW5 d   1      16.812  56.668 -19.345  0.00  0.00     0.294 A 
ATOM      6  O   MW5 d   1      17.109  55.469 -19.649  0.00  0.00    -0.265 OA
ATOM      7  N2  MW5 d   1      17.640  57.688 -19.669  0.00  0.00    -0.021 N 
ATOM      8  N3  MW5 d   1      18.797  57.632 -20.324  0.00  0.00    -0.142 NA
ATOM      9  C2  MW5 d   1      17.329  59.017 -19.459  0.00  0.00     0.733 A 
ATOM     10  C1  MW5 d   1      19.201  58.876 -20.361  0.00  0.00     0.126 A 
ATOM     11  N1  MW5 d   1      18.290  59.773 -19.888  0.00  0.00    -0.054 NA
ATOM     12  H1  MW5 d   1      20.180  59.169 -20.737  0.00  0.00     0.150 H 
ATOM     13  N4  MW5 d   1      16.195  59.345 -18.820  0.00  0.00    -0.177 N 
ATOM     14  C3  MW5 d   1      15.403  58.339 -18.458  0.00  0.00     0.131 A 
ATOM     15  H2  MW5 d   1      15.950  60.325 -18.620  0.00  0.00     0.185 HD
ATOM     16 CL   MW5 d   1      13.910  58.794 -17.739  0.00  0.00    -0.063 Cl
ENDBRANCH   1   4
BRANCH   1  17
ATOM     17  C7  MW5 d   1      13.650  55.382 -19.180  0.00  0.00    -0.054 A 
ATOM     18  C12 MW5 d   1      13.938  55.202 -20.539  0.00  0.00    -0.077 A 
ATOM     19  C11 MW5 d   1      13.000  54.666 -21.402  0.00  0.00    -0.082 A 
ATOM     20  H5  MW5 d   1      14.912  55.487 -20.920  0.00  0.00     0.084 H 
ATOM     21  C10 MW5 d   1      11.810  54.203 -20.919  0.00  0.00    -0.083 A 
ATOM     22  H6  MW5 d   1      13.210  54.613 -22.464  0.00  0.00     0.083 H 
ATOM     23  C9  MW5 d   1      11.547  54.363 -19.553  0.00  0.00    -0.082 A 
ATOM     24  H7  MW5 d   1      11.090  53.726 -21.574  0.00  0.00     0.083 H 
ATOM     25  C8  MW5 d   1      12.457  54.954 -18.726  0.00  0.00    -0.077 A 
ATOM     26  H8  MW5 d   1      10.606  54.012 -19.146  0.00  0.00     0.083 H 
ATOM     27  H9  MW5 d   1      12.213  55.082 -17.677  0.00  0.00     0.084 H 
ENDBRANCH   1  17
TORSDOF 2
