REMARK  2 active torsions:
REMARK  status: ('A' for Active; 'I' for Inactive)
REMARK    1  A    between atoms: C8_5  and  C9_14 
REMARK    2  A    between atoms: C9_14  and  C10_15 
ROOT
ATOM      1 CL17 6BC d   1      13.885  58.716 -17.398  0.00  0.00    -0.066 Cl
ATOM      2  C16 6BC d   1      15.374  58.310 -18.218  0.00  0.00     0.118 A 
ATOM      3  N18 6BC d   1      16.130  59.362 -18.503  0.00  0.00    -0.219 NA
ATOM      4  C4  6BC d   1      17.257  59.047 -19.163  0.00  0.00     0.176 A 
ATOM      5  C8  6BC d   1      15.630  56.963 -18.515  0.00  0.00     0.070 A 
ATOM      6  C6  6BC d   1      16.808  56.701 -19.224  0.00  0.00     0.191 A 
ATOM      7  O7  6BC d   1      17.160  55.489 -19.565  0.00  0.00    -0.174 OA
ATOM      8  N5  6BC d   1      17.617  57.794 -19.471  0.00  0.00    -0.192 N 
ATOM      9  N19 6BC d   1      18.816  57.730 -20.179  0.00  0.00    -0.175 NA
ATOM     10  C20 6BC d   1      19.240  59.007 -20.270  0.00  0.00     0.046 A 
ATOM     11  C1  6BC d   1      18.269  59.802 -19.651  0.00  0.00     0.111 A 
ATOM     12  C2  6BC d   1      18.356  61.132 -19.547  0.00  0.00     0.105 C 
ATOM     13  N3  6BC d   1      18.431  62.277 -19.446  0.00  0.00    -0.191 NA
ATOM     14  H1  6BC d   1      16.164  56.835 -17.562  0.00  0.00     0.064 H 
ATOM     15  H2  6BC d   1      20.161  59.353 -20.736  0.00  0.00     0.120 H 
ENDROOT
BRANCH   5  16
ATOM     16  C9  6BC d   1      14.674  55.901 -18.109  0.00  0.00    -0.025 C 
ATOM     17  H3  6BC d   1      14.088  56.302 -17.269  0.00  0.00     0.042 H 
ATOM     18  H4  6BC d   1      15.274  55.046 -17.763  0.00  0.00     0.042 H 
BRANCH  16  19
ATOM     19  C10 6BC d   1      13.689  55.366 -19.114  0.00  0.00    -0.057 A 
ATOM     20  C15 6BC d   1      14.018  55.184 -20.439  0.00  0.00    -0.077 A 
ATOM     21  C14 6BC d   1      13.042  54.652 -21.312  0.00  0.00    -0.082 A 
ATOM     22  H5  6BC d   1      15.005  55.443 -20.805  0.00  0.00     0.084 H 
ATOM     23  C13 6BC d   1      11.774  54.337 -20.863  0.00  0.00    -0.083 A 
ATOM     24  H6  6BC d   1      13.293  54.488 -22.354  0.00  0.00     0.083 H 
ATOM     25  C12 6BC d   1      11.456  54.600 -19.534  0.00  0.00    -0.082 A 
ATOM     26  H7  6BC d   1      11.043  53.895 -21.531  0.00  0.00     0.083 H 
ATOM     27  C11 6BC d   1      12.432  55.074 -18.682  0.00  0.00    -0.077 A 
ATOM     28  H8  6BC d   1      10.448  54.434 -19.171  0.00  0.00     0.083 H 
ATOM     29  H9  6BC d   1      12.190  55.218 -17.635  0.00  0.00     0.084 H 
ENDBRANCH  16  19
ENDBRANCH   5  16
TORSDOF 2
