REMARK  11 active torsions:
REMARK  status: ('A' for Active; 'I' for Inactive)
REMARK    1  A    between atoms: O3B_8  and  PG_1 
REMARK    2  A    between atoms: PB_5  and  O3B_8 
REMARK    3  A    between atoms: O3A_12  and  PB_5 
REMARK    4  A    between atoms: PA_9  and  O3A_12 
REMARK    5  A    between atoms: PA_9  and  O5'_13 
REMARK    6  A    between atoms: O5'_13  and  C5'_14 
REMARK    7  A    between atoms: C5'_14  and  C4'_15 
REMARK    8  A    between atoms: C3'_17  and  O3'_18 
REMARK    9  A    between atoms: C2'_19  and  O2'_20 
REMARK   10  A    between atoms: C1'_21  and  N9_22 
REMARK   11  A    between atoms: C6_26  and  N6_27 
ROOT
ATOM      1  C4' ATP d   1      20.374   1.069  21.183  0.00  0.00     0.089 C 
ATOM      2  O4' ATP d   1      20.773  -0.254  21.507  0.00  0.00    -0.353 OA
ATOM      3  C3' ATP d   1      21.593   1.696  20.549  0.00  0.00     0.091 C 
ATOM      4  C2' ATP d   1      22.543   0.589  20.201  0.00  0.00     0.105 C 
ATOM      5  C1' ATP d   1      22.210  -0.362  21.310  0.00  0.00     0.139 C 
ATOM      6  H   ATP d   1      20.018   1.555  22.091  0.00  0.00     0.090 H 
ATOM      7  H   ATP d   1      21.398   2.287  19.654  0.00  0.00     0.091 H 
ATOM      8  H   ATP d   1      22.444   0.195  19.189  0.00  0.00     0.093 H 
ATOM      9  H   ATP d   1      22.783  -0.147  22.212  0.00  0.00     0.122 H 
ENDROOT
BRANCH   1  10
ATOM     10  C5' ATP d   1      19.201   1.174  20.184  0.00  0.00     0.058 C 
ATOM     11  H   ATP d   1      18.908   2.213  20.038  0.00  0.00     0.079 H 
ATOM     12  H   ATP d   1      19.488   0.788  19.206  0.00  0.00     0.079 H 
BRANCH  10  13
ATOM     13  O5' ATP d   1      18.145   0.429  20.723  0.00  0.00    -0.287 OA
BRANCH  13  14
ATOM     14  PA  ATP d   1      16.699   0.894  20.419  0.00  0.00     0.417 P 
ATOM     15  O1A ATP d   1      16.299   0.997  18.945  0.00  0.00    -0.624 OA
ATOM     16  O2A ATP d   1      15.906   0.052  21.369  0.00  0.00    -0.624 OA
BRANCH  14  17
ATOM     17  O3A ATP d   1      16.772   2.452  20.852  0.00  0.00    -0.180 OA
BRANCH  17  18
ATOM     18  PB  ATP d   1      15.762   3.624  20.470  0.00  0.00     0.428 P 
ATOM     19  O1B ATP d   1      16.171   4.316  19.194  0.00  0.00    -0.624 OA
ATOM     20  O2B ATP d   1      14.321   3.227  20.541  0.00  0.00    -0.624 OA
BRANCH  18  21
ATOM     21  O3B ATP d   1      16.121   4.720  21.629  0.00  0.00    -0.173 OA
BRANCH  21  22
ATOM     22  PG  ATP d   1      15.039   5.606  22.533  0.00  0.00     0.431 P 
ATOM     23  O1G ATP d   1      15.945   5.945  23.707  0.00  0.00    -0.616 OA
ATOM     24  O2G ATP d   1      14.707   6.862  21.786  0.00  0.00    -0.616 OA
ATOM     25  O3G ATP d   1      13.877   4.767  22.881  0.00  0.00    -0.616 OA
ENDBRANCH  21  22
ENDBRANCH  18  21
ENDBRANCH  17  18
ENDBRANCH  14  17
ENDBRANCH  13  14
ENDBRANCH  10  13
ENDBRANCH   1  10
BRANCH   3  26
ATOM     26  O3' ATP d   1      22.125   2.434  21.612  0.00  0.00    -0.390 OA
ATOM     27  H   ATP d   1      22.920   2.885  21.320  0.00  0.00     0.210 HD
ENDBRANCH   3  26
BRANCH   5  28
ATOM     28  N9  ATP d   1      22.467  -1.716  20.839  0.00  0.00    -0.294 N 
ATOM     29  C8  ATP d   1      21.793  -2.259  19.781  0.00  0.00     0.071 A 
ATOM     30  N7  ATP d   1      22.178  -3.538  19.630  0.00  0.00    -0.236 NA
ATOM     31  H   ATP d   1      21.062  -1.740  19.161  0.00  0.00     0.144 H 
ATOM     32  C5  ATP d   1      23.121  -3.814  20.509  0.00  0.00     0.149 A 
ATOM     33  C6  ATP d   1      23.968  -4.986  20.760  0.00  0.00     0.155 A 
ATOM     34  C4  ATP d   1      23.336  -2.602  21.307  0.00  0.00     0.167 A 
ATOM     35  N1  ATP d   1      24.859  -4.900  21.743  0.00  0.00    -0.222 NA
ATOM     36  C2  ATP d   1      24.987  -3.746  22.481  0.00  0.00     0.091 A 
ATOM     37  N3  ATP d   1      24.278  -2.614  22.283  0.00  0.00    -0.222 NA
ATOM     38  H   ATP d   1      25.718  -3.745  23.289  0.00  0.00     0.146 H 
BRANCH  33  39
ATOM     39  N6  ATP d   1      23.849  -6.113  20.054  0.00  0.00    -0.382 N 
ATOM     40  H   ATP d   1      23.152  -6.179  19.312  0.00  0.00     0.157 HD
ATOM     41  H   ATP d   1      24.455  -6.908  20.256  0.00  0.00     0.157 HD
ENDBRANCH  33  39
ENDBRANCH   5  28
BRANCH   4  42
ATOM     42  O2' ATP d   1      23.891   1.002  20.265  0.00  0.00    -0.388 OA
ATOM     43  H   ATP d   1      24.092   1.298  21.156  0.00  0.00     0.210 HD
ENDBRANCH   4  42
TORSDOF 11
