REMARK  4 active torsions:
REMARK  status: ('A' for Active; 'I' for Inactive)
REMARK    1  A    between atoms: C1_2  and  C2_3 
REMARK    2  A    between atoms: C6_8  and  O7_9 
REMARK    3  A    between atoms: C8_10  and  C9_11 
REMARK    4  A    between atoms: C9_11  and  C10_12 
ROOT
ATOM      1 CL   30A d   1      14.215  58.811 -17.775  0.00  0.00    -0.062 Cl
ATOM      2  C1  30A d   1      18.685  59.920 -20.097  0.00  0.00     0.105 A 
ATOM      3  C4  30A d   1      17.643  59.134 -19.624  0.00  0.00     0.171 A 
ATOM      4  N5  30A d   1      17.950  57.884 -19.961  0.00  0.00    -0.214 N 
ATOM      5  C6  30A d   1      17.165  56.837 -19.648  0.00  0.00     0.173 A 
ATOM      6  C8  30A d   1      15.992  57.101 -18.987  0.00  0.00     0.039 A 
ATOM      7  C16 30A d   1      15.708  58.426 -18.642  0.00  0.00     0.139 A 
ATOM      8  N18 30A d   1      16.521  59.461 -18.960  0.00  0.00    -0.215 NA
ATOM      9  N19 30A d   1      19.153  57.788 -20.629  0.00  0.00    -0.300 N 
ATOM     10  C20 30A d   1      19.597  59.069 -20.707  0.00  0.00     0.015 A 
ATOM     11  H9  30A d   1      19.611  56.938 -20.987  0.00  0.00     0.186 HD
ATOM     12  H10 30A d   1      20.528  59.382 -21.177  0.00  0.00     0.115 H 
ENDROOT
BRANCH   6  13
ATOM     13  C9  30A d   1      15.110  55.939 -18.597  0.00  0.00    -0.010 C 
ATOM     14  H2  30A d   1      14.623  56.210 -17.649  0.00  0.00     0.047 H 
ATOM     15  H3  30A d   1      15.771  55.075 -18.436  0.00  0.00     0.047 H 
BRANCH  13  16
ATOM     16  C10 30A d   1      14.017  55.489 -19.541  0.00  0.00    -0.054 A 
ATOM     17  C11 30A d   1      12.756  55.211 -19.003  0.00  0.00    -0.077 A 
ATOM     18  C12 30A d   1      11.735  54.768 -19.820  0.00  0.00    -0.082 A 
ATOM     19  H4  30A d   1      12.580  55.344 -17.942  0.00  0.00     0.084 H 
ATOM     20  C13 30A d   1      11.979  54.590 -21.168  0.00  0.00    -0.083 A 
ATOM     21  H5  30A d   1      10.754  54.562 -19.409  0.00  0.00     0.083 H 
ATOM     22  C14 30A d   1      13.231  54.844 -21.704  0.00  0.00    -0.082 A 
ATOM     23  H6  30A d   1      11.180  54.247 -21.815  0.00  0.00     0.083 H 
ATOM     24  C15 30A d   1      14.257  55.293 -20.889  0.00  0.00    -0.077 A 
ATOM     25  H7  30A d   1      13.408  54.691 -22.762  0.00  0.00     0.083 H 
ATOM     26  H8  30A d   1      15.239  55.489 -21.304  0.00  0.00     0.084 H 
ENDBRANCH  13  16
ENDBRANCH   6  13
BRANCH   5  27
ATOM     27  O7  30A d   1      17.454  55.546 -19.976  0.00  0.00    -0.344 OA
ATOM     28  H1  30A d   1      17.519  55.467 -20.921  0.00  0.00     0.219 HD
ENDBRANCH   5  27
BRANCH   2  29
ATOM     29  C2  30A d   1      18.683  61.411 -19.900  0.00  0.00     0.214 C 
ATOM     30  O3  30A d   1      19.299  62.110 -20.735  0.00  0.00    -0.644 OA
ATOM     31  O4  30A d   1      18.104  61.944 -18.917  0.00  0.00    -0.644 OA
ENDBRANCH   2  29
TORSDOF 4
