REMARK  8 active torsions:
REMARK  status: ('A' for Active; 'I' for Inactive)
REMARK    1  A    between atoms: NAB_2  and  CAJ_4 
REMARK    2  A    between atoms: CAN_12  and  CAP_13 
REMARK       I    between atoms: CAP_13  and  NAC_15 
REMARK    3  A    between atoms: NAC_15  and  CAQ_16 
REMARK    4  A    between atoms: CAT_21  and  CAW_22 
REMARK    5  A    between atoms: CAW_22  and  CAX_23 
REMARK    6  A    between atoms: CAW_22  and  NAD_24 
REMARK    7  A    between atoms: NAD_24  and  NAE_25 
REMARK    8  A    between atoms: NAE_25  and  CAY_26 
ROOT
ATOM      1  CAQ UPX d   1     -47.287 -14.087  -4.875  0.00  0.00     0.035 A 
ATOM      2  CAV UPX d   1     -46.498 -14.309  -3.742  0.00  0.00    -0.056 A 
ATOM      3  CAU UPX d   1     -46.617 -13.538  -2.587  0.00  0.00    -0.069 A 
ATOM      4  CAR UPX d   1     -48.217 -13.067  -4.826  0.00  0.00    -0.056 A 
ATOM      5  CAS UPX d   1     -48.344 -12.281  -3.671  0.00  0.00    -0.069 A 
ATOM      6  CAT UPX d   1     -47.548 -12.493  -2.542  0.00  0.00    -0.010 A 
ATOM      7  H   UPX d   1     -45.763 -15.114  -3.763  0.00  0.00     0.086 H 
ATOM      8  H   UPX d   1     -45.988 -13.748  -1.722  0.00  0.00     0.085 H 
ATOM      9  H   UPX d   1     -48.855 -12.872  -5.688  0.00  0.00     0.086 H 
ATOM     10  H   UPX d   1     -49.085 -11.482  -3.654  0.00  0.00     0.085 H 
ENDROOT
BRANCH   1  11
ATOM     11  NAC UPX d   1     -47.127 -14.910  -5.937  0.00  0.00    -0.322 N 
ATOM     12  CAP UPX d   1     -47.848 -14.914  -7.076  0.00  0.00     0.272 C 
ATOM     13  OBD UPX d   1     -48.742 -14.115  -7.376  0.00  0.00    -0.266 OA
ATOM     14  H   UPX d   1     -46.381 -15.602  -5.868  0.00  0.00     0.169 HD
BRANCH  12  15
ATOM     15  CAN UPX d   1     -47.510 -16.024  -8.087  0.00  0.00     0.102 A 
ATOM     16  CAO UPX d   1     -46.633 -17.035  -7.976  0.00  0.00    -0.040 A 
ATOM     17  CAL UPX d   1     -46.715 -17.739  -9.117  0.00  0.00    -0.005 A 
ATOM     18  H   UPX d   1     -45.982 -17.243  -7.127  0.00  0.00     0.088 H 
ATOM     19  CAM UPX d   1     -46.067 -18.878  -9.599  0.00  0.00    -0.071 A 
ATOM     20  CAK UPX d   1     -47.671 -17.118  -9.916  0.00  0.00     0.076 A 
ATOM     21  CAH UPX d   1     -46.375 -19.370 -10.865  0.00  0.00    -0.080 A 
ATOM     22  H   UPX d   1     -45.321 -19.382  -8.985  0.00  0.00     0.084 H 
ATOM     23  CAI UPX d   1     -47.338 -18.739 -11.661  0.00  0.00    -0.049 A 
ATOM     24  H   UPX d   1     -45.861 -20.255 -11.240  0.00  0.00     0.083 H 
ATOM     25  CAJ UPX d   1     -47.994 -17.606 -11.175  0.00  0.00     0.130 A 
ATOM     26  H   UPX d   1     -47.574 -19.128 -12.651  0.00  0.00     0.087 H 
ATOM     27  NAA UPX d   1     -48.133 -16.076  -9.254  0.00  0.00    -0.349 N 
ATOM     28  H   UPX d   1     -48.845 -15.424  -9.583  0.00  0.00     0.166 HD
BRANCH  25  29
ATOM     29  NAB UPX d   1     -48.916 -16.967 -11.891  0.00  0.00    -0.113 N 
ATOM     30  OBB UPX d   1     -49.568 -15.812 -11.411  0.00  0.00    -0.532 OA
ATOM     31  OBC UPX d   1     -49.238 -17.374 -13.180  0.00  0.00    -0.532 OA
ENDBRANCH  25  29
ENDBRANCH  12  15
ENDBRANCH   1  11
BRANCH   6  32
ATOM     32  CAW UPX d   1     -47.683 -11.699  -1.392  0.00  0.00     0.061 C 
BRANCH  32  33
ATOM     33  CAX UPX d   1     -48.294 -10.288  -1.451  0.00  0.00    -0.033 C 
ATOM     34  H   UPX d   1     -49.201 -10.261  -0.847  0.00  0.00     0.035 H 
ATOM     35  H   UPX d   1     -47.576  -9.566  -1.063  0.00  0.00     0.035 H 
ATOM     36  H   UPX d   1     -48.537 -10.042  -2.485  0.00  0.00     0.035 H 
ENDBRANCH  32  33
BRANCH  32  37
ATOM     37  NAD UPX d   1     -47.310 -12.204  -0.211  0.00  0.00    -0.164 NA
BRANCH  37  38
ATOM     38  NAE UPX d   1     -47.357 -11.586   0.869  0.00  0.00    -0.107 N 
ATOM     39  H   UPX d   1     -47.683 -10.620   0.895  0.00  0.00     0.208 HD
BRANCH  38  40
ATOM     40  CAY UPX d   1     -46.974 -12.205   2.003  0.00  0.00     0.720 A 
ATOM     41  NAF UPX d   1     -47.018 -11.676   3.228  0.00  0.00    -0.074 NA
ATOM     42  CAZ UPX d   1     -46.501 -12.608   4.219  0.00  0.00     0.036 A 
ATOM     43  CBA UPX d   1     -46.155 -13.831   3.402  0.00  0.00     0.012 A 
ATOM     44  H   UPX d   1     -46.390 -12.459   5.293  0.00  0.00     0.117 H 
ATOM     45  NAG UPX d   1     -46.534 -13.456   2.040  0.00  0.00    -0.197 N 
ATOM     46  H   UPX d   1     -45.724 -14.771   3.747  0.00  0.00     0.114 H 
ATOM     47  H   UPX d   1     -46.469 -14.072   1.230  0.00  0.00     0.183 HD
ENDBRANCH  38  40
ENDBRANCH  37  38
ENDBRANCH  32  37
ENDBRANCH   6  32
TORSDOF 8
