REMARK  11 active torsions:
REMARK  status: ('A' for Active; 'I' for Inactive)
REMARK       I    between atoms: CAV_2  and  NAF_3 
REMARK       I    between atoms: CAV_2  and  NAE_19 
REMARK    1  A    between atoms: NAF_3  and  CAW_4 
REMARK    2  A    between atoms: CAZ_9  and  CBC_10 
REMARK    3  A    between atoms: CBC_10  and  CBD_11 
REMARK    4  A    between atoms: NAG_12  and  NAH_13 
REMARK    5  A    between atoms: NAH_13  and  CBE_14 
REMARK    6  A    between atoms: NAE_19  and  CAS_20 
REMARK    7  A    between atoms: CAP_23  and  CAN_26 
REMARK    8  A    between atoms: CAN_26  and  CAO_27 
REMARK    9  A    between atoms: CAN_26  and  NAD_28 
REMARK   10  A    between atoms: NAD_28  and  NAC_29 
REMARK   11  A    between atoms: NAC_29  and  CAM_30 
ROOT
ATOM      1  OBH HCW d   1     -36.535  33.796   7.737  0.00  0.00    -0.247 OA
ATOM      2  CAV HCW d   1     -37.104  32.982   8.437  0.00  0.00     0.325 C 
ATOM      3  NAF HCW d   1     -37.989  32.089   8.003  0.00  0.00    -0.309 N 
ATOM      4  NAE HCW d   1     -36.932  32.867   9.752  0.00  0.00    -0.309 N 
ATOM      5  H   HCW d   1     -38.374  31.491   8.734  0.00  0.00     0.170 HD
ATOM      6  H   HCW d   1     -37.485  32.123  10.177  0.00  0.00     0.170 HD
ENDROOT
BRANCH   3   7
ATOM      7  CAW HCW d   1     -38.469  31.833   6.763  0.00  0.00     0.036 A 
ATOM      8  CBB HCW d   1     -38.081  32.516   5.614  0.00  0.00    -0.056 A 
ATOM      9  CBA HCW d   1     -38.640  32.165   4.396  0.00  0.00    -0.069 A 
ATOM     10  H   HCW d   1     -37.345  33.318   5.672  0.00  0.00     0.086 H 
ATOM     11  CAZ HCW d   1     -39.582  31.145   4.309  0.00  0.00    -0.010 A 
ATOM     12  H   HCW d   1     -38.337  32.696   3.493  0.00  0.00     0.085 H 
ATOM     13  CAY HCW d   1     -39.965  30.462   5.460  0.00  0.00    -0.069 A 
ATOM     14  CAX HCW d   1     -39.411  30.810   6.680  0.00  0.00    -0.056 A 
ATOM     15  H   HCW d   1     -40.698  29.657   5.401  0.00  0.00     0.085 H 
ATOM     16  H   HCW d   1     -39.714  30.279   7.583  0.00  0.00     0.086 H 
BRANCH  11  17
ATOM     17  CBC HCW d   1     -40.187  30.767   2.990  0.00  0.00     0.060 C 
ATOM     18  NAG HCW d   1     -41.076  29.774   2.957  0.00  0.00    -0.180 NA
BRANCH  17  19
ATOM     19  CBD HCW d   1     -39.798  31.460   1.718  0.00  0.00    -0.033 C 
ATOM     20  H   HCW d   1     -39.363  30.735   1.029  0.00  0.00     0.035 H 
ATOM     21  H   HCW d   1     -40.682  31.909   1.265  0.00  0.00     0.035 H 
ATOM     22  H   HCW d   1     -39.067  32.238   1.938  0.00  0.00     0.035 H 
ENDBRANCH  17  19
BRANCH  18  23
ATOM     23  NAH HCW d   1     -41.737  29.358   1.889  0.00  0.00    -0.265 N 
ATOM     24  H   HCW d   1     -41.415  29.603   0.953  0.00  0.00     0.186 HD
BRANCH  23  25
ATOM     25  CBE HCW d   1     -42.939  28.540   2.071  0.00  0.00     0.267 A 
ATOM     26  NAI HCW d   1     -43.532  28.651   3.417  0.00  0.00    -0.251 NA
ATOM     27  CBF HCW d   1     -44.754  28.981   3.388  0.00  0.00     0.005 A 
ATOM     28  CBG HCW d   1     -45.267  29.195   1.986  0.00  0.00     0.116 A 
ATOM     29  H   HCW d   1     -45.369  29.098   4.280  0.00  0.00     0.110 H 
ATOM     30  NAJ HCW d   1     -44.049  28.978   1.236  0.00  0.00    -0.029 N 
ATOM     31  H   HCW d   1     -45.731  30.167   1.820  0.00  0.00     0.084 H 
ATOM     32  H   HCW d   1     -46.092  28.541   1.704  0.00  0.00     0.084 H 
ATOM     33  H   HCW d   1     -44.232  28.245   0.551  0.00  0.00     0.282 HD
ATOM     34  H   HCW d   1     -43.785  29.865   0.807  0.00  0.00     0.282 HD
ATOM     35  H   HCW d   1     -42.571  27.540   1.841  0.00  0.00     0.159 H 
ENDBRANCH  23  25
ENDBRANCH  18  23
ENDBRANCH  11  17
ENDBRANCH   3   7
BRANCH   4  36
ATOM     36  CAS HCW d   1     -36.161  33.552  10.634  0.00  0.00     0.036 A 
ATOM     37  CAR HCW d   1     -35.290  34.598  10.335  0.00  0.00    -0.056 A 
ATOM     38  CAQ HCW d   1     -34.573  35.193  11.362  0.00  0.00    -0.069 A 
ATOM     39  H   HCW d   1     -35.174  34.944   9.308  0.00  0.00     0.086 H 
ATOM     40  CAP HCW d   1     -34.694  34.756  12.686  0.00  0.00    -0.010 A 
ATOM     41  H   HCW d   1     -33.900  36.019  11.133  0.00  0.00     0.085 H 
ATOM     42  CAU HCW d   1     -35.564  33.713  12.962  0.00  0.00    -0.069 A 
ATOM     43  CAT HCW d   1     -36.296  33.126  11.946  0.00  0.00    -0.056 A 
ATOM     44  H   HCW d   1     -35.672  33.353  13.985  0.00  0.00     0.085 H 
ATOM     45  H   HCW d   1     -36.988  32.317  12.180  0.00  0.00     0.086 H 
BRANCH  40  46
ATOM     46  CAN HCW d   1     -33.944  35.347  13.855  0.00  0.00     0.064 C 
BRANCH  46  47
ATOM     47  CAO HCW d   1     -32.951  36.469  13.756  0.00  0.00    -0.033 C 
ATOM     48  H   HCW d   1     -33.291  37.308  14.363  0.00  0.00     0.035 H 
ATOM     49  H   HCW d   1     -31.981  36.127  14.117  0.00  0.00     0.035 H 
ATOM     50  H   HCW d   1     -32.862  36.783  12.716  0.00  0.00     0.035 H 
ENDBRANCH  46  47
BRANCH  46  51
ATOM     51  NAD HCW d   1     -34.202  34.813  15.046  0.00  0.00    -0.138 NA
BRANCH  51  52
ATOM     52  NAC HCW d   1     -33.667  35.120  16.125  0.00  0.00     0.044 NA
BRANCH  52  53
ATOM     53  CAM HCW d   1     -34.202  34.493  17.334  0.00  0.00     0.740 C 
ATOM     54  NAB HCW d   1     -33.535  34.561  18.614  0.00  0.00    -0.216 N 
ATOM     55  CAL HCW d   1     -34.246  33.706  19.544  0.00  0.00     0.040 C 
ATOM     56  H   HCW d   1     -32.706  35.116  18.827  0.00  0.00     0.178 HD
ATOM     57  CAK HCW d   1     -34.901  32.761  18.544  0.00  0.00     0.018 C 
ATOM     58  H   HCW d   1     -34.937  34.224  20.209  0.00  0.00     0.073 H 
ATOM     59  H   HCW d   1     -33.621  33.221  20.294  0.00  0.00     0.073 H 
ATOM     60  NAA HCW d   1     -34.795  33.152  17.330  0.00  0.00    -0.076 NA
ATOM     61  H   HCW d   1     -35.410  31.842  18.834  0.00  0.00     0.111 H 
ENDBRANCH  52  53
ENDBRANCH  51  52
ENDBRANCH  46  51
ENDBRANCH  40  46
ENDBRANCH   4  36
TORSDOF 11
