REMARK  6 active torsions:
REMARK  status: ('A' for Active; 'I' for Inactive)
REMARK    1  A    between atoms: NAB_1  and  CAP_2 
REMARK       I    between atoms: NAB_1  and  CAO_16 
REMARK    2  A    between atoms: CAS_5  and  CAV_8 
REMARK    3  A    between atoms: CAV_8  and  CAW_9 
REMARK    4  A    between atoms: CAV_8  and  NAC_10 
REMARK    5  A    between atoms: NAC_10  and  NAD_11 
REMARK       I    between atoms: NAD_11  and  CAX_12 
REMARK       I    between atoms: CAX_12  and  NAF_13 
REMARK    6  A    between atoms: CAO_16  and  CAN_17 
ROOT
ATOM      1  CAP NXP d   1     -36.190  33.810  10.461  0.00  0.00     0.035 A 
ATOM      2  CAU NXP d   1     -36.029  32.997  11.589  0.00  0.00    -0.056 A 
ATOM      3  CAT NXP d   1     -35.423  33.459  12.759  0.00  0.00    -0.069 A 
ATOM      4  CAS NXP d   1     -34.923  34.760  12.814  0.00  0.00    -0.010 A 
ATOM      5  CAR NXP d   1     -35.095  35.578  11.686  0.00  0.00    -0.069 A 
ATOM      6  CAQ NXP d   1     -35.692  35.117  10.521  0.00  0.00    -0.056 A 
ATOM      7  H   NXP d   1     -36.389  31.969  11.553  0.00  0.00     0.086 H 
ATOM      8  H   NXP d   1     -35.341  32.805  13.627  0.00  0.00     0.085 H 
ATOM      9  H   NXP d   1     -34.748  36.610  11.727  0.00  0.00     0.085 H 
ATOM     10  H   NXP d   1     -35.773  35.772   9.653  0.00  0.00     0.086 H 
ENDROOT
BRANCH   1  11
ATOM     11  NAB NXP d   1     -36.853  33.192   9.358  0.00  0.00    -0.323 N 
ATOM     12  CAO NXP d   1     -37.183  33.509   8.112  0.00  0.00     0.258 C 
ATOM     13  OAY NXP d   1     -36.911  34.582   7.573  0.00  0.00    -0.267 OA
ATOM     14  H   NXP d   1     -37.157  32.247   9.592  0.00  0.00     0.169 HD
BRANCH  12  15
ATOM     15  CAN NXP d   1     -37.907  32.326   7.506  0.00  0.00     0.060 A 
ATOM     16  CAM NXP d   1     -38.030  31.054   8.058  0.00  0.00    -0.006 A 
ATOM     17  NAA NXP d   1     -38.754  30.293   7.197  0.00  0.00    -0.364 N 
ATOM     18  H   NXP d   1     -37.618  30.727   9.013  0.00  0.00     0.112 H 
ATOM     19  CAJ NXP d   1     -39.105  31.025   6.117  0.00  0.00     0.043 A 
ATOM     20  H   NXP d   1     -38.997  29.313   7.344  0.00  0.00     0.165 HD
ATOM     21  CAI NXP d   1     -39.846  30.678   4.986  0.00  0.00    -0.056 A 
ATOM     22  CAK NXP d   1     -38.585  32.314   6.285  0.00  0.00     0.008 A 
ATOM     23  CAH NXP d   1     -40.061  31.636   4.003  0.00  0.00    -0.081 A 
ATOM     24  H   NXP d   1     -40.249  29.672   4.876  0.00  0.00     0.086 H 
ATOM     25  CAG NXP d   1     -39.545  32.920   4.167  0.00  0.00    -0.082 A 
ATOM     26  H   NXP d   1     -40.630  31.384   3.108  0.00  0.00     0.083 H 
ATOM     27  CAL NXP d   1     -38.802  33.270   5.308  0.00  0.00    -0.070 A 
ATOM     28  H   NXP d   1     -39.721  33.669   3.394  0.00  0.00     0.083 H 
ATOM     29  H   NXP d   1     -38.403  34.278   5.421  0.00  0.00     0.084 H 
ENDBRANCH  12  15
ENDBRANCH   1  11
BRANCH   4  30
ATOM     30  CAV NXP d   1     -34.268  35.301  14.069  0.00  0.00     0.061 C 
BRANCH  30  31
ATOM     31  CAW NXP d   1     -33.369  36.522  14.088  0.00  0.00    -0.033 C 
ATOM     32  H   NXP d   1     -33.810  37.286  14.728  0.00  0.00     0.035 H 
ATOM     33  H   NXP d   1     -32.389  36.244  14.474  0.00  0.00     0.035 H 
ATOM     34  H   NXP d   1     -33.265  36.911  13.075  0.00  0.00     0.035 H 
ENDBRANCH  30  31
BRANCH  30  35
ATOM     35  NAC NXP d   1     -34.492  34.709  15.245  0.00  0.00    -0.164 NA
BRANCH  35  36
ATOM     36  NAD NXP d   1     -33.998  35.147  16.321  0.00  0.00    -0.110 N 
ATOM     37  CAX NXP d   1     -34.302  34.503  17.448  0.00  0.00     0.685 C 
ATOM     38  NAF NXP d   1     -35.105  33.464  17.383  0.00  0.00    -0.234 N 
ATOM     39  NAE NXP d   1     -33.821  34.859  18.631  0.00  0.00    -0.234 N 
ATOM     40  H   NXP d   1     -35.482  33.166  16.483  0.00  0.00     0.174 HD
ATOM     41  H   NXP d   1     -35.351  32.956  18.232  0.00  0.00     0.174 HD
ATOM     42  H   NXP d   1     -33.190  35.657  18.706  0.00  0.00     0.174 HD
ATOM     43  H   NXP d   1     -34.082  34.335  19.466  0.00  0.00     0.174 HD
ATOM     44  H   NXP d   1     -33.388  35.965  16.328  0.00  0.00     0.208 HD
ENDBRANCH  35  36
ENDBRANCH  30  35
ENDBRANCH   4  30
TORSDOF 6
