REMARK  5 active torsions:
REMARK  status: ('A' for Active; 'I' for Inactive)
REMARK    1  A    between atoms: C2_9  and  C1_1 
REMARK    2  A    between atoms: C3_2  and  C4_3 
REMARK    3  A    between atoms: C3_2  and  C2_9 
REMARK    4  A    between atoms: C4_3  and  C5_4 
REMARK    5  A    between atoms: C2_9  and  O3_7 
ROOT
ATOM      1  C3  S2G d   1     -18.138  23.286  -8.185  0.00  0.00    -0.023 C 
ATOM      2  H1  S2G d   1     -17.588  23.354  -9.135  0.00  0.00     0.038 H 
ATOM      3  H2  S2G d   1     -19.213  23.421  -8.374  0.00  0.00     0.038 H 
ENDROOT
BRANCH   1   4
ATOM      4  C4  S2G d   1     -17.650  24.387  -7.239  0.00  0.00     0.018 C 
ATOM      5  H3  S2G d   1     -16.564  24.282  -7.103  0.00  0.00     0.049 H 
ATOM      6  H4  S2G d   1     -18.154  24.269  -6.268  0.00  0.00     0.049 H 
BRANCH   4   7
ATOM      7  C5  S2G d   1     -17.946  25.788  -7.782  0.00  0.00     0.172 C 
ATOM      8  O5  S2G d   1     -17.406  26.748  -7.192  0.00  0.00    -0.648 OA
ATOM      9  O4  S2G d   1     -18.710  25.868  -8.767  0.00  0.00    -0.648 OA
ENDBRANCH   4   7
ENDBRANCH   1   4
BRANCH   1  10
ATOM     10  C2  S2G d   1     -17.904  21.909  -7.565  0.00  0.00     0.119 C 
ATOM     11  H6  S2G d   1     -18.430  21.858  -6.600  0.00  0.00     0.100 H 
BRANCH  10  12
ATOM     12  C1  S2G d   1     -18.445  20.816  -8.490  0.00  0.00     0.203 C 
ATOM     13  O2  S2G d   1     -17.741  19.797  -8.647  0.00  0.00    -0.646 OA
ATOM     14  O1  S2G d   1     -19.557  21.028  -9.018  0.00  0.00    -0.646 OA
ENDBRANCH  10  12
BRANCH  10  15
ATOM     15  O3  S2G d   1     -16.505  21.693  -7.348  0.00  0.00    -0.385 OA
ATOM     16  H5  S2G d   1     -16.374  20.834  -6.963  0.00  0.00     0.210 HD
ENDBRANCH  10  15
ENDBRANCH   1  10
TORSDOF 5
