REMARK  6 active torsions:
REMARK  status: ('A' for Active; 'I' for Inactive)
REMARK    1  A    between atoms: C5_11  and  O1_4 
REMARK    2  A    between atoms: C7_13  and  C1_7 
REMARK    3  A    between atoms: C8_14  and  C7_13 
REMARK    4  A    between atoms: C8_14  and  C9_15 
REMARK    5  A    between atoms: C8_14  and  C10_16 
REMARK    6  A    between atoms: C10_16  and  C11_17 
ROOT
ATOM      1  C7  IO3 d   1       5.566 -10.575   6.073  0.00  0.00    -0.026 C 
ATOM      2  H   IO3 d   1       6.185 -11.420   5.770  0.00  0.00     0.041 H 
ATOM      3  H   IO3 d   1       6.005  -9.580   6.146  0.00  0.00     0.041 H 
ENDROOT
BRANCH   1   4
ATOM      4  C1  IO3 d   1       5.142 -10.902   7.470  0.00  0.00    -0.021 A 
ATOM      5  C2  IO3 d   1       5.749 -11.952   8.153  0.00  0.00     0.015 A 
ATOM      6  I1  IO3 d   1       7.256 -13.142   7.294  0.00  0.00    -0.044 I 
ATOM      7  C3  IO3 d   1       5.391 -12.265   9.443  0.00  0.00    -0.048 A 
ATOM      8  C4  IO3 d   1       4.418 -11.524  10.061  0.00  0.00     0.042 A 
ATOM      9  H   IO3 d   1       5.874 -13.090   9.966  0.00  0.00     0.087 H 
ATOM     10  I2  IO3 d   1       3.902 -12.025  12.025  0.00  0.00    -0.042 I 
ATOM     11  C5  IO3 d   1       3.800 -10.478   9.415  0.00  0.00     0.099 A 
ATOM     12  C6  IO3 d   1       4.163 -10.165   8.125  0.00  0.00     0.048 A 
ATOM     13  I3  IO3 d   1       3.148  -8.559   7.234  0.00  0.00    -0.041 I 
BRANCH  11  14
ATOM     14  O1  IO3 d   1       2.826  -9.747  10.054  0.00  0.00    -0.358 OA
ATOM     15  H   IO3 d   1       2.101 -10.327  10.299  0.00  0.00     0.217 HD
ENDBRANCH  11  14
ENDBRANCH   1   4
BRANCH   1  16
ATOM     16  C8  IO3 d   1       4.543 -10.455   4.996  0.00  0.00     0.034 C 
ATOM     17  H   IO3 d   1       3.756  -9.773   5.320  0.00  0.00     0.057 H 
BRANCH  16  18
ATOM     18  C9  IO3 d   1       5.194  -9.920   3.762  0.00  0.00     0.177 C 
ATOM     19  O2  IO3 d   1       4.685  -8.921   3.184  0.00  0.00    -0.648 OA
ATOM     20  O3  IO3 d   1       6.248 -10.452   3.301  0.00  0.00    -0.648 OA
ENDBRANCH  16  18
BRANCH  16  21
ATOM     21  C10 IO3 d   1       3.924 -11.782   4.716  0.00  0.00    -0.056 C 
ATOM     22  H   IO3 d   1       3.134 -11.576   3.994  0.00  0.00     0.033 H 
ATOM     23  H   IO3 d   1       3.656 -12.178   5.695  0.00  0.00     0.033 H 
BRANCH  21  24
ATOM     24  C11 IO3 d   1       4.753 -12.849   4.084  0.00  0.00    -0.076 C 
ATOM     25  H   IO3 d   1       5.110 -12.503   3.114  0.00  0.00     0.027 H 
ATOM     26  H   IO3 d   1       5.604 -13.074   4.726  0.00  0.00     0.027 H 
ATOM     27  H   IO3 d   1       4.149 -13.746   3.952  0.00  0.00     0.027 H 
ENDBRANCH  21  24
ENDBRANCH  16  21
ENDBRANCH   1  16
TORSDOF 6
