REMARK  9 active torsions:
REMARK  status: ('A' for Active; 'I' for Inactive)
REMARK    1  A    between atoms: C02_2  and  N06_6 
REMARK    2  A    between atoms: C03_3  and  C10_10 
REMARK    3  A    between atoms: C19_17  and  C05_5 
REMARK       I    between atoms: N06_6  and  C07_7 
REMARK       I    between atoms: C07_7  and  N08_8 
REMARK       I    between atoms: C10_10  and  N12_12 
REMARK    4  A    between atoms: N15_14  and  C14_13 
REMARK    5  A    between atoms: C16_15  and  N15_14 
REMARK    6  A    between atoms: N15_14  and  C2_21 
REMARK    7  A    between atoms: C17_16  and  C16_15 
REMARK    8  A    between atoms: O1_24  and  C17_16 
REMARK    9  A    between atoms: C22_20  and  O1_24 
ROOT
ATOM      1  C19 YDI d   1       0.187  -4.328  19.961  0.00  0.00    -0.019 A 
ATOM      2  C20 YDI d   1      -0.248  -3.288  20.762  0.00  0.00    -0.069 A 
ATOM      3  C21 YDI d   1      -1.570  -3.193  21.162  0.00  0.00    -0.050 A 
ATOM      4  C22 YDI d   1      -2.460  -4.166  20.744  0.00  0.00     0.068 A 
ATOM      5  C23 YDI d   1      -2.038  -5.208  19.946  0.00  0.00    -0.050 A 
ATOM      6  C24 YDI d   1      -0.722  -5.282  19.553  0.00  0.00    -0.069 A 
ATOM      7  H15 YDI d   1       0.460  -2.532  21.083  0.00  0.00     0.085 H 
ATOM      8  H16 YDI d   1      -1.901  -2.373  21.790  0.00  0.00     0.087 H 
ATOM      9  H20 YDI d   1      -2.743  -5.968  19.629  0.00  0.00     0.087 H 
ATOM     10  H21 YDI d   1      -0.396  -6.097  18.917  0.00  0.00     0.085 H 
ENDROOT
BRANCH   1  11
ATOM     11  C05 YDI d   1       1.562  -4.423  19.505  0.00  0.00     0.018 A 
ATOM     12  S01 YDI d   1       2.704  -3.227  19.948  0.00  0.00    -0.071 SA
ATOM     13  C02 YDI d   1       3.991  -3.974  19.066  0.00  0.00     0.094 A 
ATOM     14  C03 YDI d   1       3.557  -5.127  18.434  0.00  0.00     0.067 A 
ATOM     15  C04 YDI d   1       2.178  -5.359  18.691  0.00  0.00    -0.048 A 
ATOM     16  H1  YDI d   1       1.644  -6.213  18.277  0.00  0.00     0.087 H 
BRANCH  13  17
ATOM     17  N06 YDI d   1       5.289  -3.465  19.010  0.00  0.00    -0.302 N 
ATOM     18  C07 YDI d   1       5.610  -2.228  19.525  0.00  0.00     0.318 C 
ATOM     19  N08 YDI d   1       6.854  -1.792  19.161  0.00  0.00    -0.352 N 
ATOM     20  O09 YDI d   1       4.858  -1.575  20.245  0.00  0.00    -0.247 OA
ATOM     21  H3  YDI d   1       7.186  -0.905  19.481  0.00  0.00     0.160 HD
ATOM     22  H4  YDI d   1       7.431  -2.360  18.575  0.00  0.00     0.160 HD
ATOM     23  H2  YDI d   1       6.008  -4.014  18.583  0.00  0.00     0.171 HD
ENDBRANCH  13  17
BRANCH  14  24
ATOM     24  C10 YDI d   1       4.451  -5.924  17.623  0.00  0.00     0.252 C 
ATOM     25  O11 YDI d   1       5.637  -5.648  17.490  0.00  0.00    -0.268 OA
ATOM     26  N12 YDI d   1       3.828  -6.981  16.992  0.00  0.00    -0.366 N 
ATOM     27  H5  YDI d   1       4.356  -7.596  16.406  0.00  0.00     0.159 HD
ATOM     28  H6  YDI d   1       2.848  -7.133  17.120  0.00  0.00     0.159 HD
ENDBRANCH  14  24
ENDBRANCH   1  11
BRANCH   4  29
ATOM     29  O1  YDI d   1      -3.804  -4.180  21.082  0.00  0.00    -0.350 OA
BRANCH  29  30
ATOM     30  C17 YDI d   1      -4.097  -3.041  21.877  0.00  0.00     0.049 C 
ATOM     31  H13 YDI d   1      -3.709  -3.188  22.896  0.00  0.00     0.077 H 
ATOM     32  H14 YDI d   1      -3.633  -2.148  21.433  0.00  0.00     0.077 H 
BRANCH  30  33
ATOM     33  C16 YDI d   1      -5.599  -2.870  21.920  0.00  0.00     0.102 C 
ATOM     34  H11 YDI d   1      -6.060  -3.713  22.456  0.00  0.00     0.079 H 
ATOM     35  H12 YDI d   1      -5.858  -1.928  22.426  0.00  0.00     0.079 H 
BRANCH  33  36
ATOM     36  N15 YDI d   1      -6.070  -2.840  20.513  0.00  0.00    -0.077 N 
ATOM     37  H10 YDI d   1      -5.342  -3.259  19.956  0.00  0.00     0.279 HD
BRANCH  36  38
ATOM     38  C14 YDI d   1      -7.282  -3.661  20.314  0.00  0.00     0.066 C 
ATOM     39  H7  YDI d   1      -7.592  -3.608  19.260  0.00  0.00     0.068 H 
ATOM     40  H8  YDI d   1      -8.092  -3.281  20.954  0.00  0.00     0.068 H 
ATOM     41  H9  YDI d   1      -7.065  -4.706  20.580  0.00  0.00     0.068 H 
ENDBRANCH  36  38
BRANCH  36  42
ATOM     42  C2  YDI d   1      -6.248  -1.457  20.008  0.00  0.00     0.066 C 
ATOM     43  H17 YDI d   1      -6.597  -1.490  18.965  0.00  0.00     0.068 H 
ATOM     44  H18 YDI d   1      -5.288  -0.922  20.057  0.00  0.00     0.068 H 
ATOM     45  H19 YDI d   1      -6.991  -0.933  20.627  0.00  0.00     0.068 H 
ENDBRANCH  36  42
ENDBRANCH  33  36
ENDBRANCH  30  33
ENDBRANCH  29  30
ENDBRANCH   4  29
TORSDOF 9
