REMARK  4 active torsions:
REMARK  status: ('A' for Active; 'I' for Inactive)
REMARK    1  A    between atoms: C3_3  and  C7_8 
REMARK    2  A    between atoms: C9_10  and  N3_22 
REMARK    3  A    between atoms: C10_11  and  C11_13 
REMARK       I    between atoms: C11_13  and  N1_15 
REMARK    4  A    between atoms: N1_15  and  C12_16 
REMARK       I    between atoms: N3_22  and  C17_23 
REMARK       I    between atoms: C17_23  and  N4_25 
ROOT
ATOM      1  C7  YDJ d   1       5.973  -2.544  45.273  0.00  0.00     0.018 A 
ATOM      2  C8  YDJ d   1       5.424  -1.707  44.322  0.00  0.00    -0.038 A 
ATOM      3  C9  YDJ d   1       4.124  -2.085  43.901  0.00  0.00     0.060 A 
ATOM      4  C10 YDJ d   1       3.665  -3.228  44.521  0.00  0.00     0.100 A 
ATOM      5  S1  YDJ d   1       4.854  -3.803  45.621  0.00  0.00    -0.082 SA
ATOM      6  H5  YDJ d   1       5.944  -0.834  43.930  0.00  0.00     0.089 H 
ENDROOT
BRANCH   4   7
ATOM      7  C11 YDJ d   1       2.383  -3.849  44.287  0.00  0.00     0.261 C 
ATOM      8  O1  YDJ d   1       1.559  -3.344  43.524  0.00  0.00    -0.267 OA
ATOM      9  N1  YDJ d   1       2.111  -5.030  44.949  0.00  0.00    -0.350 N 
ATOM     10  H6  YDJ d   1       2.826  -5.573  45.389  0.00  0.00     0.163 HD
BRANCH   9  11
ATOM     11  C12 YDJ d   1       0.714  -5.428  44.962  0.00  0.00     0.035 C 
ATOM     12  C13 YDJ d   1       0.565  -6.922  44.711  0.00  0.00    -0.043 C 
ATOM     13  C14 YDJ d   1      -0.849  -7.423  44.975  0.00  0.00    -0.041 C 
ATOM     14  H8  YDJ d   1       1.259  -7.461  45.373  0.00  0.00     0.036 H 
ATOM     15  H9  YDJ d   1       0.822  -7.130  43.662  0.00  0.00     0.036 H 
ATOM     16  C15 YDJ d   1      -1.252  -7.116  46.403  0.00  0.00     0.082 C 
ATOM     17  H10 YDJ d   1      -0.886  -8.510  44.812  0.00  0.00     0.035 H 
ATOM     18  H11 YDJ d   1      -1.546  -6.925  44.285  0.00  0.00     0.035 H 
ATOM     19  N2  YDJ d   1      -1.231  -5.622  46.471  0.00  0.00    -0.073 N 
ATOM     20  H12 YDJ d   1      -0.534  -7.550  47.114  0.00  0.00     0.075 H 
ATOM     21  H13 YDJ d   1      -2.259  -7.503  46.617  0.00  0.00     0.075 H 
ATOM     22  C16 YDJ d   1       0.107  -4.985  46.282  0.00  0.00     0.100 C 
ATOM     23  H14 YDJ d   1      -1.580  -5.348  47.376  0.00  0.00     0.277 HD
ATOM     24  H15 YDJ d   1      -1.846  -5.270  45.754  0.00  0.00     0.277 HD
ATOM     25  H16 YDJ d   1      -0.008  -3.891  46.281  0.00  0.00     0.078 H 
ATOM     26  H17 YDJ d   1       0.771  -5.283  47.106  0.00  0.00     0.078 H 
ATOM     27  H7  YDJ d   1       0.192  -4.901  44.150  0.00  0.00     0.075 H 
ENDBRANCH   9  11
ENDBRANCH   4   7
BRANCH   3  28
ATOM     28  N3  YDJ d   1       3.335  -1.436  42.957  0.00  0.00    -0.308 N 
ATOM     29  C17 YDJ d   1       3.589  -0.159  42.523  0.00  0.00     0.318 C 
ATOM     30  O2  YDJ d   1       4.634   0.454  42.708  0.00  0.00    -0.247 OA
ATOM     31  N4  YDJ d   1       2.505   0.342  41.832  0.00  0.00    -0.352 N 
ATOM     32  H19 YDJ d   1       2.538   1.266  41.452  0.00  0.00     0.160 HD
ATOM     33  H20 YDJ d   1       1.686  -0.219  41.712  0.00  0.00     0.160 HD
ATOM     34  H18 YDJ d   1       2.547  -1.922  42.578  0.00  0.00     0.170 HD
ENDBRANCH   3  28
BRANCH   1  35
ATOM     35  C3  YDJ d   1       7.263  -2.477  45.942  0.00  0.00    -0.016 A 
ATOM     36  C2  YDJ d   1       7.969  -1.294  46.007  0.00  0.00    -0.072 A 
ATOM     37  C1  YDJ d   1       9.218  -1.233  46.609  0.00  0.00    -0.079 A 
ATOM     38  H2  YDJ d   1       7.540  -0.395  45.580  0.00  0.00     0.084 H 
ATOM     39  C6  YDJ d   1       9.774  -2.371  47.151  0.00  0.00    -0.046 A 
ATOM     40  H1  YDJ d   1       9.755  -0.292  46.653  0.00  0.00     0.083 H 
ATOM     41  C5  YDJ d   1       9.058  -3.551  47.090  0.00  0.00     0.117 A 
ATOM     42  H4  YDJ d   1      10.753  -2.341  47.616  0.00  0.00     0.088 H 
ATOM     43  C4  YDJ d   1       7.815  -3.610  46.501  0.00  0.00    -0.035 A 
ATOM     44  F1  YDJ d   1       9.557  -4.680  47.623  0.00  0.00    -0.206 F 
ATOM     45  H3  YDJ d   1       7.271  -4.547  46.477  0.00  0.00     0.089 H 
ENDBRANCH   1  35
TORSDOF 4
