REMARK  4 active torsions:
REMARK  status: ('A' for Active; 'I' for Inactive)
REMARK    1  A    between atoms: C02_2  and  N06_6 
REMARK    2  A    between atoms: C03_3  and  C10_10 
REMARK    3  A    between atoms: C05_5  and  C19_19 
REMARK       I    between atoms: N06_6  and  C07_7 
REMARK       I    between atoms: C07_7  and  N08_8 
REMARK       I    between atoms: C10_10  and  N12_12 
REMARK    4  A    between atoms: N12_12  and  C13_13 
ROOT
ATOM      1  S01 YDK d   1       1.259  71.941  10.000  0.00  0.00    -0.071 SA
ATOM      2  C02 YDK d   1       2.736  72.825   9.766  0.00  0.00     0.094 A 
ATOM      3  C03 YDK d   1       2.935  73.813  10.718  0.00  0.00     0.067 A 
ATOM      4  C04 YDK d   1       1.845  73.832  11.634  0.00  0.00    -0.048 A 
ATOM      5  C05 YDK d   1       0.861  72.896  11.385  0.00  0.00     0.018 A 
ATOM      6  H   YDK d   1       1.792  74.532  12.468  0.00  0.00     0.087 H 
ENDROOT
BRANCH   3   7
ATOM      7  C10 YDK d   1       4.122  74.662  10.722  0.00  0.00     0.254 C 
ATOM      8  O11 YDK d   1       5.004  74.543   9.899  0.00  0.00    -0.268 OA
ATOM      9  N12 YDK d   1       4.228  75.583  11.729  0.00  0.00    -0.351 N 
ATOM     10  H   YDK d   1       3.398  75.874  12.246  0.00  0.00     0.163 HD
BRANCH   9  11
ATOM     11  C13 YDK d   1       5.524  76.143  12.057  0.00  0.00     0.035 C 
ATOM     12  C14 YDK d   1       6.217  75.234  13.039  0.00  0.00     0.100 C 
ATOM     13  N15 YDK d   1       7.524  75.819  13.451  0.00  0.00    -0.073 N 
ATOM     14  H   YDK d   1       6.393  74.267  12.567  0.00  0.00     0.078 H 
ATOM     15  H   YDK d   1       5.587  75.115  13.920  0.00  0.00     0.078 H 
ATOM     16  C16 YDK d   1       7.404  77.160  14.099  0.00  0.00     0.082 C 
ATOM     17  H   YDK d   1       8.085  75.937  12.607  0.00  0.00     0.277 HD
ATOM     18  H   YDK d   1       7.940  75.186  14.134  0.00  0.00     0.277 HD
ATOM     19  C17 YDK d   1       6.758  78.083  13.080  0.00  0.00    -0.041 C 
ATOM     20  H   YDK d   1       8.383  77.536  14.397  0.00  0.00     0.075 H 
ATOM     21  H   YDK d   1       6.801  77.100  15.005  0.00  0.00     0.075 H 
ATOM     22  C18 YDK d   1       5.404  77.562  12.619  0.00  0.00    -0.043 C 
ATOM     23  H   YDK d   1       7.414  78.145  12.211  0.00  0.00     0.035 H 
ATOM     24  H   YDK d   1       6.608  79.056  13.547  0.00  0.00     0.035 H 
ATOM     25  H   YDK d   1       4.727  77.543  13.473  0.00  0.00     0.036 H 
ATOM     26  H   YDK d   1       5.026  78.218  11.835  0.00  0.00     0.036 H 
ATOM     27  H   YDK d   1       6.115  76.215  11.144  0.00  0.00     0.075 H 
ENDBRANCH   9  11
ENDBRANCH   3   7
BRANCH   2  28
ATOM     28  N06 YDK d   1       3.599  72.515   8.714  0.00  0.00    -0.302 N 
ATOM     29  C07 YDK d   1       3.374  71.433   7.907  0.00  0.00     0.318 C 
ATOM     30  N08 YDK d   1       4.436  71.059   7.128  0.00  0.00    -0.352 N 
ATOM     31  O09 YDK d   1       2.318  70.844   7.868  0.00  0.00    -0.247 OA
ATOM     32  H   YDK d   1       4.349  70.265   6.494  0.00  0.00     0.160 HD
ATOM     33  H   YDK d   1       5.315  71.574   7.182  0.00  0.00     0.160 HD
ATOM     34  H   YDK d   1       4.413  73.106   8.543  0.00  0.00     0.171 HD
ENDBRANCH   2  28
BRANCH   5  35
ATOM     35  C19 YDK d   1      -0.374  72.628  12.114  0.00  0.00    -0.019 A 
ATOM     36  C20 YDK d   1      -0.810  73.435  13.144  0.00  0.00    -0.072 A 
ATOM     37  C21 YDK d   1      -1.988  73.163  13.824  0.00  0.00    -0.082 A 
ATOM     38  H   YDK d   1      -0.217  74.304  13.429  0.00  0.00     0.084 H 
ATOM     39  C22 YDK d   1      -2.724  72.057  13.454  0.00  0.00    -0.083 A 
ATOM     40  H   YDK d   1      -2.325  73.810  14.634  0.00  0.00     0.083 H 
ATOM     41  C23 YDK d   1      -2.300  71.237  12.427  0.00  0.00    -0.082 A 
ATOM     42  H   YDK d   1      -3.651  71.827  13.979  0.00  0.00     0.083 H 
ATOM     43  C24 YDK d   1      -1.129  71.528  11.766  0.00  0.00    -0.072 A 
ATOM     44  H   YDK d   1      -2.889  70.365  12.142  0.00  0.00     0.083 H 
ATOM     45  H   YDK d   1      -0.793  70.880  10.956  0.00  0.00     0.084 H 
ENDBRANCH   5  35
TORSDOF 4
