REMARK  3 active torsions:
REMARK  status: ('A' for Active; 'I' for Inactive)
REMARK    1  A    between atoms: C4_1  and  C2_3 
REMARK       I    between atoms: C4_1  and  N_7 
REMARK    2  A    between atoms: C2_3  and  C1_5 
REMARK    3  A    between atoms: C8_8  and  C9_9 
ROOT
ATOM      1  C4  SLC d   1      12.962  -8.317 -21.714  0.00  0.00     0.249 C 
ATOM      2  O1  SLC d   1      11.862  -8.653 -21.329  0.00  0.00    -0.268 OA
ATOM      3  N   SLC d   1      13.250  -8.113 -23.017  0.00  0.00    -0.334 N 
ATOM      4  C8  SLC d   1      12.326  -8.258 -23.957  0.00  0.00     0.099 C 
ATOM      5  C7  SLC d   1      12.512  -7.156 -24.939  0.00  0.00    -0.035 C 
ATOM      6  C6  SLC d   1      14.034  -7.049 -24.908  0.00  0.00    -0.048 C 
ATOM      7  C5  SLC d   1      14.517  -7.682 -23.597  0.00  0.00    -0.001 C 
ATOM      8  H   SLC d   1      11.322  -8.588 -23.691  0.00  0.00     0.089 H 
ATOM      9  H   SLC d   1      11.985  -6.234 -24.695  0.00  0.00     0.036 H 
ATOM     10  H   SLC d   1      12.088  -7.347 -25.925  0.00  0.00     0.036 H 
ATOM     11  H   SLC d   1      14.343  -6.005 -24.962  0.00  0.00     0.035 H 
ATOM     12  H   SLC d   1      14.469  -7.567 -25.763  0.00  0.00     0.035 H 
ATOM     13  H   SLC d   1      15.238  -8.488 -23.734  0.00  0.00     0.064 H 
ATOM     14  H   SLC d   1      15.086  -7.004 -22.962  0.00  0.00     0.064 H 
ENDROOT
BRANCH   1  15
ATOM     15  C2  SLC d   1      13.979  -8.197 -20.668  0.00  0.00     0.001 C 
ATOM     16  C3  SLC d   1      15.260  -8.229 -20.945  0.00  0.00    -0.110 C 
ATOM     17  H   SLC d   1      15.993  -8.187 -20.139  0.00  0.00     0.067 H 
ATOM     18  H   SLC d   1      15.592  -8.297 -21.981  0.00  0.00     0.067 H 
BRANCH  15  19
ATOM     19  C1  SLC d   1      13.561  -8.102 -19.220  0.00  0.00    -0.033 C 
ATOM     20 SE   SLC d   1      13.788  -6.238 -18.661  0.00  0.00     0.000 Se
ATOM     21  H   SLC d   1      14.172  -8.761 -18.603  0.00  0.00     0.040 H 
ATOM     22  H   SLC d   1      12.522  -8.411 -19.102  0.00  0.00     0.040 H 
ENDBRANCH  15  19
ENDBRANCH   1  15
BRANCH   4  23
ATOM     23  C9  SLC d   1      11.496  -9.314 -24.097  0.00  0.00     0.197 C 
ATOM     24  O3  SLC d   1      10.674  -9.395 -25.033  0.00  0.00    -0.646 OA
ATOM     25  O2  SLC d   1      11.489 -10.219 -23.248  0.00  0.00    -0.646 OA
ENDBRANCH   4  23
TORSDOF 3
