REMARK  6 active torsions:
REMARK  status: ('A' for Active; 'I' for Inactive)
REMARK       I    between atoms: C5'_1  and  N5'_3 
REMARK    1  A    between atoms: C5'_1  and  C4'_6 
REMARK    2  A    between atoms: N5'_3  and  C51_4 
REMARK    3  A    between atoms: C51_4  and  C52_5 
REMARK    4  A    between atoms: C3'_8  and  O3'_9 
REMARK    5  A    between atoms: C2'_10  and  O2'_11 
REMARK    6  A    between atoms: C1'_12  and  N9_13 
ROOT
ATOM      1  C4' NEC d   1      32.061  11.115 -15.564  0.00  0.00     0.144 C 
ATOM      2  O4' NEC d   1      33.121  10.200 -15.872  0.00  0.00    -0.346 OA
ATOM      3  C3' NEC d   1      30.879  10.717 -16.447  0.00  0.00     0.098 C 
ATOM      4  C2' NEC d   1      31.525   9.970 -17.596  0.00  0.00     0.105 C 
ATOM      5  C1' NEC d   1      32.787   9.371 -16.991  0.00  0.00     0.140 C 
ATOM      6  H   NEC d   1      32.326  12.153 -15.763  0.00  0.00     0.102 H 
ATOM      7  H   NEC d   1      30.148  10.120 -15.902  0.00  0.00     0.091 H 
ATOM      8  H   NEC d   1      30.857   9.225 -18.027  0.00  0.00     0.093 H 
ATOM      9  H   NEC d   1      33.635   9.337 -17.675  0.00  0.00     0.123 H 
ENDROOT
BRANCH   5  10
ATOM     10  N9  NEC d   1      32.470   7.967 -16.592  0.00  0.00    -0.294 N 
ATOM     11  C8  NEC d   1      32.034   7.542 -15.384  0.00  0.00     0.071 A 
ATOM     12  N7  NEC d   1      31.824   6.198 -15.384  0.00  0.00    -0.236 NA
ATOM     13  H   NEC d   1      31.872   8.191 -14.524  0.00  0.00     0.144 H 
ATOM     14  C5  NEC d   1      32.112   5.740 -16.610  0.00  0.00     0.149 A 
ATOM     15  C6  NEC d   1      32.115   4.423 -17.289  0.00  0.00     0.155 A 
ATOM     16  C4  NEC d   1      32.537   6.907 -17.403  0.00  0.00     0.167 A 
ATOM     17  N6  NEC d   1      31.753   3.289 -16.642  0.00  0.00    -0.382 N 
ATOM     18  N1  NEC d   1      32.501   4.389 -18.588  0.00  0.00    -0.222 NA
ATOM     19  H   NEC d   1      31.469   3.329 -15.663  0.00  0.00     0.157 HD
ATOM     20  H   NEC d   1      31.764   2.396 -17.134  0.00  0.00     0.157 HD
ATOM     21  C2  NEC d   1      32.873   5.499 -19.251  0.00  0.00     0.091 A 
ATOM     22  N3  NEC d   1      32.902   6.723 -18.691  0.00  0.00    -0.222 NA
ATOM     23  H   NEC d   1      33.166   5.402 -20.296  0.00  0.00     0.146 H 
ENDBRANCH   5  10
BRANCH   4  24
ATOM     24  O2' NEC d   1      31.889  10.877 -18.646  0.00  0.00    -0.388 OA
ATOM     25  H   NEC d   1      32.296  10.387 -19.364  0.00  0.00     0.210 HD
ENDBRANCH   4  24
BRANCH   1  26
ATOM     26  C5' NEC d   1      31.745  11.029 -14.096  0.00  0.00     0.249 C 
ATOM     27  O5' NEC d   1      31.202  10.037 -13.637  0.00  0.00    -0.271 OA
ATOM     28  N5' NEC d   1      32.108  12.077 -13.353  0.00  0.00    -0.359 N 
ATOM     29  H   NEC d   1      32.757  12.756 -13.752  0.00  0.00     0.162 HD
BRANCH  28  30
ATOM     30  C51 NEC d   1      31.620  12.294 -12.002  0.00  0.00    -0.008 C 
ATOM     31  H   NEC d   1      31.670  11.345 -11.469  0.00  0.00     0.063 H 
ATOM     32  H   NEC d   1      30.603  12.681 -12.069  0.00  0.00     0.063 H 
BRANCH  30  33
ATOM     33  C52 NEC d   1      32.457  13.305 -11.239  0.00  0.00    -0.061 C 
ATOM     34  H   NEC d   1      33.485  12.948 -11.173  0.00  0.00     0.029 H 
ATOM     35  H   NEC d   1      32.436  14.261 -11.762  0.00  0.00     0.029 H 
ATOM     36  H   NEC d   1      32.049  13.430 -10.236  0.00  0.00     0.029 H 
ENDBRANCH  30  33
ENDBRANCH  28  30
ENDBRANCH   1  26
BRANCH   3  37
ATOM     37  O3' NEC d   1      30.138  11.850 -16.917  0.00  0.00    -0.390 OA
ATOM     38  H   NEC d   1      29.409  11.549 -17.465  0.00  0.00     0.210 HD
ENDBRANCH   3  37
TORSDOF 6
