REMARK  6 active torsions:
REMARK  status: ('A' for Active; 'I' for Inactive)
REMARK    1  A    between atoms: C1_5  and  S1_6 
REMARK    2  A    between atoms: S1_6  and  N_9 
REMARK    3  A    between atoms: N_9  and  C9_10 
REMARK    4  A    between atoms: C5_14  and  O3_15 
REMARK    5  A    between atoms: C2_16  and  C3_17 
REMARK    6  A    between atoms: C7_26  and  O4_27 
ROOT
ATOM      1  C9  2D4 d   1      32.044   7.115  25.991  0.00  0.00     0.043 A 
ATOM      2  C6  2D4 d   1      32.079   8.187  25.107  0.00  0.00    -0.043 A 
ATOM      3  C16 2D4 d   1      31.632   7.310  27.304  0.00  0.00    -0.054 A 
ATOM      4  C15 2D4 d   1      31.254   8.577  27.733  0.00  0.00    -0.048 A 
ATOM      5  C5  2D4 d   1      31.288   9.649  26.848  0.00  0.00     0.077 A 
ATOM      6  C2  2D4 d   1      31.701   9.454  25.536  0.00  0.00     0.013 A 
ATOM      7  H5  2D4 d   1      32.401   8.035  24.083  0.00  0.00     0.088 H 
ATOM      8  H6  2D4 d   1      31.605   6.474  27.994  0.00  0.00     0.087 H 
ATOM      9  H7  2D4 d   1      30.933   8.729  28.757  0.00  0.00     0.087 H 
ENDROOT
BRANCH   6  10
ATOM     10  C3  2D4 d   1      31.735  10.526  24.651  0.00  0.00     0.021 A 
ATOM     11  C4  2D4 d   1      32.955  11.006  24.188  0.00  0.00    -0.012 A 
ATOM     12  C17 2D4 d   1      34.140  10.414  24.609  0.00  0.00    -0.071 A 
ATOM     13  C12 2D4 d   1      32.989  12.078  23.304  0.00  0.00    -0.025 A 
ATOM     14  C19 2D4 d   1      35.359  10.893  24.145  0.00  0.00    -0.082 A 
ATOM     15  H9  2D4 d   1      34.113   9.579  25.299  0.00  0.00     0.084 H 
ATOM     16  C20 2D4 d   1      35.394  11.965  23.261  0.00  0.00    -0.082 A 
ATOM     17  H10 2D4 d   1      36.283  10.431  24.473  0.00  0.00     0.083 H 
ATOM     18  C18 2D4 d   1      34.209  12.558  22.841  0.00  0.00    -0.072 A 
ATOM     19  H11 2D4 d   1      36.345  12.338  22.899  0.00  0.00     0.083 H 
ATOM     20  H12 2D4 d   1      34.236  13.395  22.152  0.00  0.00     0.084 H 
ATOM     21  C14 2D4 d   1      31.804  12.670  22.883  0.00  0.00    -0.070 A 
ATOM     22  C13 2D4 d   1      30.585  12.190  23.346  0.00  0.00    -0.049 A 
ATOM     23  H13 2D4 d   1      31.831  13.506  22.194  0.00  0.00     0.085 H 
ATOM     24  C7  2D4 d   1      30.550  11.118  24.231  0.00  0.00     0.077 A 
ATOM     25  H14 2D4 d   1      29.661  12.651  23.017  0.00  0.00     0.087 H 
BRANCH  24  26
ATOM     26  O4  2D4 d   1      29.357  10.649  24.684  0.00  0.00    -0.360 OA
ATOM     27  H15 2D4 d   1      28.899  11.343  25.145  0.00  0.00     0.217 HD
ENDBRANCH  24  26
ENDBRANCH   6  10
BRANCH   5  28
ATOM     28  O3  2D4 d   1      30.918  10.889  27.268  0.00  0.00    -0.360 OA
ATOM     29  H8  2D4 d   1      30.017  10.865  27.567  0.00  0.00     0.217 HD
ENDBRANCH   5  28
BRANCH   1  30
ATOM     30  N   2D4 d   1      32.406   5.903  25.580  0.00  0.00    -0.280 N 
ATOM     31  H4  2D4 d   1      31.711   5.246  25.288  0.00  0.00     0.179 HD
BRANCH  30  32
ATOM     32  S1  2D4 d   1      33.982   5.488  25.553  0.00  0.00     0.269 S 
ATOM     33  O2  2D4 d   1      34.160   3.996  25.462  0.00  0.00    -0.200 OA
ATOM     34  O1  2D4 d   1      34.716   6.023  26.754  0.00  0.00    -0.200 OA
BRANCH  32  35
ATOM     35  C1  2D4 d   1      34.606   6.248  24.092  0.00  0.00     0.120 A 
ATOM     36  C8  2D4 d   1      35.457   7.277  24.051  0.00  0.00    -0.053 A 
ATOM     37  C11 2D4 d   1      35.780   7.671  22.799  0.00  0.00    -0.075 A 
ATOM     38  H1  2D4 d   1      35.854   7.755  24.945  0.00  0.00     0.086 H 
ATOM     39  C10 2D4 d   1      35.206   6.981  21.799  0.00  0.00    -0.044 A 
ATOM     40  H2  2D4 d   1      36.464   8.498  22.612  0.00  0.00     0.084 H 
ATOM     41  S2  2D4 d   1      34.234   5.803  22.523  0.00  0.00    -0.088 SA
ATOM     42  H3  2D4 d   1      35.341   7.148  20.731  0.00  0.00     0.095 H 
ENDBRANCH  32  35
ENDBRANCH  30  32
ENDBRANCH   1  30
TORSDOF 6
