REMARK  6 active torsions:
REMARK  status: ('A' for Active; 'I' for Inactive)
REMARK    1  A    between atoms: C13_21  and  C14_15 
REMARK    2  A    between atoms: C6_25  and  C7_17 
REMARK    3  A    between atoms: C2_20  and  C1_24 
REMARK       I    between atoms: C5_22  and  N3_30 
REMARK    4  A    between atoms: O2_32  and  C5_22 
REMARK    5  A    between atoms: N3_30  and  C4_23 
REMARK    6  A    between atoms: C6_25  and  O2_32 
ROOT
ATOM      1  C22 WSH d   1      -6.517  -3.952 -16.067  0.00  0.00    -0.082 A 
ATOM      2  C23 WSH d   1      -5.559  -3.015 -16.368  0.00  0.00    -0.081 A 
ATOM      3  C21 WSH d   1      -6.657  -5.080 -16.843  0.00  0.00    -0.069 A 
ATOM      4  C24 WSH d   1      -4.741  -3.179 -17.459  0.00  0.00    -0.056 A 
ATOM      5  C20 WSH d   1      -5.829  -5.270 -17.947  0.00  0.00     0.021 A 
ATOM      6  C25 WSH d   1      -4.864  -4.304 -18.264  0.00  0.00     0.055 A 
ATOM      7  C3  WSH d   1      -3.328  -5.555 -19.775  0.00  0.00     0.179 A 
ATOM      8  C2  WSH d   1      -3.537  -3.430 -20.261  0.00  0.00     0.131 A 
ATOM      9  C13 WSH d   1      -6.002  -6.506 -18.761  0.00  0.00     0.076 C 
ATOM     10  C4  WSH d   1      -3.665  -6.833 -19.035  0.00  0.00     0.161 C 
ATOM     11  N2  WSH d   1      -2.481  -5.273 -20.737  0.00  0.00    -0.130 NA
ATOM     12  N1  WSH d   1      -2.611  -3.929 -21.041  0.00  0.00    -0.135 NA
ATOM     13  N4  WSH d   1      -5.061  -7.211 -19.266  0.00  0.00    -0.254 NA
ATOM     14  N5  WSH d   1      -4.024  -4.405 -19.425  0.00  0.00    -0.280 N 
ATOM     15  H5  WSH d   1      -7.167  -3.802 -15.213  0.00  0.00     0.083 H 
ATOM     16  H8  WSH d   1      -5.448  -2.139 -15.739  0.00  0.00     0.083 H 
ATOM     17  H11 WSH d   1      -7.410  -5.819 -16.596  0.00  0.00     0.085 H 
ATOM     18  H14 WSH d   1      -3.996  -2.427 -17.693  0.00  0.00     0.087 H 
ATOM     19  H15 WSH d   1      -3.470  -6.722 -17.958  0.00  0.00     0.122 H 
ENDROOT
BRANCH  10  20
ATOM     20  N3  WSH d   1      -2.835  -7.867 -19.618  0.00  0.00    -0.307 N 
ATOM     21  C5  WSH d   1      -2.701  -9.082 -19.049  0.00  0.00     0.362 C 
ATOM     22  O1  WSH d   1      -2.018  -9.984 -19.517  0.00  0.00    -0.238 OA
ATOM     23  H21 WSH d   1      -2.346  -7.674 -20.469  0.00  0.00     0.167 HD
BRANCH  21  24
ATOM     24  O2  WSH d   1      -3.398  -9.189 -17.905  0.00  0.00    -0.299 OA
BRANCH  24  25
ATOM     25  C6  WSH d   1      -3.429 -10.511 -17.297  0.00  0.00     0.054 C 
ATOM     26  H19 WSH d   1      -3.304 -11.278 -18.076  0.00  0.00     0.082 H 
ATOM     27  H20 WSH d   1      -2.614 -10.598 -16.563  0.00  0.00     0.082 H 
BRANCH  25  28
ATOM     28  C7  WSH d   1      -4.744 -10.703 -16.611  0.00  0.00    -0.034 A 
ATOM     29  C12 WSH d   1      -4.929 -10.291 -15.309  0.00  0.00    -0.075 A 
ATOM     30  C11 WSH d   1      -6.138 -10.470 -14.680  0.00  0.00    -0.082 A 
ATOM     31  H12 WSH d   1      -4.112  -9.820 -14.775  0.00  0.00     0.084 H 
ATOM     32  C10 WSH d   1      -7.179 -11.061 -15.358  0.00  0.00    -0.083 A 
ATOM     33  H6  WSH d   1      -6.271 -10.147 -13.654  0.00  0.00     0.083 H 
ATOM     34  C9  WSH d   1      -7.011 -11.476 -16.658  0.00  0.00    -0.082 A 
ATOM     35  H2  WSH d   1      -8.135 -11.200 -14.866  0.00  0.00     0.083 H 
ATOM     36  C8  WSH d   1      -5.795 -11.297 -17.274  0.00  0.00    -0.075 A 
ATOM     37  H7  WSH d   1      -7.831 -11.941 -17.193  0.00  0.00     0.083 H 
ATOM     38  H13 WSH d   1      -5.661 -11.629 -18.297  0.00  0.00     0.084 H 
ENDBRANCH  25  28
ENDBRANCH  24  25
ENDBRANCH  21  24
ENDBRANCH  10  20
BRANCH   9  39
ATOM     39  C14 WSH d   1      -7.388  -6.993 -19.011  0.00  0.00    -0.007 A 
ATOM     40  C19 WSH d   1      -7.625  -8.353 -18.988  0.00  0.00    -0.071 A 
ATOM     41  C18 WSH d   1      -8.887  -8.853 -19.226  0.00  0.00    -0.082 A 
ATOM     42  H9  WSH d   1      -6.809  -9.036 -18.780  0.00  0.00     0.084 H 
ATOM     43  C17 WSH d   1      -9.917  -7.980 -19.489  0.00  0.00    -0.083 A 
ATOM     44  H3  WSH d   1      -9.066  -9.922 -19.206  0.00  0.00     0.083 H 
ATOM     45  C16 WSH d   1      -9.685  -6.620 -19.514  0.00  0.00    -0.082 A 
ATOM     46  H1  WSH d   1     -10.914  -8.362 -19.677  0.00  0.00     0.083 H 
ATOM     47  C15 WSH d   1      -8.423  -6.125 -19.278  0.00  0.00    -0.071 A 
ATOM     48  H4  WSH d   1     -10.502  -5.938 -19.721  0.00  0.00     0.083 H 
ATOM     49  H10 WSH d   1      -8.244  -5.056 -19.302  0.00  0.00     0.084 H 
ENDBRANCH   9  39
BRANCH   8  50
ATOM     50  C1  WSH d   1      -4.002  -2.027 -20.247  0.00  0.00    -0.019 C 
ATOM     51  H16 WSH d   1      -3.456  -1.452 -21.010  0.00  0.00     0.037 H 
ATOM     52  H17 WSH d   1      -3.816  -1.589 -19.255  0.00  0.00     0.037 H 
ATOM     53  H18 WSH d   1      -5.080  -1.996 -20.466  0.00  0.00     0.037 H 
ENDBRANCH   8  50
TORSDOF 6
