REMARK  3 active torsions:
REMARK  status: ('A' for Active; 'I' for Inactive)
REMARK    1  A    between atoms: C6_7  and  C3_10 
REMARK    2  A    between atoms: C10_12  and  C20_15 
REMARK    3  A    between atoms: C20_15  and  O21_21 
ROOT
ATOM      1  C7  TQ1 d   1       1.259  37.484  12.564  0.00  0.00    -0.070 A 
ATOM      2  C8  TQ1 d   1       2.426  38.055  12.281  0.00  0.00    -0.069 A 
ATOM      3  C19 TQ1 d   1       1.287  36.071  10.595  0.00  0.00    -0.043 A 
ATOM      4  C6  TQ1 d   1       0.671  36.482  11.716  0.00  0.00    -0.007 A 
ATOM      5  C9  TQ1 d   1       3.153  37.692  11.109  0.00  0.00    -0.000 A 
ATOM      6  C18 TQ1 d   1       2.587  36.663  10.217  0.00  0.00     0.057 A 
ATOM      7  C11 TQ1 d   1       5.032  37.785   9.566  0.00  0.00    -0.027 A 
ATOM      8  C10 TQ1 d   1       4.339  38.211  10.747  0.00  0.00    -0.019 A 
ATOM      9  C12 TQ1 d   1       4.459  36.846   8.822  0.00  0.00     0.159 A 
ATOM     10  C15 TQ1 d   1       2.943  35.269   8.092  0.00  0.00     0.349 A 
ATOM     11  N13 TQ1 d   1       4.932  36.336   7.764  0.00  0.00    -0.152 NA
ATOM     12  N14 TQ1 d   1       4.047  35.403   7.300  0.00  0.00    -0.226 N 
ATOM     13  N17 TQ1 d   1       3.240  36.315   9.164  0.00  0.00    -0.244 N 
ATOM     14  O16 TQ1 d   1       1.954  34.559   8.099  0.00  0.00    -0.245 OA
ATOM     15  H   TQ1 d   1       0.731  37.785  13.469  0.00  0.00     0.084 H 
ATOM     16  H   TQ1 d   1       2.832  38.810  12.954  0.00  0.00     0.085 H 
ATOM     17  H   TQ1 d   1       0.830  35.305   9.968  0.00  0.00     0.088 H 
ATOM     18  H   TQ1 d   1       5.994  38.216   9.289  0.00  0.00     0.090 H 
ATOM     19  H   TQ1 d   1       4.196  34.862   6.448  0.00  0.00     0.194 HD
ENDROOT
BRANCH   4  20
ATOM     20  C3  TQ1 d   1      -0.556  35.843  11.987  0.00  0.00     0.042 A 
ATOM     21  C2  TQ1 d   1      -1.359  36.304  12.998  0.00  0.00    -0.055 A 
ATOM     22  C1  TQ1 d   1      -2.476  35.523  13.093  0.00  0.00    -0.066 A 
ATOM     23  H   TQ1 d   1      -1.139  37.164  13.631  0.00  0.00     0.087 H 
ATOM     24  C5  TQ1 d   1      -2.399  34.543  12.134  0.00  0.00    -0.022 A 
ATOM     25  H   TQ1 d   1      -3.289  35.655  13.807  0.00  0.00     0.085 H 
ATOM     26  N4  TQ1 d   1      -1.186  34.748  11.439  0.00  0.00    -0.365 N 
ATOM     27  H   TQ1 d   1      -3.132  33.759  11.945  0.00  0.00     0.111 H 
ATOM     28  H   TQ1 d   1      -0.837  34.183  10.665  0.00  0.00     0.165 HD
ENDBRANCH   4  20
BRANCH   8  29
ATOM     29  C20 TQ1 d   1       5.032  39.228  11.575  0.00  0.00     0.041 C 
ATOM     30  H   TQ1 d   1       4.349  40.026  11.867  0.00  0.00     0.081 H 
ATOM     31  H   TQ1 d   1       5.839  39.702  11.017  0.00  0.00     0.081 H 
BRANCH  29  32
ATOM     32  O21 TQ1 d   1       5.534  38.543  12.716  0.00  0.00    -0.396 OA
ATOM     33  H   TQ1 d   1       6.143  37.856  12.434  0.00  0.00     0.209 HD
ENDBRANCH  29  32
ENDBRANCH   8  29
TORSDOF 3
