REMARK  2 active torsions:
REMARK  status: ('A' for Active; 'I' for Inactive)
REMARK    1  A    between atoms: C6_7  and  C3_10 
REMARK    2  A    between atoms: C10_12  and  C20_15 
ROOT
ATOM      1  C7  YEX d   1       1.257  38.305  12.527  0.00  0.00    -0.070 A 
ATOM      2  C8  YEX d   1       2.423  38.914  12.112  0.00  0.00    -0.069 A 
ATOM      3  C19 YEX d   1       1.408  36.787  10.724  0.00  0.00    -0.043 A 
ATOM      4  C6  YEX d   1       0.732  37.226  11.846  0.00  0.00    -0.007 A 
ATOM      5  C9  YEX d   1       3.108  38.476  10.986  0.00  0.00    -0.003 A 
ATOM      6  C18 YEX d   1       2.576  37.397  10.289  0.00  0.00     0.057 A 
ATOM      7  C11 YEX d   1       4.948  38.615   9.471  0.00  0.00    -0.032 A 
ATOM      8  C10 YEX d   1       4.291  39.103  10.576  0.00  0.00    -0.046 A 
ATOM      9  C12 YEX d   1       4.394  37.522   8.833  0.00  0.00     0.131 A 
ATOM     10  C15 YEX d   1       2.961  35.873   8.344  0.00  0.00     0.347 A 
ATOM     11  N13 YEX d   1       4.933  36.900   7.766  0.00  0.00    -0.281 N 
ATOM     12  N14 YEX d   1       4.012  35.838   7.485  0.00  0.00    -0.249 N 
ATOM     13  N17 YEX d   1       3.237  36.952   9.206  0.00  0.00    -0.246 N 
ATOM     14  O16 YEX d   1       1.988  35.133   8.390  0.00  0.00    -0.245 OA
ATOM     15  H   YEX d   1       0.741  38.683  13.409  0.00  0.00     0.084 H 
ATOM     16  H   YEX d   1       2.815  39.757  12.680  0.00  0.00     0.085 H 
ATOM     17  H   YEX d   1       1.013  35.938  10.165  0.00  0.00     0.088 H 
ATOM     18  H   YEX d   1       5.870  39.073   9.112  0.00  0.00     0.090 H 
ATOM     19  H   YEX d   1       5.796  37.131   7.273  0.00  0.00     0.188 HD
ATOM     20  H   YEX d   1       4.130  35.150   6.741  0.00  0.00     0.192 HD
ENDROOT
BRANCH   4  21
ATOM     21  C3  YEX d   1      -0.516  36.590  12.280  0.00  0.00     0.042 A 
ATOM     22  C2  YEX d   1      -1.416  36.989  13.243  0.00  0.00    -0.055 A 
ATOM     23  C1  YEX d   1      -2.490  36.068  13.250  0.00  0.00    -0.066 A 
ATOM     24  H   YEX d   1      -1.318  37.862  13.888  0.00  0.00     0.087 H 
ATOM     25  C5  YEX d   1      -2.228  35.124  12.300  0.00  0.00    -0.022 A 
ATOM     26  H   YEX d   1      -3.367  36.106  13.896  0.00  0.00     0.085 H 
ATOM     27  N4  YEX d   1      -1.036  35.450  11.724  0.00  0.00    -0.365 N 
ATOM     28  H   YEX d   1      -2.855  34.269  12.049  0.00  0.00     0.111 H 
ATOM     29  H   YEX d   1      -0.590  34.916  10.978  0.00  0.00     0.165 HD
ENDBRANCH   4  21
BRANCH   8  30
ATOM     30  C20 YEX d   1       4.879  40.292  11.263  0.00  0.00    -0.050 C 
ATOM     31  H   YEX d   1       5.884  40.050  11.610  0.00  0.00     0.033 H 
ATOM     32  H   YEX d   1       4.926  41.127  10.564  0.00  0.00     0.033 H 
ATOM     33  H   YEX d   1       4.255  40.563  12.114  0.00  0.00     0.033 H 
ENDBRANCH   8  30
TORSDOF 2
