REMARK  6 active torsions:
REMARK  status: ('A' for Active; 'I' for Inactive)
REMARK    1  A    between atoms: CAC_1  and  CA_2 
REMARK    2  A    between atoms: CA_2  and  CB_3 
REMARK    3  A    between atoms: CB_3  and  CBC_4 
REMARK    4  A    between atoms: CB_3  and  CG_5 
REMARK    5  A    between atoms: CB_3  and  OHB_13 
REMARK    6  A    between atoms: CG_5  and  CGC_6 
ROOT
ATOM      1  CB  FLC d   1     -33.089   3.291  35.351  0.00  0.00     0.164 C 
ENDROOT
BRANCH   1   2
ATOM      2  CA  FLC d   1     -34.440   3.706  35.956  0.00  0.00     0.054 C 
ATOM      3  H   FLC d   1     -35.166   2.944  35.674  0.00  0.00     0.054 H 
ATOM      4  H   FLC d   1     -34.293   3.807  37.031  0.00  0.00     0.054 H 
BRANCH   2   5
ATOM      5  CAC FLC d   1     -34.969   5.041  35.447  0.00  0.00     0.176 C 
ATOM      6  OA1 FLC d   1     -36.113   5.002  34.897  0.00  0.00    -0.648 OA
ATOM      7  OA2 FLC d   1     -34.327   6.104  35.640  0.00  0.00    -0.648 OA
ENDBRANCH   2   5
ENDBRANCH   1   2
BRANCH   1   8
ATOM      8  CBC FLC d   1     -33.254   3.238  33.852  0.00  0.00     0.210 C 
ATOM      9  OB1 FLC d   1     -33.968   2.339  33.412  0.00  0.00    -0.646 OA
ATOM     10  OB2 FLC d   1     -32.720   4.131  33.158  0.00  0.00    -0.646 OA
ENDBRANCH   1   8
BRANCH   1  11
ATOM     11  CG  FLC d   1     -32.589   1.932  35.837  0.00  0.00     0.054 C 
ATOM     12  H   FLC d   1     -31.678   1.699  35.287  0.00  0.00     0.054 H 
ATOM     13  H   FLC d   1     -33.387   1.208  35.672  0.00  0.00     0.054 H 
BRANCH  11  14
ATOM     14  CGC FLC d   1     -32.249   1.915  37.324  0.00  0.00     0.176 C 
ATOM     15  OG1 FLC d   1     -31.056   1.981  37.637  0.00  0.00    -0.648 OA
ATOM     16  OG2 FLC d   1     -33.175   1.858  38.150  0.00  0.00    -0.648 OA
ENDBRANCH  11  14
ENDBRANCH   1  11
BRANCH   1  17
ATOM     17  OHB FLC d   1     -32.132   4.279  35.647  0.00  0.00    -0.378 OA
ATOM     18  H   FLC d   1     -32.436   5.127  35.316  0.00  0.00     0.211 HD
ENDBRANCH   1  17
TORSDOF 6
