REMARK  13 active torsions:
REMARK  status: ('A' for Active; 'I' for Inactive)
REMARK    1  A    between atoms: C6_6  and  O25_25 
REMARK    2  A    between atoms: C8_8  and  C27_27 
REMARK    3  A    between atoms: C10_10  and  O28_28 
REMARK    4  A    between atoms: C11_11  and  O30_30 
REMARK    5  A    between atoms: C12_12  and  C31_31 
REMARK    6  A    between atoms: C14_14  and  C32_32 
REMARK    7  A    between atoms: C15_15  and  O33_33 
REMARK    8  A    between atoms: C16_16  and  O37_37 
REMARK    9  A    between atoms: C20_20  and  C39_39 
REMARK   10  A    between atoms: O25_25  and  C26_26 
REMARK   11  A    between atoms: O28_28  and  C29_29 
REMARK   12  A    between atoms: O33_33  and  C34_34 
REMARK       I    between atoms: C34_34  and  N36_36 
REMARK   13  A    between atoms: O37_37  and  C38_38 
ROOT
ATOM      1  C1  GDM d   1      26.192 -34.076  -5.405  0.00  0.00     0.042 A 
ATOM      2  C2  GDM d   1      26.258 -33.801  -3.895  0.00  0.00     0.183 A 
ATOM      3  C3  GDM d   1      25.578 -32.561  -3.309  0.00  0.00     0.085 A 
ATOM      4  C4  GDM d   1      24.871 -31.624  -4.170  0.00  0.00    -0.007 A 
ATOM      5  C5  GDM d   1      24.813 -31.872  -5.669  0.00  0.00     0.181 A 
ATOM      6  C6  GDM d   1      25.477 -33.112  -6.254  0.00  0.00     0.109 A 
ATOM      7  C7  GDM d   1      26.247 -35.549  -5.865  0.00  0.00    -0.049 C 
ATOM      8  C8  GDM d   1      24.836 -36.100  -5.625  0.00  0.00    -0.054 C 
ATOM      9  C9  GDM d   1      24.137 -36.336  -6.974  0.00  0.00    -0.035 C 
ATOM     10  C10 GDM d   1      22.759 -36.983  -6.757  0.00  0.00     0.063 C 
ATOM     11  C11 GDM d   1      21.884 -36.496  -7.910  0.00  0.00     0.067 C 
ATOM     12  C12 GDM d   1      21.225 -35.151  -7.539  0.00  0.00    -0.014 C 
ATOM     13  C13 GDM d   1      20.473 -35.196  -6.194  0.00  0.00    -0.092 C 
ATOM     14  C14 GDM d   1      20.438 -34.008  -5.337  0.00  0.00    -0.055 C 
ATOM     15  C15 GDM d   1      19.661 -34.038  -4.017  0.00  0.00     0.096 C 
ATOM     16  C16 GDM d   1      20.633 -34.134  -2.845  0.00  0.00     0.067 C 
ATOM     17  C17 GDM d   1      21.248 -35.533  -2.850  0.00  0.00    -0.038 C 
ATOM     18  C18 GDM d   1      22.484 -35.687  -2.098  0.00  0.00    -0.062 C 
ATOM     19  C19 GDM d   1      23.351 -34.437  -1.917  0.00  0.00    -0.054 C 
ATOM     20  C20 GDM d   1      24.637 -34.544  -1.214  0.00  0.00     0.020 C 
ATOM     21  C21 GDM d   1      25.305 -33.217  -0.847  0.00  0.00     0.226 C 
ATOM     22  N22 GDM d   1      25.621 -32.255  -1.883  0.00  0.00    -0.324 N 
ATOM     23  O23 GDM d   1      26.819 -34.572  -3.174  0.00  0.00    -0.290 OA
ATOM     24  O24 GDM d   1      24.235 -31.106  -6.382  0.00  0.00    -0.290 OA
ATOM     25  O40 GDM d   1      25.572 -32.948   0.285  0.00  0.00    -0.273 OA
ATOM     26  H   GDM d   1      27.206 -33.779  -5.672  0.00  0.00     0.057 H 
ATOM     27  H   GDM d   1      24.385 -30.748  -3.741  0.00  0.00     0.093 H 
ATOM     28  H   GDM d   1      25.618 -33.930  -5.548  0.00  0.00     0.097 H 
ATOM     29  H   GDM d   1      26.998 -36.114  -5.313  0.00  0.00     0.034 H 
ATOM     30  H   GDM d   1      26.538 -35.632  -6.912  0.00  0.00     0.034 H 
ATOM     31  H   GDM d   1      24.240 -35.383  -5.061  0.00  0.00     0.039 H 
ATOM     32  H   GDM d   1      24.751 -37.002  -7.580  0.00  0.00     0.037 H 
ATOM     33  H   GDM d   1      24.005 -35.379  -7.478  0.00  0.00     0.037 H 
ATOM     34  H   GDM d   1      22.372 -36.713  -5.775  0.00  0.00     0.087 H 
ATOM     35  H   GDM d   1      21.098 -37.217  -8.133  0.00  0.00     0.087 H 
ATOM     36  H   GDM d   1      22.011 -34.400  -7.468  0.00  0.00     0.049 H 
ATOM     37  H   GDM d   1      19.968 -36.110  -5.881  0.00  0.00     0.078 H 
ATOM     38  H   GDM d   1      18.977 -34.886  -4.065  0.00  0.00     0.095 H 
ATOM     39  H   GDM d   1      21.422 -33.387  -2.935  0.00  0.00     0.087 H 
ATOM     40  H   GDM d   1      21.491 -35.758  -3.889  0.00  0.00     0.036 H 
ATOM     41  H   GDM d   1      20.518 -36.191  -2.378  0.00  0.00     0.036 H 
ATOM     42  H   GDM d   1      23.092 -36.390  -2.667  0.00  0.00     0.033 H 
ATOM     43  H   GDM d   1      22.185 -35.989  -1.094  0.00  0.00     0.033 H 
ATOM     44  H   GDM d   1      22.751 -33.772  -1.296  0.00  0.00     0.034 H 
ATOM     45  H   GDM d   1      23.614 -34.134  -2.930  0.00  0.00     0.034 H 
ATOM     46  H   GDM d   1      25.256 -34.890  -2.041  0.00  0.00     0.054 H 
ATOM     47  H   GDM d   1      25.888 -31.312  -1.600  0.00  0.00     0.169 HD
ENDROOT
BRANCH  15  48
ATOM     48  O33 GDM d   1      18.978 -32.810  -3.818  0.00  0.00    -0.292 OA
BRANCH  48  49
ATOM     49  C34 GDM d   1      17.794 -32.703  -4.596  0.00  0.00     0.359 C 
ATOM     50  O35 GDM d   1      17.068 -31.751  -4.457  0.00  0.00    -0.239 OA
ATOM     51  N36 GDM d   1      17.466 -33.725  -5.576  0.00  0.00    -0.346 N 
ATOM     52  H   GDM d   1      16.623 -33.635  -6.144  0.00  0.00     0.161 HD
ATOM     53  H   GDM d   1      18.078 -34.532  -5.696  0.00  0.00     0.161 HD
ENDBRANCH  48  49
ENDBRANCH  15  48
BRANCH  14  54
ATOM     54  C32 GDM d   1      21.183 -32.735  -5.760  0.00  0.00    -0.052 C 
ATOM     55  H   GDM d   1      22.245 -32.955  -5.864  0.00  0.00     0.033 H 
ATOM     56  H   GDM d   1      20.788 -32.385  -6.714  0.00  0.00     0.033 H 
ATOM     57  H   GDM d   1      21.042 -31.964  -5.002  0.00  0.00     0.033 H 
ENDBRANCH  14  54
BRANCH  16  58
ATOM     58  O37 GDM d   1      19.925 -33.899  -1.617  0.00  0.00    -0.388 OA
BRANCH  58  59
ATOM     59  C38 GDM d   1      18.751 -34.716  -1.489  0.00  0.00     0.005 C 
ATOM     60  H   GDM d   1      18.070 -34.504  -2.313  0.00  0.00     0.066 H 
ATOM     61  H   GDM d   1      19.037 -35.767  -1.514  0.00  0.00     0.066 H 
ATOM     62  H   GDM d   1      18.258 -34.495  -0.543  0.00  0.00     0.066 H 
ENDBRANCH  58  59
ENDBRANCH  16  58
BRANCH  12  63
ATOM     63  C31 GDM d   1      20.161 -34.870  -8.616  0.00  0.00    -0.067 C 
ATOM     64  H   GDM d   1      20.641 -34.812  -9.593  0.00  0.00     0.028 H 
ATOM     65  H   GDM d   1      19.427 -35.675  -8.618  0.00  0.00     0.028 H 
ATOM     66  H   GDM d   1      19.665 -33.925  -8.397  0.00  0.00     0.028 H 
ENDBRANCH  12  63
BRANCH  11  67
ATOM     67  O30 GDM d   1      22.756 -36.297  -9.032  0.00  0.00    -0.392 OA
ATOM     68  H   GDM d   1      23.169 -37.131  -9.267  0.00  0.00     0.210 HD
ENDBRANCH  11  67
BRANCH  10  69
ATOM     69  O28 GDM d   1      22.827 -38.419  -6.819  0.00  0.00    -0.388 OA
BRANCH  69  70
ATOM     70  C29 GDM d   1      23.670 -38.824  -7.901  0.00  0.00     0.005 C 
ATOM     71  H   GDM d   1      23.264 -38.443  -8.838  0.00  0.00     0.066 H 
ATOM     72  H   GDM d   1      24.672 -38.424  -7.748  0.00  0.00     0.066 H 
ATOM     73  H   GDM d   1      23.714 -39.913  -7.938  0.00  0.00     0.066 H 
ENDBRANCH  69  70
ENDBRANCH  10  69
BRANCH  20  74
ATOM     74  C39 GDM d   1      24.956 -35.796  -0.366  0.00  0.00    -0.065 C 
ATOM     75  H   GDM d   1      24.214 -35.895   0.426  0.00  0.00     0.028 H 
ATOM     76  H   GDM d   1      24.930 -36.681  -1.002  0.00  0.00     0.028 H 
ATOM     77  H   GDM d   1      25.948 -35.692   0.074  0.00  0.00     0.028 H 
ENDBRANCH  20  74
BRANCH   8  78
ATOM     78  C27 GDM d   1      24.937 -37.395  -4.811  0.00  0.00    -0.073 C 
ATOM     79  H   GDM d   1      25.528 -38.125  -5.364  0.00  0.00     0.028 H 
ATOM     80  H   GDM d   1      25.418 -37.185  -3.855  0.00  0.00     0.028 H 
ATOM     81  H   GDM d   1      23.937 -37.792  -4.637  0.00  0.00     0.028 H 
ENDBRANCH   8  78
BRANCH   6  82
ATOM     82  O25 GDM d   1      25.397 -33.289  -7.662  0.00  0.00    -0.382 OA
BRANCH  82  83
ATOM     83  C26 GDM d   1      26.484 -32.560  -8.244  0.00  0.00     0.005 C 
ATOM     84  H   GDM d   1      26.393 -31.505  -7.984  0.00  0.00     0.066 H 
ATOM     85  H   GDM d   1      27.427 -32.950  -7.861  0.00  0.00     0.066 H 
ATOM     86  H   GDM d   1      26.456 -32.672  -9.328  0.00  0.00     0.066 H 
ENDBRANCH  82  83
ENDBRANCH   6  82
TORSDOF 13
