REMARK  6 active torsions:
REMARK  status: ('A' for Active; 'I' for Inactive)
REMARK    1  A    between atoms: C20_1  and  C21_2 
REMARK    2  A    between atoms: C21_2  and  C22_3 
REMARK    3  A    between atoms: C22_3  and  C23_4 
REMARK    4  A    between atoms: C23_4  and  C24_5 
REMARK    5  A    between atoms: C24_5  and  C25_6 
REMARK    6  A    between atoms: C25_6  and  C26_7 
ROOT
ATOM      1  C23 HP6 d   1      61.239  64.943 -30.361  0.00  0.00    -0.065 C 
ATOM      2  H   HP6 d   1      60.164  64.992 -30.533  0.00  0.00     0.033 H 
ATOM      3  H   HP6 d   1      61.768  64.883 -31.312  0.00  0.00     0.033 H 
ENDROOT
BRANCH   1   4
ATOM      4  C22 HP6 d   1      61.563  63.684 -29.519  0.00  0.00    -0.065 C 
ATOM      5  H   HP6 d   1      61.729  62.849 -30.199  0.00  0.00     0.033 H 
ATOM      6  H   HP6 d   1      62.446  63.892 -28.915  0.00  0.00     0.033 H 
BRANCH   4   7
ATOM      7  C21 HP6 d   1      60.399  63.317 -28.571  0.00  0.00    -0.069 C 
ATOM      8  H   HP6 d   1      59.832  64.228 -28.377  0.00  0.00     0.032 H 
ATOM      9  H   HP6 d   1      59.810  62.539 -29.057  0.00  0.00     0.032 H 
BRANCH   7  10
ATOM     10  C20 HP6 d   1      60.875  62.760 -27.204  0.00  0.00    -0.077 C 
ATOM     11  H   HP6 d   1      61.465  61.858 -27.366  0.00  0.00     0.027 H 
ATOM     12  H   HP6 d   1      61.486  63.509 -26.701  0.00  0.00     0.027 H 
ATOM     13  H   HP6 d   1      60.008  62.523 -26.588  0.00  0.00     0.027 H 
ENDBRANCH   7  10
ENDBRANCH   4   7
ENDBRANCH   1   4
BRANCH   1  14
ATOM     14  C24 HP6 d   1      61.687  66.205 -29.614  0.00  0.00    -0.065 C 
ATOM     15  H   HP6 d   1      62.563  65.955 -29.016  0.00  0.00     0.033 H 
ATOM     16  H   HP6 d   1      60.857  66.549 -28.996  0.00  0.00     0.033 H 
BRANCH  14  17
ATOM     17  C25 HP6 d   1      62.069  67.335 -30.577  0.00  0.00    -0.069 C 
ATOM     18  H   HP6 d   1      61.148  67.809 -30.916  0.00  0.00     0.032 H 
ATOM     19  H   HP6 d   1      62.646  66.897 -31.392  0.00  0.00     0.032 H 
BRANCH  17  20
ATOM     20  C26 HP6 d   1      62.938  68.418 -29.915  0.00  0.00    -0.077 C 
ATOM     21  H   HP6 d   1      62.392  68.861 -29.082  0.00  0.00     0.027 H 
ATOM     22  H   HP6 d   1      63.860  67.968 -29.548  0.00  0.00     0.027 H 
ATOM     23  H   HP6 d   1      63.175  69.190 -30.647  0.00  0.00     0.027 H 
ENDBRANCH  17  20
ENDBRANCH  14  17
ENDBRANCH   1  14
TORSDOF 6
