REMARK  3 active torsions:
REMARK  status: ('A' for Active; 'I' for Inactive)
REMARK    1  A    between atoms: C12_12  and  C15_14 
REMARK    2  A    between atoms: C17_16  and  O22_21 
REMARK    3  A    between atoms: C18_17  and  O21_20 
ROOT
ATOM      1  C1  AV6 d   1      36.218   7.879  18.374  0.00  0.00     0.027 A 
ATOM      2  C2  AV6 d   1      36.799   9.090  18.948  0.00  0.00     0.043 A 
ATOM      3  C3  AV6 d   1      37.827   9.742  18.318  0.00  0.00    -0.057 A 
ATOM      4  C4  AV6 d   1      38.309   9.237  17.126  0.00  0.00    -0.080 A 
ATOM      5  C5  AV6 d   1      37.802   8.089  16.536  0.00  0.00    -0.072 A 
ATOM      6  C6  AV6 d   1      36.757   7.382  17.095  0.00  0.00    -0.021 A 
ATOM      7  C7  AV6 d   1      36.216   6.253  16.513  0.00  0.00    -0.072 A 
ATOM      8  C8  AV6 d   1      35.181   5.634  17.194  0.00  0.00    -0.080 A 
ATOM      9  C9  AV6 d   1      34.639   6.066  18.407  0.00  0.00    -0.057 A 
ATOM     10  C10 AV6 d   1      35.124   7.175  19.049  0.00  0.00     0.043 A 
ATOM     11  N11 AV6 d   1      34.658   7.640  20.206  0.00  0.00    -0.364 N 
ATOM     12  C12 AV6 d   1      35.229   8.868  20.760  0.00  0.00     0.102 A 
ATOM     13  N13 AV6 d   1      36.321   9.546  20.080  0.00  0.00    -0.364 N 
ATOM     14  H   AV6 d   1      38.258  10.645  18.751  0.00  0.00     0.086 H 
ATOM     15  H   AV6 d   1      39.123   9.764  16.628  0.00  0.00     0.083 H 
ATOM     16  H   AV6 d   1      38.242   7.735  15.604  0.00  0.00     0.084 H 
ATOM     17  H   AV6 d   1      36.586   5.867  15.563  0.00  0.00     0.084 H 
ATOM     18  H   AV6 d   1      34.754   4.736  16.747  0.00  0.00     0.083 H 
ATOM     19  H   AV6 d   1      33.814   5.510  18.852  0.00  0.00     0.086 H 
ATOM     20  H1  AV6 d   1      33.906   7.143  20.704  0.00  0.00     0.162 HD
ATOM     21  H2  AV6 d   1      34.420   9.514  20.390  0.00  0.00     0.114 H 
ATOM     22  H3  AV6 d   1      36.725  10.398  20.494  0.00  0.00     0.162 HD
ENDROOT
BRANCH  12  23
ATOM     23  C15 AV6 d   1      35.125   9.272  22.157  0.00  0.00    -0.013 A 
ATOM     24  C16 AV6 d   1      36.087  10.151  22.686  0.00  0.00    -0.038 A 
ATOM     25  C17 AV6 d   1      36.015  10.561  24.011  0.00  0.00     0.099 A 
ATOM     26  H   AV6 d   1      36.895  10.513  22.051  0.00  0.00     0.088 H 
ATOM     27  C18 AV6 d   1      34.895  10.045  24.804  0.00  0.00     0.098 A 
ATOM     28  C19 AV6 d   1      33.974   9.200  24.224  0.00  0.00    -0.048 A 
ATOM     29  C20 AV6 d   1      34.080   8.834  22.906  0.00  0.00    -0.070 A 
ATOM     30  H   AV6 d   1      33.148   8.816  24.822  0.00  0.00     0.087 H 
ATOM     31  H   AV6 d   1      33.323   8.190  22.459  0.00  0.00     0.084 H 
BRANCH  25  32
ATOM     32  O22 AV6 d   1      36.939  11.391  24.556  0.00  0.00    -0.358 OA
ATOM     33  H   AV6 d   1      37.591  11.623  23.891  0.00  0.00     0.217 HD
ENDBRANCH  25  32
BRANCH  27  34
ATOM     34  O21 AV6 d   1      34.729  10.393  26.094  0.00  0.00    -0.358 OA
ATOM     35  H   AV6 d   1      34.742   9.604  26.641  0.00  0.00     0.217 HD
ENDBRANCH  27  34
ENDBRANCH  12  23
TORSDOF 3
