REMARK  7 active torsions:
REMARK  status: ('A' for Active; 'I' for Inactive)
REMARK    1  A    between atoms: C1_1  and  O1_2 
REMARK    2  A    between atoms: C2_3  and  N2_4 
REMARK       I    between atoms: N2_4  and  C7_5 
REMARK    3  A    between atoms: C7_5  and  C8_7 
REMARK    4  A    between atoms: C3_8  and  O3_9 
REMARK    5  A    between atoms: C4_10  and  O4_11 
REMARK    6  A    between atoms: C5_12  and  C6_13 
REMARK    7  A    between atoms: C6_13  and  O6_14 
ROOT
ATOM      1  C1  BM3 d   1     -11.259  30.981  17.280  0.00  0.00     0.151 C 
ATOM      2  C2  BM3 d   1     -10.640  29.951  16.399  0.00  0.00     0.086 C 
ATOM      3  C3  BM3 d   1      -9.975  28.924  17.225  0.00  0.00     0.086 C 
ATOM      4  C4  BM3 d   1      -9.007  29.524  18.166  0.00  0.00     0.089 C 
ATOM      5  C5  BM3 d   1      -9.607  30.612  19.019  0.00  0.00     0.089 C 
ATOM      6  O5  BM3 d   1     -10.256  31.552  18.142  0.00  0.00    -0.349 OA
ATOM      7  H1  BM3 d   1     -11.669  31.776  16.640  0.00  0.00     0.132 H 
ATOM      8  H3  BM3 d   1     -11.426  29.455  15.810  0.00  0.00     0.084 H 
ATOM      9  H8  BM3 d   1     -10.736  28.402  17.824  0.00  0.00     0.090 H 
ATOM     10  H10 BM3 d   1      -8.203  29.982  17.571  0.00  0.00     0.091 H 
ATOM     11  H12 BM3 d   1     -10.373  30.145  19.656  0.00  0.00     0.090 H 
ENDROOT
BRANCH   2  12
ATOM     12  N2  BM3 d   1      -9.736  30.660  15.469  0.00  0.00    -0.349 N 
ATOM     13  C7  BM3 d   1      -9.735  30.508  14.100  0.00  0.00     0.214 C 
ATOM     14  O7  BM3 d   1     -10.408  29.614  13.511  0.00  0.00    -0.274 OA
ATOM     15  H4  BM3 d   1      -9.075  31.298  15.864  0.00  0.00     0.163 HD
BRANCH  13  16
ATOM     16  C8  BM3 d   1      -8.743  31.454  13.403  0.00  0.00    -0.003 C 
ATOM     17  H5  BM3 d   1      -8.783  31.291  12.316  0.00  0.00     0.040 H 
ATOM     18  H6  BM3 d   1      -7.725  31.251  13.767  0.00  0.00     0.040 H 
ATOM     19  H7  BM3 d   1      -9.011  32.497  13.628  0.00  0.00     0.040 H 
ENDBRANCH  13  16
ENDBRANCH   2  12
BRANCH   1  20
ATOM     20  O1  BM3 d   1     -12.306  30.462  18.061  0.00  0.00    -0.369 OA
ATOM     21  H2  BM3 d   1     -12.691  31.161  18.577  0.00  0.00     0.212 HD
ENDBRANCH   1  20
BRANCH   3  22
ATOM     22  O3  BM3 d   1      -9.398  27.991  16.322  0.00  0.00    -0.391 OA
ATOM     23  H9  BM3 d   1     -10.082  27.606  15.786  0.00  0.00     0.210 HD
ENDBRANCH   3  22
BRANCH   4  24
ATOM     24  O4  BM3 d   1      -8.423  28.483  18.981  0.00  0.00    -0.390 OA
ATOM     25  H11 BM3 d   1      -7.800  28.868  19.586  0.00  0.00     0.210 HD
ENDBRANCH   4  24
BRANCH   5  26
ATOM     26  C6  BM3 d   1      -8.645  31.331  19.944  0.00  0.00     0.043 C 
ATOM     27  H13 BM3 d   1      -8.168  30.602  20.616  0.00  0.00     0.078 H 
ATOM     28  H14 BM3 d   1      -9.195  32.074  20.540  0.00  0.00     0.078 H 
BRANCH  26  29
ATOM     29  O6  BM3 d   1      -7.652  31.984  19.176  0.00  0.00    -0.398 OA
ATOM     30  H15 BM3 d   1      -7.050  32.434  19.756  0.00  0.00     0.209 HD
ENDBRANCH  26  29
ENDBRANCH   5  26
TORSDOF 7
