REMARK  8 active torsions:
REMARK  status: ('A' for Active; 'I' for Inactive)
REMARK    1  A    between atoms: C3_3  and  C6_5 
REMARK    2  A    between atoms: C4_4  and  C7_6 
REMARK    3  A    between atoms: C13_8  and  OAN_24 
REMARK    4  A    between atoms: C14_9  and  O33_19 
REMARK    5  A    between atoms: C21_12  and  O30_18 
REMARK    6  A    between atoms: C23_14  and  O29_17 
REMARK    7  A    between atoms: O33_19  and  C34_21 
REMARK    8  A    between atoms: OAN_24  and  CAB_23 
ROOT
ATOM      1  N1  YI5 d   1       2.029  33.253   7.111  0.00  0.00    -0.119 NA
ATOM      2  N2  YI5 d   1       2.233  32.908   5.929  0.00  0.00    -0.174 NA
ATOM      3  C3  YI5 d   1       1.775  33.717   4.943  0.00  0.00     0.099 C 
ATOM      4  C4  YI5 d   1       0.855  34.642   5.472  0.00  0.00     0.066 C 
ATOM      5  S1  YI5 d   1       1.089  34.635   7.150  0.00  0.00     0.006 SA
ATOM      6  H   YI5 d   1       2.617  34.289   4.553  0.00  0.00     0.088 H 
ATOM      7  H   YI5 d   1      -0.108  34.331   5.068  0.00  0.00     0.070 H 
ENDROOT
BRANCH   4   8
ATOM      8  C7  YI5 d   1       0.265  35.728   4.831  0.00  0.00    -0.037 C 
ATOM      9  C12 YI5 d   1      -0.815  36.420   5.354  0.00  0.00    -0.041 C 
ATOM     10  C13 YI5 d   1      -1.319  37.541   4.690  0.00  0.00     0.102 C 
ATOM     11  H   YI5 d   1      -1.273  36.089   6.286  0.00  0.00     0.088 H 
ATOM     12  C14 YI5 d   1      -0.664  38.039   3.561  0.00  0.00     0.101 C 
ATOM     13  C15 YI5 d   1       0.468  37.394   3.091  0.00  0.00    -0.047 C 
ATOM     14  C16 YI5 d   1       0.939  36.269   3.747  0.00  0.00    -0.073 C 
ATOM     15  H   YI5 d   1       0.986  37.770   2.209  0.00  0.00     0.087 H 
ATOM     16  H   YI5 d   1       1.860  35.798   3.403  0.00  0.00     0.084 H 
BRANCH  10  17
ATOM     17  OAN YI5 d   1      -2.435  38.148   5.177  0.00  0.00    -0.353 OA
BRANCH  17  18
ATOM     18  CAB YI5 d   1      -2.658  37.887   6.590  0.00  0.00     0.010 C 
ATOM     19  H   YI5 d   1      -2.771  36.814   6.747  0.00  0.00     0.066 H 
ATOM     20  H   YI5 d   1      -1.806  38.252   7.164  0.00  0.00     0.066 H 
ATOM     21  H   YI5 d   1      -3.563  38.400   6.915  0.00  0.00     0.066 H 
ENDBRANCH  17  18
ENDBRANCH  10  17
BRANCH  12  22
ATOM     22  O33 YI5 d   1      -1.081  39.148   2.891  0.00  0.00    -0.353 OA
BRANCH  22  23
ATOM     23  C34 YI5 d   1      -1.654  40.097   3.806  0.00  0.00     0.010 C 
ATOM     24  H   YI5 d   1      -2.507  39.644   4.311  0.00  0.00     0.066 H 
ATOM     25  H   YI5 d   1      -0.905  40.386   4.543  0.00  0.00     0.066 H 
ATOM     26  H   YI5 d   1      -1.983  40.978   3.255  0.00  0.00     0.066 H 
ENDBRANCH  22  23
ENDBRANCH  12  22
ENDBRANCH   4   8
BRANCH   3  27
ATOM     27  C6  YI5 d   1       1.797  33.346   3.588  0.00  0.00     0.005 C 
ATOM     28  C21 YI5 d   1       2.959  32.881   2.969  0.00  0.00     0.076 C 
ATOM     29  C22 YI5 d   1       2.971  32.488   1.621  0.00  0.00    -0.017 C 
ATOM     30  C23 YI5 d   1       1.777  32.340   0.928  0.00  0.00     0.090 C 
ATOM     31  H   YI5 d   1       3.919  32.299   1.118  0.00  0.00     0.092 H 
ATOM     32  C24 YI5 d   1       0.579  32.650   1.587  0.00  0.00     0.067 C 
ATOM     33  C25 YI5 d   1       0.587  33.114   2.916  0.00  0.00    -0.048 C 
ATOM     34 CL   YI5 d   1      -0.920  32.433   0.722  0.00  0.00    -0.081 Cl
ATOM     35  H   YI5 d   1      -0.357  33.295   3.429  0.00  0.00     0.087 H 
BRANCH  28  36
ATOM     36  O30 YI5 d   1       4.138  33.070   3.608  0.00  0.00    -0.360 OA
ATOM     37  H   YI5 d   1       4.640  32.252   3.599  0.00  0.00     0.217 HD
ENDBRANCH  28  36
BRANCH  30  38
ATOM     38  O29 YI5 d   1       1.769  31.895  -0.372  0.00  0.00    -0.359 OA
ATOM     39  H   YI5 d   1       2.671  31.733  -0.659  0.00  0.00     0.217 HD
ENDBRANCH  30  38
ENDBRANCH   3  27
TORSDOF 8
