REMARK  8 active torsions:
REMARK  status: ('A' for Active; 'I' for Inactive)
REMARK    1  A    between atoms: C3_3  and  O2_18 
REMARK    2  A    between atoms: C6_6  and  C7_7 
REMARK    3  A    between atoms: C8_8  and  C9_9 
REMARK    4  A    between atoms: C9_9  and  O1_17 
REMARK    5  A    between atoms: O2_18  and  C16_19 
REMARK    6  A    between atoms: C19_22  and  C22_25 
REMARK       I    between atoms: C22_25  and  N2_27 
REMARK    7  A    between atoms: N2_27  and  C23_28 
REMARK    8  A    between atoms: C23_28  and  C24_29 
ROOT
ATOM      1  C1  5EL d   1      23.105  14.407  12.674  0.00  0.00    -0.062 A 
ATOM      2  C2  5EL d   1      23.496  13.849  13.877  0.00  0.00    -0.049 A 
ATOM      3  C3  5EL d   1      22.631  13.005  14.577  0.00  0.00     0.076 A 
ATOM      4  C4  5EL d   1      21.368  12.724  14.080  0.00  0.00    -0.049 A 
ATOM      5  C5  5EL d   1      20.961  13.278  12.865  0.00  0.00    -0.062 A 
ATOM      6  C6  5EL d   1      21.835  14.118  12.167  0.00  0.00     0.018 A 
ATOM      7  H   5EL d   1      23.780  15.065  12.127  0.00  0.00     0.085 H 
ATOM      8  H   5EL d   1      24.484  14.069  14.281  0.00  0.00     0.087 H 
ATOM      9  H   5EL d   1      20.694  12.072  14.636  0.00  0.00     0.087 H 
ATOM     10  H   5EL d   1      19.972  13.058  12.464  0.00  0.00     0.085 H 
ENDROOT
BRANCH   3  11
ATOM     11  O2  5EL d   1      22.937  12.384  15.755  0.00  0.00    -0.311 OA
BRANCH  11  12
ATOM     12  C16 5EL d   1      23.494  13.073  16.813  0.00  0.00     0.076 A 
ATOM     13  C17 5EL d   1      23.472  14.470  16.891  0.00  0.00    -0.049 A 
ATOM     14  C18 5EL d   1      24.036  15.103  17.978  0.00  0.00    -0.065 A 
ATOM     15  H   5EL d   1      23.011  15.055  16.096  0.00  0.00     0.087 H 
ATOM     16  C19 5EL d   1      24.616  14.335  18.939  0.00  0.00     0.032 A 
ATOM     17  H   5EL d   1      24.018  16.189  18.065  0.00  0.00     0.085 H 
ATOM     18  C20 5EL d   1      24.641  12.943  18.884  0.00  0.00    -0.065 A 
ATOM     19  C21 5EL d   1      24.073  12.308  17.783  0.00  0.00    -0.049 A 
ATOM     20  H   5EL d   1      25.096  12.363  19.687  0.00  0.00     0.085 H 
ATOM     21  H   5EL d   1      24.090  11.222  17.698  0.00  0.00     0.087 H 
BRANCH  16  22
ATOM     22  C22 5EL d   1      25.239  14.994  20.133  0.00  0.00     0.251 C 
ATOM     23  O3  5EL d   1      25.268  14.357  21.172  0.00  0.00    -0.268 OA
ATOM     24  N2  5EL d   1      25.691  16.261  19.955  0.00  0.00    -0.353 N 
ATOM     25  H   5EL d   1      25.796  16.662  19.023  0.00  0.00     0.163 HD
BRANCH  24  26
ATOM     26  C23 5EL d   1      26.023  17.031  21.164  0.00  0.00     0.019 C 
ATOM     27  H   5EL d   1      25.315  16.764  21.949  0.00  0.00     0.071 H 
ATOM     28  H   5EL d   1      25.970  18.093  20.923  0.00  0.00     0.071 H 
BRANCH  26  29
ATOM     29  C24 5EL d   1      27.415  16.721  21.651  0.00  0.00    -0.038 A 
ATOM     30  C25 5EL d   1      28.317  15.992  20.874  0.00  0.00    -0.058 A 
ATOM     31  C26 5EL d   1      29.565  15.739  21.412  0.00  0.00     0.002 A 
ATOM     32  H   5EL d   1      28.047  15.636  19.880  0.00  0.00     0.086 H 
ATOM     33  N3  5EL d   1      30.002  16.160  22.620  0.00  0.00    -0.273 NA
ATOM     34  H   5EL d   1      30.256  15.149  20.810  0.00  0.00     0.114 H 
ATOM     35  C27 5EL d   1      29.128  16.866  23.343  0.00  0.00     0.002 A 
ATOM     36  C28 5EL d   1      27.831  17.168  22.902  0.00  0.00    -0.058 A 
ATOM     37  H   5EL d   1      29.438  17.225  24.324  0.00  0.00     0.114 H 
ATOM     38  H   5EL d   1      27.156  17.747  23.532  0.00  0.00     0.086 H 
ENDBRANCH  26  29
ENDBRANCH  24  26
ENDBRANCH  16  22
ENDBRANCH  11  12
ENDBRANCH   3  11
BRANCH   6  39
ATOM     39  C7  5EL d   1      21.404  14.620  10.913  0.00  0.00    -0.064 C 
ATOM     40  C8  5EL d   1      21.041  14.999   9.829  0.00  0.00    -0.060 C 
BRANCH  40  41
ATOM     41  C9  5EL d   1      20.615  15.517   8.490  0.00  0.00     0.151 C 
ATOM     42  C10 5EL d   1      19.104  15.282   8.403  0.00  0.00     0.152 C 
ATOM     43  N1  5EL d   1      18.836  14.445   7.170  0.00  0.00     0.092 N 
ATOM     44  H   5EL d   1      18.576  16.233   8.336  0.00  0.00     0.086 H 
ATOM     45  H   5EL d   1      18.749  14.766   9.295  0.00  0.00     0.086 H 
ATOM     46  C11 5EL d   1      19.330  15.133   5.920  0.00  0.00     0.114 C 
ATOM     47  C15 5EL d   1      19.542  13.143   7.389  0.00  0.00     0.114 C 
ATOM     48  C12 5EL d   1      20.832  15.374   6.061  0.00  0.00    -0.033 C 
ATOM     49  H   5EL d   1      18.811  16.083   5.788  0.00  0.00     0.079 H 
ATOM     50  H   5EL d   1      19.134  14.508   5.049  0.00  0.00     0.079 H 
ATOM     51  C13 5EL d   1      21.375  14.804   7.351  0.00  0.00    -0.008 C 
ATOM     52  H   5EL d   1      21.007  16.450   6.062  0.00  0.00     0.036 H 
ATOM     53  H   5EL d   1      21.337  14.881   5.230  0.00  0.00     0.036 H 
ATOM     54  C14 5EL d   1      21.081  13.338   7.427  0.00  0.00    -0.033 C 
ATOM     55  H   5EL d   1      22.453  14.948   7.418  0.00  0.00     0.046 H 
ATOM     56  H   5EL d   1      21.486  12.924   8.350  0.00  0.00     0.036 H 
ATOM     57  H   5EL d   1      21.543  12.821   6.586  0.00  0.00     0.036 H 
ATOM     58  H   5EL d   1      19.297  12.472   6.566  0.00  0.00     0.079 H 
ATOM     59  H   5EL d   1      19.220  12.729   8.345  0.00  0.00     0.079 H 
BRANCH  41  60
ATOM     60  O1  5EL d   1      20.990  16.875   8.385  0.00  0.00    -0.375 OA
ATOM     61  H   5EL d   1      21.945  16.948   8.447  0.00  0.00     0.211 HD
ENDBRANCH  41  60
ENDBRANCH  40  41
ENDBRANCH   6  39
TORSDOF 8
