REMARK  6 active torsions:
REMARK  status: ('A' for Active; 'I' for Inactive)
REMARK    1  A    between atoms: CAT_9  and  NAF_10 
REMARK       I    between atoms: NAF_10  and  CAS_11 
REMARK    2  A    between atoms: CAS_11  and  CAQ_13 
REMARK    3  A    between atoms: CAK_21  and  CAI_22 
REMARK    4  A    between atoms: CAI_22  and  CAJ_23 
REMARK    5  A    between atoms: CAI_22  and  NAD_24 
REMARK    6  A    between atoms: NAD_24  and  NAC_25 
REMARK       I    between atoms: NAC_25  and  CAH_26 
REMARK       I    between atoms: CAH_26  and  NAB_27 
ROOT
ATOM      1  CAQ YIQ d   1     -36.361  33.067   9.044  0.00  0.00     0.102 A 
ATOM      2  NAE YIQ d   1     -36.130  31.997   9.817  0.00  0.00    -0.351 N 
ATOM      3  CAR YIQ d   1     -36.010  34.208   9.664  0.00  0.00    -0.040 A 
ATOM      4  CAO YIQ d   1     -35.504  33.854  10.859  0.00  0.00    -0.006 A 
ATOM      5  CAP YIQ d   1     -34.992  34.613  11.915  0.00  0.00    -0.059 A 
ATOM      6  CAN YIQ d   1     -35.585  32.465  10.961  0.00  0.00     0.043 A 
ATOM      7  CAM YIQ d   1     -35.120  31.824  12.119  0.00  0.00    -0.056 A 
ATOM      8  CAL YIQ d   1     -34.600  32.584  13.168  0.00  0.00    -0.069 A 
ATOM      9  CAK YIQ d   1     -34.530  33.990  13.088  0.00  0.00    -0.009 A 
ATOM     10  H   YIQ d   1     -36.327  31.023   9.587  0.00  0.00     0.166 HD
ATOM     11  H   YIQ d   1     -36.115  35.221   9.274  0.00  0.00     0.088 H 
ATOM     12  H   YIQ d   1     -34.950  35.699  11.829  0.00  0.00     0.086 H 
ATOM     13  H   YIQ d   1     -35.164  30.738  12.199  0.00  0.00     0.087 H 
ATOM     14  H   YIQ d   1     -34.241  32.081  14.066  0.00  0.00     0.085 H 
ENDROOT
BRANCH   1  15
ATOM     15  CAS YIQ d   1     -37.036  32.974   7.673  0.00  0.00     0.272 C 
ATOM     16  NAF YIQ d   1     -37.642  31.793   7.484  0.00  0.00    -0.322 N 
ATOM     17  H   YIQ d   1     -37.545  31.105   8.231  0.00  0.00     0.169 HD
ATOM     18  OBB YIQ d   1     -37.135  33.952   6.939  0.00  0.00    -0.266 OA
BRANCH  16  19
ATOM     19  CAT YIQ d   1     -38.366  31.420   6.410  0.00  0.00     0.037 A 
ATOM     20  CAU YIQ d   1     -38.295  32.104   5.189  0.00  0.00    -0.031 A 
ATOM     21  CAV YIQ d   1     -39.091  31.665   4.113  0.00  0.00     0.044 A 
ATOM     22  H   YIQ d   1     -37.634  32.963   5.074  0.00  0.00     0.090 H 
ATOM     23  NAG YIQ d   1     -39.232  32.107   2.864  0.00  0.00    -0.365 N 
ATOM     24  CAW YIQ d   1     -39.932  30.557   4.259  0.00  0.00    -0.008 A 
ATOM     25  CAZ YIQ d   1     -40.129  31.320   2.245  0.00  0.00    -0.022 A 
ATOM     26  H   YIQ d   1     -38.745  32.902   2.450  0.00  0.00     0.165 HD
ATOM     27  CBA YIQ d   1     -40.559  30.376   3.087  0.00  0.00    -0.056 A 
ATOM     28  H   YIQ d   1     -40.456  31.435   1.212  0.00  0.00     0.111 H 
ATOM     29  H   YIQ d   1     -41.289  29.598   2.862  0.00  0.00     0.086 H 
ATOM     30  CAX YIQ d   1     -39.999  29.877   5.477  0.00  0.00    -0.069 A 
ATOM     31  CAY YIQ d   1     -39.214  30.301   6.558  0.00  0.00    -0.056 A 
ATOM     32  H   YIQ d   1     -40.661  29.018   5.587  0.00  0.00     0.085 H 
ATOM     33  H   YIQ d   1     -39.258  29.769   7.508  0.00  0.00     0.086 H 
ENDBRANCH  16  19
ENDBRANCH   1  15
BRANCH   9  34
ATOM     34  CAI YIQ d   1     -34.004  34.742  14.175  0.00  0.00     0.061 C 
BRANCH  34  35
ATOM     35  CAJ YIQ d   1     -33.312  36.106  13.968  0.00  0.00    -0.033 C 
ATOM     36  H   YIQ d   1     -33.875  36.880  14.489  0.00  0.00     0.035 H 
ATOM     37  H   YIQ d   1     -32.298  36.062  14.367  0.00  0.00     0.035 H 
ATOM     38  H   YIQ d   1     -33.275  36.335  12.903  0.00  0.00     0.035 H 
ENDBRANCH  34  35
BRANCH  34  39
ATOM     39  NAD YIQ d   1     -34.170  34.237  15.418  0.00  0.00    -0.164 NA
BRANCH  39  40
ATOM     40  NAC YIQ d   1     -33.761  34.766  16.479  0.00  0.00    -0.110 N 
ATOM     41  CAH YIQ d   1     -34.000  34.177  17.655  0.00  0.00     0.685 C 
ATOM     42  NAB YIQ d   1     -33.623  34.749  18.788  0.00  0.00    -0.234 N 
ATOM     43  NAA YIQ d   1     -34.691  33.032  17.709  0.00  0.00    -0.234 N 
ATOM     44  H   YIQ d   1     -33.144  35.650  18.770  0.00  0.00     0.174 HD
ATOM     45  H   YIQ d   1     -33.811  34.289  19.679  0.00  0.00     0.174 HD
ATOM     46  H   YIQ d   1     -35.038  32.605  16.850  0.00  0.00     0.174 HD
ATOM     47  H   YIQ d   1     -34.871  32.587  18.609  0.00  0.00     0.174 HD
ATOM     48  H   YIQ d   1     -33.246  35.646  16.445  0.00  0.00     0.208 HD
ENDBRANCH  39  40
ENDBRANCH  34  39
ENDBRANCH   9  34
TORSDOF 6
