REMARK  16 active torsions:
REMARK  status: ('A' for Active; 'I' for Inactive)
REMARK    1  A    between atoms: C1_1  and  C2_2 
REMARK    2  A    between atoms: C2_2  and  C3_3 
REMARK    3  A    between atoms: C2_2  and  C4_4 
REMARK    4  A    between atoms: C2_2  and  C5_5 
REMARK    5  A    between atoms: C7_7  and  N8_8 
REMARK       I    between atoms: N8_8  and  C9_9 
REMARK       I    between atoms: C9_9  and  N11_11 
REMARK    6  A    between atoms: N11_11  and  C12_12 
REMARK    7  A    between atoms: C12_12  and  C13_13 
REMARK    8  A    between atoms: C18_18  and  S19_19 
REMARK    9  A    between atoms: S19_19  and  C20_20 
REMARK   10  A    between atoms: C26_26  and  C27_27 
REMARK   11  A    between atoms: C32_32  and  S33_33 
REMARK   12  A    between atoms: S33_33  and  C34_34 
REMARK   13  A    between atoms: C34_34  and  C35_35 
REMARK   14  A    between atoms: C35_35  and  O36_36 
REMARK   15  A    between atoms: N39_39  and  C41_41 
REMARK   16  A    between atoms: C44_44  and  O45_45 
ROOT
ATOM      1  C13 YIS d   1      -3.787   1.626  17.314  0.00  0.00    -0.023 A 
ATOM      2  C14 YIS d   1      -4.591   1.422  16.206  0.00  0.00    -0.074 A 
ATOM      3  C15 YIS d   1      -5.719   0.592  16.296  0.00  0.00    -0.082 A 
ATOM      4  C16 YIS d   1      -6.055  -0.026  17.521  0.00  0.00    -0.082 A 
ATOM      5  C17 YIS d   1      -5.240   0.161  18.624  0.00  0.00    -0.066 A 
ATOM      6  C18 YIS d   1      -4.076   0.995  18.542  0.00  0.00     0.013 A 
ATOM      7  H   YIS d   1      -4.347   1.907  15.261  0.00  0.00     0.084 H 
ATOM      8  H   YIS d   1      -6.339   0.423  15.416  0.00  0.00     0.083 H 
ATOM      9  H   YIS d   1      -6.949  -0.645  17.597  0.00  0.00     0.083 H 
ATOM     10  H   YIS d   1      -5.486  -0.331  19.565  0.00  0.00     0.085 H 
ENDROOT
BRANCH   1  11
ATOM     11  C12 YIS d   1      -2.553   2.496  17.314  0.00  0.00     0.022 C 
ATOM     12  H   YIS d   1      -2.751   3.233  18.092  0.00  0.00     0.071 H 
ATOM     13  H   YIS d   1      -1.731   1.787  17.406  0.00  0.00     0.071 H 
BRANCH  11  14
ATOM     14  N11 YIS d   1      -2.199   3.295  16.156  0.00  0.00    -0.339 N 
ATOM     15  C9  YIS d   1      -1.066   2.990  15.464  0.00  0.00     0.322 C 
ATOM     16  N8  YIS d   1      -0.711   3.798  14.469  0.00  0.00    -0.293 N 
ATOM     17  O10 YIS d   1      -0.283   2.066  15.819  0.00  0.00    -0.247 OA
ATOM     18  H   YIS d   1      -1.330   4.597  14.331  0.00  0.00     0.172 HD
ATOM     19  H   YIS d   1      -2.790   4.074  15.864  0.00  0.00     0.164 HD
BRANCH  16  20
ATOM     20  C7  YIS d   1       0.364   3.738  13.583  0.00  0.00     0.135 A 
ATOM     21  C6  YIS d   1       1.260   2.707  13.331  0.00  0.00    -0.012 A 
ATOM     22  C5  YIS d   1       2.206   3.168  12.375  0.00  0.00     0.066 A 
ATOM     23  H   YIS d   1       1.241   1.717  13.787  0.00  0.00     0.092 H 
ATOM     24  N40 YIS d   1       1.864   4.399  12.104  0.00  0.00    -0.169 NA
ATOM     25  N39 YIS d   1       0.706   4.775  12.787  0.00  0.00    -0.217 N 
BRANCH  22  26
ATOM     26  C2  YIS d   1       3.405   2.462  11.726  0.00  0.00    -0.005 C 
BRANCH  26  27
ATOM     27  C1  YIS d   1       2.897   1.492  10.640  0.00  0.00    -0.064 C 
ATOM     28  H   YIS d   1       2.239   0.752  11.095  0.00  0.00     0.028 H 
ATOM     29  H   YIS d   1       2.348   2.052   9.883  0.00  0.00     0.028 H 
ATOM     30  H   YIS d   1       3.746   0.989  10.178  0.00  0.00     0.028 H 
ENDBRANCH  26  27
BRANCH  26  31
ATOM     31  C3  YIS d   1       4.184   1.675  12.764  0.00  0.00    -0.064 C 
ATOM     32  H   YIS d   1       4.547   2.354  13.536  0.00  0.00     0.028 H 
ATOM     33  H   YIS d   1       3.533   0.926  13.214  0.00  0.00     0.028 H 
ATOM     34  H   YIS d   1       5.030   1.182  12.285  0.00  0.00     0.028 H 
ENDBRANCH  26  31
BRANCH  26  35
ATOM     35  C4  YIS d   1       4.361   3.468  11.019  0.00  0.00    -0.064 C 
ATOM     36  H   YIS d   1       3.815   3.999  10.239  0.00  0.00     0.028 H 
ATOM     37  H   YIS d   1       4.740   4.182  11.750  0.00  0.00     0.028 H 
ATOM     38  H   YIS d   1       5.194   2.924  10.574  0.00  0.00     0.028 H 
ENDBRANCH  26  35
ENDBRANCH  22  26
BRANCH  25  39
ATOM     39  C41 YIS d   1       0.196   6.119  12.740  0.00  0.00     0.062 A 
ATOM     40  C42 YIS d   1       0.230   6.936  11.567  0.00  0.00    -0.052 A 
ATOM     41  C43 YIS d   1      -0.254   8.253  11.591  0.00  0.00    -0.047 A 
ATOM     42  H   YIS d   1       0.638   6.530  10.641  0.00  0.00     0.087 H 
ATOM     43  C44 YIS d   1      -0.734   8.763  12.828  0.00  0.00     0.087 A 
ATOM     44  H   YIS d   1      -0.262   8.866  10.690  0.00  0.00     0.087 H 
ATOM     45  C46 YIS d   1      -0.739   7.974  13.989  0.00  0.00     0.069 A 
ATOM     46 CL   YIS d   1      -1.321   8.562  15.494  0.00  0.00    -0.081 Cl
ATOM     47  C48 YIS d   1      -0.262   6.678  13.949  0.00  0.00    -0.031 A 
ATOM     48  H   YIS d   1      -0.240   6.082  14.862  0.00  0.00     0.089 H 
BRANCH  43  49
ATOM     49  O45 YIS d   1      -1.202  10.024  12.922  0.00  0.00    -0.359 OA
ATOM     50  H   YIS d   1      -1.481  10.194  13.825  0.00  0.00     0.217 HD
ENDBRANCH  43  49
ENDBRANCH  25  39
ENDBRANCH  16  20
ENDBRANCH  11  14
ENDBRANCH   1  11
BRANCH   6  51
ATOM     51  S19 YIS d   1      -2.968   1.278  19.946  0.00  0.00    -0.089 SA
BRANCH  51  52
ATOM     52  C20 YIS d   1      -2.668  -0.390  20.502  0.00  0.00     0.021 A 
ATOM     53  C21 YIS d   1      -2.644  -1.441  19.547  0.00  0.00    -0.061 A 
ATOM     54  C22 YIS d   1      -2.430  -2.753  19.898  0.00  0.00    -0.035 A 
ATOM     55  H   YIS d   1      -2.801  -1.198  18.496  0.00  0.00     0.085 H 
ATOM     56  C23 YIS d   1      -2.178  -3.074  21.261  0.00  0.00     0.157 A 
ATOM     57  H   YIS d   1      -2.453  -3.537  19.142  0.00  0.00     0.089 H 
ATOM     58  N24 YIS d   1      -1.904  -4.208  21.879  0.00  0.00    -0.130 NA
ATOM     59  N37 YIS d   1      -2.190  -2.065  22.204  0.00  0.00    -0.286 N 
ATOM     60  N25 YIS d   1      -1.711  -3.989  23.108  0.00  0.00    -0.129 NA
ATOM     61  C26 YIS d   1      -1.904  -2.713  23.370  0.00  0.00     0.169 A 
ATOM     62  C38 YIS d   1      -2.460  -0.716  21.829  0.00  0.00     0.005 A 
ATOM     63  H   YIS d   1      -2.502   0.061  22.592  0.00  0.00     0.114 H 
BRANCH  61  64
ATOM     64  C27 YIS d   1      -1.729  -2.072  24.699  0.00  0.00     0.029 A 
ATOM     65  C28 YIS d   1      -2.658  -2.224  25.771  0.00  0.00    -0.068 A 
ATOM     66  C29 YIS d   1      -2.400  -1.581  26.989  0.00  0.00    -0.082 A 
ATOM     67  H   YIS d   1      -3.555  -2.831  25.645  0.00  0.00     0.085 H 
ATOM     68  C30 YIS d   1      -1.248  -0.806  27.164  0.00  0.00    -0.082 A 
ATOM     69  H   YIS d   1      -3.107  -1.686  27.812  0.00  0.00     0.083 H 
ATOM     70  C31 YIS d   1      -0.321  -0.646  26.140  0.00  0.00    -0.066 A 
ATOM     71  H   YIS d   1      -1.074  -0.318  28.123  0.00  0.00     0.083 H 
ATOM     72  C32 YIS d   1      -0.535  -1.276  24.883  0.00  0.00     0.014 A 
ATOM     73  H   YIS d   1       0.569  -0.038  26.301  0.00  0.00     0.085 H 
BRANCH  72  74
ATOM     74  S33 YIS d   1       0.640  -1.084  23.538  0.00  0.00    -0.127 SA
BRANCH  74  75
ATOM     75  C34 YIS d   1       1.368   0.557  23.656  0.00  0.00     0.001 C 
ATOM     76  H   YIS d   1       2.312   0.577  23.111  0.00  0.00     0.052 H 
ATOM     77  H   YIS d   1       1.551   0.800  24.703  0.00  0.00     0.052 H 
BRANCH  75  78
ATOM     78  C35 YIS d   1       0.402   1.586  23.050  0.00  0.00     0.025 C 
ATOM     79  H   YIS d   1       0.307   1.367  21.987  0.00  0.00     0.075 H 
ATOM     80  H   YIS d   1       0.809   2.578  23.244  0.00  0.00     0.075 H 
BRANCH  78  81
ATOM     81  O36 YIS d   1      -0.929   1.529  23.636  0.00  0.00    -0.400 OA
ATOM     82  H   YIS d   1      -1.488   2.190  23.222  0.00  0.00     0.209 HD
ENDBRANCH  78  81
ENDBRANCH  75  78
ENDBRANCH  74  75
ENDBRANCH  72  74
ENDBRANCH  61  64
ENDBRANCH  51  52
ENDBRANCH   6  51
TORSDOF 16
