REMARK  10 active torsions:
REMARK  status: ('A' for Active; 'I' for Inactive)
REMARK    1  A    between atoms: CAL_5  and  OBB_6 
REMARK    2  A    between atoms: OBB_6  and  CAO_7 
REMARK    3  A    between atoms: CAM_11  and  CAP_12 
REMARK       I    between atoms: CAP_12  and  NAB_14 
REMARK    4  A    between atoms: NAB_14  and  CAQ_15 
REMARK    5  A    between atoms: CAT_20  and  CAW_21 
REMARK    6  A    between atoms: CAW_21  and  CAX_22 
REMARK    7  A    between atoms: CAW_21  and  NAC_25 
REMARK    8  A    between atoms: CAX_22  and  CAZ_23 
REMARK    9  A    between atoms: CAZ_23  and  CBA_24 
REMARK   10  A    between atoms: NAC_25  and  NAD_26 
REMARK       I    between atoms: NAD_26  and  CAY_27 
REMARK       I    between atoms: CAY_27  and  NAF_28 
ROOT
ATOM      1  CAQ YIT d   1      47.538 -13.947 -10.713  0.00  0.00     0.035 A 
ATOM      2  CAV YIT d   1      46.659 -14.135 -11.781  0.00  0.00    -0.056 A 
ATOM      3  CAU YIT d   1      46.743 -13.393 -12.947  0.00  0.00    -0.069 A 
ATOM      4  CAR YIT d   1      48.524 -12.978 -10.829  0.00  0.00    -0.056 A 
ATOM      5  CAS YIT d   1      48.613 -12.203 -12.000  0.00  0.00    -0.069 A 
ATOM      6  CAT YIT d   1      47.716 -12.396 -13.069  0.00  0.00    -0.010 A 
ATOM      7  H   YIT d   1      45.880 -14.892 -11.694  0.00  0.00     0.086 H 
ATOM      8  H   YIT d   1      46.052 -13.586 -13.768  0.00  0.00     0.085 H 
ATOM      9  H   YIT d   1      49.229 -12.817 -10.014  0.00  0.00     0.086 H 
ATOM     10  H   YIT d   1      49.388 -11.441 -12.081  0.00  0.00     0.085 H 
ENDROOT
BRANCH   1  11
ATOM     11  NAB YIT d   1      47.386 -14.772  -9.662  0.00  0.00    -0.322 N 
ATOM     12  CAP YIT d   1      48.011 -14.688  -8.471  0.00  0.00     0.272 C 
ATOM     13  OBC YIT d   1      48.849 -13.834  -8.203  0.00  0.00    -0.266 OA
ATOM     14  H   YIT d   1      46.728 -15.543  -9.779  0.00  0.00     0.169 HD
BRANCH  12  15
ATOM     15  CAM YIT d   1      47.733 -15.831  -7.465  0.00  0.00     0.102 A 
ATOM     16  NAA YIT d   1      46.985 -16.906  -7.715  0.00  0.00    -0.351 N 
ATOM     17  CAI YIT d   1      47.002 -17.679  -6.634  0.00  0.00     0.043 A 
ATOM     18  H   YIT d   1      46.487 -17.101  -8.584  0.00  0.00     0.166 HD
ATOM     19  CAH YIT d   1      46.408 -18.901  -6.373  0.00  0.00    -0.054 A 
ATOM     20  CAJ YIT d   1      47.809 -17.064  -5.673  0.00  0.00    -0.004 A 
ATOM     21  CAG YIT d   1      46.596 -19.517  -5.139  0.00  0.00    -0.049 A 
ATOM     22  H   YIT d   1      45.793 -19.381  -7.134  0.00  0.00     0.087 H 
ATOM     23  CAL YIT d   1      47.384 -18.932  -4.156  0.00  0.00     0.069 A 
ATOM     24  H   YIT d   1      46.116 -20.476  -4.941  0.00  0.00     0.087 H 
ATOM     25  CAK YIT d   1      48.001 -17.690  -4.415  0.00  0.00    -0.039 A 
ATOM     26  H   YIT d   1      48.620 -17.215  -3.654  0.00  0.00     0.089 H 
ATOM     27  CAN YIT d   1      48.245 -15.922  -6.227  0.00  0.00    -0.040 A 
ATOM     28  H   YIT d   1      48.902 -15.193  -5.753  0.00  0.00     0.088 H 
BRANCH  23  29
ATOM     29  OBB YIT d   1      47.512 -19.642  -2.981  0.00  0.00    -0.356 OA
BRANCH  29  30
ATOM     30  CAO YIT d   1      48.112 -18.977  -1.838  0.00  0.00     0.010 C 
ATOM     31  H   YIT d   1      49.126 -18.666  -2.091  0.00  0.00     0.066 H 
ATOM     32  H   YIT d   1      47.517 -18.102  -1.575  0.00  0.00     0.066 H 
ATOM     33  H   YIT d   1      48.142 -19.665  -0.993  0.00  0.00     0.066 H 
ENDBRANCH  29  30
ENDBRANCH  23  29
ENDBRANCH  12  15
ENDBRANCH   1  11
BRANCH   6  34
ATOM     34  CAW YIT d   1      47.795 -11.606 -14.231  0.00  0.00     0.065 C 
BRANCH  34  35
ATOM     35  CAX YIT d   1      48.353 -10.187 -14.214  0.00  0.00    -0.023 C 
ATOM     36  H   YIT d   1      48.550  -9.906 -13.180  0.00  0.00     0.042 H 
ATOM     37  H   YIT d   1      47.622  -9.523 -14.675  0.00  0.00     0.042 H 
BRANCH  35  38
ATOM     38  CAZ YIT d   1      49.671 -10.090 -15.007  0.00  0.00    -0.063 C 
ATOM     39  H   YIT d   1      49.489 -10.388 -16.040  0.00  0.00     0.033 H 
ATOM     40  H   YIT d   1      50.411 -10.747 -14.550  0.00  0.00     0.033 H 
BRANCH  38  41
ATOM     41  CBA YIT d   1      50.201  -8.641 -14.986  0.00  0.00    -0.076 C 
ATOM     42  H   YIT d   1      49.463  -7.979 -15.438  0.00  0.00     0.027 H 
ATOM     43  H   YIT d   1      50.381  -8.336 -13.955  0.00  0.00     0.027 H 
ATOM     44  H   YIT d   1      51.132  -8.588 -15.550  0.00  0.00     0.027 H 
ENDBRANCH  38  41
ENDBRANCH  35  38
ENDBRANCH  34  35
BRANCH  34  45
ATOM     45  NAC YIT d   1      47.348 -12.112 -15.394  0.00  0.00    -0.164 NA
BRANCH  45  46
ATOM     46  NAD YIT d   1      47.372 -11.501 -16.490  0.00  0.00    -0.110 N 
ATOM     47  CAY YIT d   1      46.945 -12.109 -17.619  0.00  0.00     0.685 C 
ATOM     48  NAF YIT d   1      46.964 -11.530 -18.811  0.00  0.00    -0.234 N 
ATOM     49  NAE YIT d   1      46.513 -13.338 -17.586  0.00  0.00    -0.234 N 
ATOM     50  H   YIT d   1      47.314 -10.577 -18.910  0.00  0.00     0.174 HD
ATOM     51  H   YIT d   1      46.629 -12.037 -19.630  0.00  0.00     0.174 HD
ATOM     52  H   YIT d   1      46.495 -13.849 -16.703  0.00  0.00     0.174 HD
ATOM     53  H   YIT d   1      46.193 -13.789 -18.443  0.00  0.00     0.174 HD
ATOM     54  H   YIT d   1      47.715 -10.541 -16.529  0.00  0.00     0.208 HD
ENDBRANCH  45  46
ENDBRANCH  34  45
ENDBRANCH   6  34
TORSDOF 10
