REMARK  23 active torsions:
REMARK  status: ('A' for Active; 'I' for Inactive)
REMARK    1  A    between atoms: C2_1  and  C9_13 
REMARK    2  A    between atoms: C3_2  and  C3M_3 
REMARK    3  A    between atoms: C5_6  and  O5_33 
REMARK    4  A    between atoms: O5_33  and  C5M_7 
REMARK    5  A    between atoms: C7_9  and  O7_34 
REMARK    6  A    between atoms: O7_34  and  C7M_10 
REMARK    7  A    between atoms: C8_11  and  O8_35 
REMARK    8  A    between atoms: C9_13  and  C10_14 
REMARK    9  A    between atoms: C10_14  and  C11_15 
REMARK   10  A    between atoms: C11_15  and  C12_16 
REMARK   11  A    between atoms: C11_15  and  C22_26 
REMARK   12  A    between atoms: C12_16  and  C13_17 
REMARK   13  A    between atoms: C12_16  and  O12_36 
REMARK   14  A    between atoms: C13_17  and  C14_18 
REMARK   15  A    between atoms: C13_17  and  C24_28 
REMARK   16  A    between atoms: C14_18  and  C15_19 
REMARK   17  A    between atoms: C14_18  and  O14_37 
REMARK   18  A    between atoms: C16_20  and  C17_21 
REMARK   19  A    between atoms: C18_22  and  C19_23 
REMARK   20  A    between atoms: C19_23  and  C26_30 
REMARK   21  A    between atoms: C20_24  and  C21_25 
REMARK   22  A    between atoms: O12_36  and  C23_27 
REMARK   23  A    between atoms: O14_37  and  C25_29 
ROOT
ATOM      1  C11 SMA d   1       2.589 -42.978 -38.574  0.00  0.00    -0.032 C 
ATOM      2  H   SMA d   1       3.115 -42.633 -37.684  0.00  0.00     0.043 H 
ENDROOT
BRANCH   1   3
ATOM      3  C10 SMA d   1       2.354 -41.646 -39.372  0.00  0.00    -0.054 C 
ATOM      4  H   SMA d   1       1.772 -41.884 -40.263  0.00  0.00     0.034 H 
ATOM      5  H   SMA d   1       1.839 -40.945 -38.715  0.00  0.00     0.034 H 
BRANCH   3   6
ATOM      6  C9  SMA d   1       3.657 -41.001 -39.819  0.00  0.00    -0.019 C 
ATOM      7  H   SMA d   1       4.333 -41.069 -38.966  0.00  0.00     0.043 H 
ATOM      8  H   SMA d   1       3.956 -41.527 -40.726  0.00  0.00     0.043 H 
BRANCH   6   9
ATOM      9  C2  SMA d   1       3.599 -39.494 -40.199  0.00  0.00     0.063 A 
ATOM     10  C3  SMA d   1       3.151 -38.896 -41.397  0.00  0.00     0.019 A 
ATOM     11  C4  SMA d   1       3.231 -37.511 -41.588  0.00  0.00     0.196 A 
ATOM     12  C4A SMA d   1       3.810 -36.745 -40.590  0.00  0.00     0.085 A 
ATOM     13  O4  SMA d   1       2.842 -36.968 -42.624  0.00  0.00    -0.287 OA
ATOM     14  C5  SMA d   1       4.047 -35.367 -40.758  0.00  0.00     0.088 A 
ATOM     15  C8A SMA d   1       4.198 -37.379 -39.415  0.00  0.00     0.128 A 
ATOM     16  C6  SMA d   1       4.647 -34.699 -39.686  0.00  0.00    -0.015 A 
ATOM     17  C7  SMA d   1       5.022 -35.336 -38.515  0.00  0.00     0.106 A 
ATOM     18  H   SMA d   1       4.828 -33.628 -39.776  0.00  0.00     0.092 H 
ATOM     19  C8  SMA d   1       4.783 -36.687 -38.373  0.00  0.00     0.134 A 
ATOM     20  O1  SMA d   1       4.079 -38.694 -39.222  0.00  0.00    -0.310 OA
BRANCH  10  21
ATOM     21  C3M SMA d   1       2.566 -39.730 -42.527  0.00  0.00    -0.045 C 
ATOM     22  H   SMA d   1       3.310 -40.449 -42.869  0.00  0.00     0.033 H 
ATOM     23  H   SMA d   1       1.685 -40.261 -42.167  0.00  0.00     0.033 H 
ATOM     24  H   SMA d   1       2.285 -39.075 -43.352  0.00  0.00     0.033 H 
ENDBRANCH  10  21
BRANCH  14  25
ATOM     25  O5  SMA d   1       3.687 -34.652 -41.923  0.00  0.00    -0.355 OA
BRANCH  25  26
ATOM     26  C5M SMA d   1       4.353 -33.352 -42.085  0.00  0.00     0.010 C 
ATOM     27  H   SMA d   1       4.109 -32.712 -41.237  0.00  0.00     0.066 H 
ATOM     28  H   SMA d   1       5.432 -33.501 -42.130  0.00  0.00     0.066 H 
ATOM     29  H   SMA d   1       4.011 -32.882 -43.007  0.00  0.00     0.066 H 
ENDBRANCH  25  26
ENDBRANCH  14  25
BRANCH  17  30
ATOM     30  O7  SMA d   1       5.620 -34.676 -37.471  0.00  0.00    -0.353 OA
BRANCH  30  31
ATOM     31  C7M SMA d   1       5.773 -33.198 -37.522  0.00  0.00     0.010 C 
ATOM     32  H   SMA d   1       6.375 -32.926 -38.389  0.00  0.00     0.066 H 
ATOM     33  H   SMA d   1       4.790 -32.735 -37.602  0.00  0.00     0.066 H 
ATOM     34  H   SMA d   1       6.266 -32.853 -36.613  0.00  0.00     0.066 H 
ENDBRANCH  30  31
ENDBRANCH  17  30
BRANCH  19  35
ATOM     35  O8  SMA d   1       5.175 -37.350 -37.244  0.00  0.00    -0.356 OA
ATOM     36  H   SMA d   1       5.559 -36.725 -36.625  0.00  0.00     0.218 HD
ENDBRANCH  19  35
ENDBRANCH   6   9
ENDBRANCH   3   6
ENDBRANCH   1   3
BRANCH   1  37
ATOM     37  C12 SMA d   1       1.258 -43.681 -38.252  0.00  0.00     0.046 C 
ATOM     38  H   SMA d   1       1.462 -44.532 -37.603  0.00  0.00     0.084 H 
BRANCH  37  39
ATOM     39  C13 SMA d   1       0.192 -42.990 -37.353  0.00  0.00    -0.004 C 
ATOM     40  H   SMA d   1      -0.155 -42.122 -37.914  0.00  0.00     0.047 H 
BRANCH  39  41
ATOM     41  C14 SMA d   1      -0.977 -43.933 -37.068  0.00  0.00     0.059 C 
ATOM     42  H   SMA d   1      -1.373 -44.493 -37.915  0.00  0.00     0.090 H 
BRANCH  41  43
ATOM     43  C15 SMA d   1      -1.983 -43.093 -36.600  0.00  0.00    -0.075 C 
ATOM     44  C16 SMA d   1      -2.366 -43.076 -35.259  0.00  0.00    -0.084 C 
ATOM     45  H   SMA d   1      -1.903 -43.760 -34.548  0.00  0.00     0.083 H 
ATOM     46  H   SMA d   1      -2.487 -42.429 -37.302  0.00  0.00     0.080 H 
BRANCH  44  47
ATOM     47  C17 SMA d   1      -3.344 -42.180 -34.832  0.00  0.00    -0.083 C 
ATOM     48  C18 SMA d   1      -3.753 -42.151 -33.501  0.00  0.00    -0.078 C 
ATOM     49  H   SMA d   1      -3.299 -42.844 -32.792  0.00  0.00     0.084 H 
ATOM     50  H   SMA d   1      -3.795 -41.493 -35.549  0.00  0.00     0.083 H 
BRANCH  48  51
ATOM     51  C19 SMA d   1      -4.730 -41.258 -33.048  0.00  0.00    -0.066 C 
ATOM     52  C20 SMA d   1      -5.097 -41.276 -31.729  0.00  0.00    -0.101 C 
ATOM     53  H   SMA d   1      -4.640 -41.960 -31.014  0.00  0.00     0.077 H 
BRANCH  52  54
ATOM     54  C21 SMA d   1      -6.178 -40.289 -31.318  0.00  0.00    -0.059 C 
ATOM     55  H   SMA d   1      -5.838 -39.274 -31.522  0.00  0.00     0.032 H 
ATOM     56  H   SMA d   1      -7.087 -40.490 -31.886  0.00  0.00     0.032 H 
ATOM     57  H   SMA d   1      -6.382 -40.398 -30.253  0.00  0.00     0.032 H 
ENDBRANCH  52  54
BRANCH  51  58
ATOM     58  C26 SMA d   1      -5.457 -40.247 -33.938  0.00  0.00    -0.051 C 
ATOM     59  H   SMA d   1      -6.527 -40.457 -33.926  0.00  0.00     0.033 H 
ATOM     60  H   SMA d   1      -5.279 -39.240 -33.562  0.00  0.00     0.033 H 
ATOM     61  H   SMA d   1      -5.082 -40.327 -34.958  0.00  0.00     0.033 H 
ENDBRANCH  51  58
ENDBRANCH  48  51
ENDBRANCH  44  47
ENDBRANCH  41  43
BRANCH  41  62
ATOM     62  O14 SMA d   1      -0.499 -44.972 -36.134  0.00  0.00    -0.386 OA
BRANCH  62  63
ATOM     63  C25 SMA d   1      -1.491 -46.012 -36.117  0.00  0.00     0.005 C 
ATOM     64  H   SMA d   1      -2.442 -45.600 -35.781  0.00  0.00     0.066 H 
ATOM     65  H   SMA d   1      -1.605 -46.420 -37.121  0.00  0.00     0.066 H 
ATOM     66  H   SMA d   1      -1.175 -46.803 -35.436  0.00  0.00     0.066 H 
ENDBRANCH  62  63
ENDBRANCH  41  62
ENDBRANCH  39  41
BRANCH  39  67
ATOM     67  C24 SMA d   1       0.761 -42.505 -36.035  0.00  0.00    -0.068 C 
ATOM     68  H   SMA d   1       1.166 -43.352 -35.482  0.00  0.00     0.028 H 
ATOM     69  H   SMA d   1       1.554 -41.783 -36.227  0.00  0.00     0.028 H 
ATOM     70  H   SMA d   1      -0.029 -42.032 -35.452  0.00  0.00     0.028 H 
ENDBRANCH  39  67
ENDBRANCH  37  39
BRANCH  37  71
ATOM     71  O12 SMA d   1       0.743 -43.944 -39.593  0.00  0.00    -0.390 OA
BRANCH  71  72
ATOM     72  C23 SMA d   1       0.413 -45.346 -39.608  0.00  0.00     0.004 C 
ATOM     73  H   SMA d   1       1.309 -45.931 -39.403  0.00  0.00     0.066 H 
ATOM     74  H   SMA d   1      -0.338 -45.549 -38.845  0.00  0.00     0.066 H 
ATOM     75  H   SMA d   1       0.019 -45.615 -40.588  0.00  0.00     0.066 H 
ENDBRANCH  71  72
ENDBRANCH  37  71
ENDBRANCH   1  37
BRANCH   1  76
ATOM     76  C22 SMA d   1       3.453 -44.022 -39.273  0.00  0.00    -0.070 C 
ATOM     77  H   SMA d   1       2.985 -44.307 -40.215  0.00  0.00     0.028 H 
ATOM     78  H   SMA d   1       4.440 -43.603 -39.468  0.00  0.00     0.028 H 
ATOM     79  H   SMA d   1       3.549 -44.899 -38.633  0.00  0.00     0.028 H 
ENDBRANCH   1  76
TORSDOF 23
