REMARK  4 active torsions:
REMARK  status: ('A' for Active; 'I' for Inactive)
REMARK    1  A    between atoms: N_2  and  C1_3 
REMARK    2  A    between atoms: C1_3  and  C2_4 
REMARK    3  A    between atoms: C2_4  and  C3_5 
REMARK    4  A    between atoms: C3_5  and  C4_6 
ROOT
ATOM      1  C2  NBN d   1      59.839   6.025  34.844  0.00  0.00    -0.049 C 
ATOM      2  H5  NBN d   1      60.102   5.126  35.421  0.00  0.00     0.035 H 
ATOM      3  H6  NBN d   1      60.646   6.767  34.934  0.00  0.00     0.035 H 
ENDROOT
BRANCH   1   4
ATOM      4  C1  NBN d   1      58.616   6.631  35.519  0.00  0.00     0.013 C 
ATOM      5  H3  NBN d   1      58.773   6.486  36.598  0.00  0.00     0.067 H 
ATOM      6  H4  NBN d   1      58.651   7.705  35.284  0.00  0.00     0.067 H 
BRANCH   4   7
ATOM      7  N   NBN d   1      57.248   6.223  35.267  0.00  0.00    -0.312 NA
ATOM      8  C   NBN d   1      56.327   5.316  35.400  0.00  0.00    -0.049 C 
ATOM      9  H1  NBN d   1      55.332   5.487  34.993  0.00  0.00     0.095 H 
ATOM     10  H2  NBN d   1      56.551   4.385  35.919  0.00  0.00     0.095 H 
ENDBRANCH   4   7
ENDBRANCH   1   4
BRANCH   1  11
ATOM     11  C3  NBN d   1      59.798   5.605  33.382  0.00  0.00    -0.067 C 
ATOM     12  H7  NBN d   1      59.594   6.483  32.752  0.00  0.00     0.032 H 
ATOM     13  H8  NBN d   1      59.005   4.856  33.236  0.00  0.00     0.032 H 
BRANCH  11  14
ATOM     14  C4  NBN d   1      61.144   5.004  32.998  0.00  0.00    -0.076 C 
ATOM     15  H9  NBN d   1      61.121   4.698  31.942  0.00  0.00     0.027 H 
ATOM     16  H10 NBN d   1      61.347   4.127  33.629  0.00  0.00     0.027 H 
ATOM     17  H11 NBN d   1      61.936   5.753  33.146  0.00  0.00     0.027 H 
ENDBRANCH  11  14
ENDBRANCH   1  11
TORSDOF 4
