REMARK  13 active torsions:
REMARK  status: ('A' for Active; 'I' for Inactive)
REMARK    1  A    between atoms: C1_1  and  C2_2 
REMARK    2  A    between atoms: C2_2  and  C3_3 
REMARK    3  A    between atoms: C2_2  and  C4_4 
REMARK    4  A    between atoms: C10_10  and  S11_11 
REMARK    5  A    between atoms: S11_11  and  C12_12 
REMARK    6  A    between atoms: C17_17  and  C18_18 
REMARK    7  A    between atoms: C18_18  and  N19_19 
REMARK       I    between atoms: N19_19  and  C20_20 
REMARK       I    between atoms: C20_20  and  N22_22 
REMARK    8  A    between atoms: N22_22  and  C23_23 
REMARK    9  A    between atoms: C25_25  and  C34_34 
REMARK   10  A    between atoms: N27_27  and  C28_28 
REMARK   11  A    between atoms: C34_34  and  C35_35 
REMARK   12  A    between atoms: C34_34  and  C36_36 
REMARK   13  A    between atoms: C34_34  and  C37_37 
ROOT
ATOM      1  C18 YIW d   1      -2.532   2.330  17.092  0.00  0.00     0.022 C 
ATOM      2  H14 YIW d   1      -1.716   1.596  17.155  0.00  0.00     0.071 H 
ATOM      3  H15 YIW d   1      -2.464   3.027  17.940  0.00  0.00     0.071 H 
ENDROOT
BRANCH   1   4
ATOM      4  C17 YIW d   1      -3.805   1.585  17.237  0.00  0.00    -0.023 A 
ATOM      5  C12 YIW d   1      -4.086   0.989  18.473  0.00  0.00     0.013 A 
ATOM      6  C13 YIW d   1      -5.306   0.233  18.595  0.00  0.00    -0.066 A 
ATOM      7  C14 YIW d   1      -6.145   0.057  17.523  0.00  0.00    -0.082 A 
ATOM      8  H10 YIW d   1      -5.566  -0.205  19.552  0.00  0.00     0.085 H 
ATOM      9  C15 YIW d   1      -5.802   0.630  16.300  0.00  0.00    -0.082 A 
ATOM     10  H11 YIW d   1      -7.058  -0.518  17.626  0.00  0.00     0.083 H 
ATOM     11  C16 YIW d   1      -4.651   1.427  16.155  0.00  0.00    -0.074 A 
ATOM     12  H12 YIW d   1      -6.437   0.458  15.439  0.00  0.00     0.083 H 
ATOM     13  H13 YIW d   1      -4.431   1.909  15.210  0.00  0.00     0.084 H 
BRANCH   5  14
ATOM     14  S11 YIW d   1      -2.934   1.200  19.817  0.00  0.00    -0.089 SA
BRANCH  14  15
ATOM     15  C10 YIW d   1      -2.633  -0.450  20.292  0.00  0.00     0.021 A 
ATOM     16  C9  YIW d   1      -2.737  -1.521  19.397  0.00  0.00    -0.061 A 
ATOM     17  C8  YIW d   1      -2.484  -2.842  19.800  0.00  0.00    -0.035 A 
ATOM     18  H9  YIW d   1      -3.021  -1.325  18.364  0.00  0.00     0.085 H 
ATOM     19  C7  YIW d   1      -2.125  -3.054  21.150  0.00  0.00     0.157 A 
ATOM     20  H8  YIW d   1      -2.562  -3.672  19.099  0.00  0.00     0.089 H 
ATOM     21  N6  YIW d   1      -1.814  -4.126  21.820  0.00  0.00    -0.130 NA
ATOM     22  N39 YIW d   1      -2.025  -1.986  22.016  0.00  0.00    -0.290 N 
ATOM     23  N5  YIW d   1      -1.533  -3.804  23.035  0.00  0.00    -0.134 NA
ATOM     24  C4  YIW d   1      -1.654  -2.496  23.218  0.00  0.00     0.138 A 
ATOM     25  C38 YIW d   1      -2.292  -0.677  21.581  0.00  0.00     0.005 A 
ATOM     26  H33 YIW d   1      -2.224   0.154  22.281  0.00  0.00     0.114 H 
BRANCH  24  27
ATOM     27  C2  YIW d   1      -1.383  -1.713  24.501  0.00  0.00    -0.001 C 
ATOM     28  H4  YIW d   1      -0.641  -0.924  24.309  0.00  0.00     0.051 H 
BRANCH  27  29
ATOM     29  C1  YIW d   1      -2.677  -1.147  25.057  0.00  0.00    -0.066 C 
ATOM     30  H1  YIW d   1      -2.466  -0.587  25.980  0.00  0.00     0.028 H 
ATOM     31  H2  YIW d   1      -3.372  -1.970  25.279  0.00  0.00     0.028 H 
ATOM     32  H3  YIW d   1      -3.131  -0.474  24.315  0.00  0.00     0.028 H 
ENDBRANCH  27  29
BRANCH  27  33
ATOM     33  C3  YIW d   1      -0.937  -2.645  25.640  0.00  0.00    -0.066 C 
ATOM     34  H5  YIW d   1       0.010  -3.132  25.365  0.00  0.00     0.028 H 
ATOM     35  H6  YIW d   1      -1.708  -3.411  25.810  0.00  0.00     0.028 H 
ATOM     36  H7  YIW d   1      -0.794  -2.058  26.559  0.00  0.00     0.028 H 
ENDBRANCH  27  33
ENDBRANCH  24  27
ENDBRANCH  14  15
ENDBRANCH   5  14
ENDBRANCH   1   4
BRANCH   1  37
ATOM     37  N19 YIW d   1      -2.317   3.124  15.849  0.00  0.00    -0.339 N 
ATOM     38  C20 YIW d   1      -1.208   2.896  15.139  0.00  0.00     0.322 C 
ATOM     39  O21 YIW d   1      -0.293   2.051  15.461  0.00  0.00    -0.247 OA
ATOM     40  N22 YIW d   1      -0.934   3.704  14.164  0.00  0.00    -0.293 N 
ATOM     41  H17 YIW d   1      -1.582   4.447  13.995  0.00  0.00     0.172 HD
ATOM     42  H16 YIW d   1      -2.984   3.808  15.555  0.00  0.00     0.164 HD
BRANCH  40  43
ATOM     43  C23 YIW d   1       0.194   3.633  13.319  0.00  0.00     0.135 C 
ATOM     44  C24 YIW d   1       1.093   2.626  13.060  0.00  0.00    -0.012 C 
ATOM     45  C25 YIW d   1       2.064   3.138  12.153  0.00  0.00     0.066 C 
ATOM     46  H18 YIW d   1       1.067   1.619  13.474  0.00  0.00     0.092 H 
ATOM     47  N26 YIW d   1       1.755   4.357  11.974  0.00  0.00    -0.169 NA
ATOM     48  N27 YIW d   1       0.557   4.674  12.592  0.00  0.00    -0.217 N 
BRANCH  45  49
ATOM     49  C34 YIW d   1       3.254   2.438  11.547  0.00  0.00    -0.005 C 
BRANCH  49  50
ATOM     50  C35 YIW d   1       2.765   1.497  10.446  0.00  0.00    -0.064 C 
ATOM     51  H24 YIW d   1       3.626   0.980   9.996  0.00  0.00     0.028 H 
ATOM     52  H25 YIW d   1       2.241   2.078   9.673  0.00  0.00     0.028 H 
ATOM     53  H26 YIW d   1       2.076   0.755  10.877  0.00  0.00     0.028 H 
ENDBRANCH  49  50
BRANCH  49  54
ATOM     54  C36 YIW d   1       4.297   3.407  10.979  0.00  0.00    -0.064 C 
ATOM     55  H27 YIW d   1       4.644   4.081  11.776  0.00  0.00     0.028 H 
ATOM     56  H28 YIW d   1       3.845   3.999  10.170  0.00  0.00     0.028 H 
ATOM     57  H29 YIW d   1       5.150   2.837  10.584  0.00  0.00     0.028 H 
ENDBRANCH  49  54
BRANCH  49  58
ATOM     58  C37 YIW d   1       3.923   1.592  12.556  0.00  0.00    -0.064 C 
ATOM     59  H30 YIW d   1       3.196   0.885  12.982  0.00  0.00     0.028 H 
ATOM     60  H31 YIW d   1       4.328   2.228  13.357  0.00  0.00     0.028 H 
ATOM     61  H32 YIW d   1       4.743   1.033  12.081  0.00  0.00     0.028 H 
ENDBRANCH  49  58
ENDBRANCH  45  49
BRANCH  48  62
ATOM     62  C28 YIW d   1       0.026   5.998  12.604  0.00  0.00     0.060 A 
ATOM     63  C29 YIW d   1      -0.011   6.769  11.405  0.00  0.00    -0.055 A 
ATOM     64  C30 YIW d   1      -0.520   8.070  11.439  0.00  0.00    -0.081 A 
ATOM     65  H19 YIW d   1       0.353   6.349  10.474  0.00  0.00     0.087 H 
ATOM     66  C31 YIW d   1      -0.946   8.610  12.635  0.00  0.00    -0.083 A 
ATOM     67  H20 YIW d   1      -0.580   8.654  10.528  0.00  0.00     0.083 H 
ATOM     68  C32 YIW d   1      -0.914   7.879  13.819  0.00  0.00    -0.081 A 
ATOM     69  H21 YIW d   1      -1.315   9.629  12.653  0.00  0.00     0.083 H 
ATOM     70  C33 YIW d   1      -0.396   6.572  13.782  0.00  0.00    -0.055 A 
ATOM     71  H22 YIW d   1      -1.279   8.306  14.746  0.00  0.00     0.083 H 
ATOM     72  H23 YIW d   1      -0.327   6.003  14.702  0.00  0.00     0.087 H 
ENDBRANCH  48  62
ENDBRANCH  40  43
ENDBRANCH   1  37
TORSDOF 13
