REMARK  7 active torsions:
REMARK  status: ('A' for Active; 'I' for Inactive)
REMARK    1  A    between atoms: C1_1  and  C6_6 
REMARK       I    between atoms: N2_2  and  C21_21 
REMARK    2  A    between atoms: C4_4  and  S8_8 
REMARK       I    between atoms: C6_6  and  N16_16 
REMARK    3  A    between atoms: S8_8  and  C9_9 
REMARK    4  A    between atoms: N16_16  and  C17_17 
REMARK    5  A    between atoms: C17_17  and  C18_18 
REMARK    6  A    between atoms: C21_21  and  C23_23 
REMARK    7  A    between atoms: C23_23  and  C24_24 
ROOT
ATOM      1  C1  YJ2 d   1       8.128  35.498  20.904  0.00  0.00     0.093 C 
ATOM      2  N2  YJ2 d   1       8.278  35.925  19.521  0.00  0.00    -0.336 N 
ATOM      3  C3  YJ2 d   1       9.227  35.111  18.767  0.00  0.00     0.015 C 
ATOM      4  C4  YJ2 d   1       9.439  33.895  19.691  0.00  0.00     0.067 C 
ATOM      5  C5  YJ2 d   1       9.233  34.460  21.100  0.00  0.00    -0.020 C 
ATOM      6  C21 YJ2 d   1       7.389  36.800  18.957  0.00  0.00     0.234 C 
ATOM      7  O22 YJ2 d   1       6.461  37.213  19.665  0.00  0.00    -0.272 OA
ATOM      8  H   YJ2 d   1       7.119  35.120  21.067  0.00  0.00     0.087 H 
ATOM      9  H   YJ2 d   1      10.153  35.639  18.539  0.00  0.00     0.066 H 
ATOM     10  H   YJ2 d   1       8.860  34.835  17.779  0.00  0.00     0.066 H 
ATOM     11  H   YJ2 d   1      10.421  33.458  19.513  0.00  0.00     0.067 H 
ATOM     12  H   YJ2 d   1       8.964  33.692  21.825  0.00  0.00     0.038 H 
ATOM     13  H   YJ2 d   1      10.144  34.890  21.517  0.00  0.00     0.038 H 
ENDROOT
BRANCH   1  14
ATOM     14  C6  YJ2 d   1       8.283  36.622  21.935  0.00  0.00     0.241 C 
ATOM     15  O7  YJ2 d   1       9.328  37.288  22.001  0.00  0.00    -0.271 OA
ATOM     16  N16 YJ2 d   1       7.215  36.780  22.751  0.00  0.00    -0.345 N 
ATOM     17  H   YJ2 d   1       6.374  36.241  22.544  0.00  0.00     0.163 HD
BRANCH  16  18
ATOM     18  C17 YJ2 d   1       7.187  37.642  23.870  0.00  0.00     0.066 A 
ATOM     19  C19 YJ2 d   1       7.388  39.147  23.580  0.00  0.00    -0.034 A 
ATOM     20  C20 YJ2 d   1       6.021  38.637  23.897  0.00  0.00    -0.034 A 
ATOM     21  H   YJ2 d   1       7.868  39.773  22.828  0.00  0.00     0.037 H 
ATOM     22  H   YJ2 d   1       8.048  39.955  23.897  0.00  0.00     0.037 H 
ATOM     23  H   YJ2 d   1       5.199  38.897  24.564  0.00  0.00     0.037 H 
ATOM     24  H   YJ2 d   1       5.016  38.712  23.481  0.00  0.00     0.037 H 
BRANCH  18  25
ATOM     25  C18 YJ2 d   1       7.716  37.069  25.113  0.00  0.00     0.000 C 
ATOM     26  N35 YJ2 d   1       7.692  37.640  26.259  0.00  0.00    -0.314 NA
ATOM     27  H   YJ2 d   1       7.281  38.568  26.358  0.00  0.00     0.185 HD
ATOM     28  H   YJ2 d   1       8.165  36.078  25.056  0.00  0.00     0.110 H 
ENDBRANCH  18  25
ENDBRANCH  16  18
ENDBRANCH   1  14
BRANCH   6  29
ATOM     29  C23 YJ2 d   1       7.599  37.207  17.519  0.00  0.00     0.068 A 
ATOM     30  C31 YJ2 d   1       6.890  36.336  16.488  0.00  0.00    -0.044 A 
ATOM     31  C32 YJ2 d   1       6.396  37.720  16.775  0.00  0.00    -0.044 A 
ATOM     32  H   YJ2 d   1       6.492  35.325  16.404  0.00  0.00     0.035 H 
ATOM     33  H   YJ2 d   1       7.140  35.717  15.626  0.00  0.00     0.035 H 
ATOM     34  H   YJ2 d   1       6.111  38.610  16.214  0.00  0.00     0.035 H 
ATOM     35  H   YJ2 d   1       5.450  38.209  17.006  0.00  0.00     0.035 H 
BRANCH  29  36
ATOM     36  C24 YJ2 d   1       8.958  37.770  17.290  0.00  0.00    -0.040 A 
ATOM     37  C25 YJ2 d   1       9.388  38.864  18.039  0.00  0.00    -0.074 A 
ATOM     38  C26 YJ2 d   1      10.652  39.396  17.862  0.00  0.00    -0.066 A 
ATOM     39  H   YJ2 d   1       8.718  39.307  18.776  0.00  0.00     0.084 H 
ATOM     40  C27 YJ2 d   1      11.532  38.805  16.950  0.00  0.00     0.011 A 
ATOM     41  H   YJ2 d   1      10.961  40.273  18.431  0.00  0.00     0.085 H 
ATOM     42  C28 YJ2 d   1      11.126  37.700  16.223  0.00  0.00    -0.066 A 
ATOM     43 BR3  YJ2 d   1      13.331  39.525  16.793  0.00  0.00    -0.051 Br
ATOM     44  C29 YJ2 d   1       9.853  37.170  16.393  0.00  0.00    -0.074 A 
ATOM     45  H   YJ2 d   1      11.811  37.241  15.510  0.00  0.00     0.085 H 
ATOM     46  H   YJ2 d   1       9.550  36.288  15.829  0.00  0.00     0.084 H 
ENDBRANCH  29  36
ENDBRANCH   6  29
BRANCH   4  47
ATOM     47  S8  YJ2 d   1       8.307  32.575  19.419  0.00  0.00     0.182 S 
ATOM     48  O33 YJ2 d   1       8.647  31.530  20.340  0.00  0.00    -0.222 OA
ATOM     49  O34 YJ2 d   1       6.991  33.102  19.481  0.00  0.00    -0.222 OA
BRANCH  47  50
ATOM     50  C9  YJ2 d   1       8.614  32.114  17.793  0.00  0.00     0.081 A 
ATOM     51  C10 YJ2 d   1       9.747  31.453  17.311  0.00  0.00     0.055 A 
ATOM     52  C11 YJ2 d   1       9.897  31.129  15.958  0.00  0.00    -0.060 A 
ATOM     53 CL1  YJ2 d   1      10.971  30.968  18.371  0.00  0.00    -0.083 Cl
ATOM     54  C12 YJ2 d   1       8.914  31.498  15.050  0.00  0.00    -0.081 A 
ATOM     55  H   YJ2 d   1      10.781  30.590  15.619  0.00  0.00     0.086 H 
ATOM     56  C13 YJ2 d   1       7.785  32.168  15.499  0.00  0.00    -0.081 A 
ATOM     57  H   YJ2 d   1       9.028  31.263  13.992  0.00  0.00     0.083 H 
ATOM     58  C14 YJ2 d   1       7.642  32.463  16.849  0.00  0.00    -0.060 A 
ATOM     59  H   YJ2 d   1       7.010  32.463  14.792  0.00  0.00     0.083 H 
ATOM     60  H   YJ2 d   1       6.744  32.983  17.183  0.00  0.00     0.085 H 
ENDBRANCH  47  50
ENDBRANCH   4  47
TORSDOF 7
