REMARK  7 active torsions:
REMARK  status: ('A' for Active; 'I' for Inactive)
REMARK    1  A    between atoms: C1_1  and  C6_6 
REMARK       I    between atoms: N2_2  and  C21_21 
REMARK    2  A    between atoms: C4_4  and  S8_8 
REMARK       I    between atoms: C6_6  and  N16_16 
REMARK    3  A    between atoms: S8_8  and  C9_9 
REMARK    4  A    between atoms: N16_16  and  C17_17 
REMARK    5  A    between atoms: C17_17  and  C18_18 
REMARK    6  A    between atoms: C21_21  and  C23_23 
REMARK    7  A    between atoms: C23_23  and  C24_24 
ROOT
ATOM      1  C1  YJ8 d   1       8.279  35.824  20.984  0.00  0.00     0.093 C 
ATOM      2  N2  YJ8 d   1       8.458  36.244  19.621  0.00  0.00    -0.336 N 
ATOM      3  C3  YJ8 d   1       9.467  35.442  18.961  0.00  0.00     0.015 C 
ATOM      4  C4  YJ8 d   1       9.632  34.174  19.840  0.00  0.00     0.067 C 
ATOM      5  C5  YJ8 d   1       9.383  34.768  21.209  0.00  0.00    -0.020 C 
ATOM      6  C21 YJ8 d   1       7.563  37.104  19.026  0.00  0.00     0.234 C 
ATOM      7  O22 YJ8 d   1       6.659  37.559  19.775  0.00  0.00    -0.272 OA
ATOM      8  H   YJ8 d   1       7.263  35.457  21.130  0.00  0.00     0.087 H 
ATOM      9  H   YJ8 d   1      10.407  35.985  18.864  0.00  0.00     0.066 H 
ATOM     10  H   YJ8 d   1       9.170  35.186  17.944  0.00  0.00     0.066 H 
ATOM     11  H   YJ8 d   1      10.592  33.688  19.666  0.00  0.00     0.067 H 
ATOM     12  H   YJ8 d   1       9.080  34.011  21.932  0.00  0.00     0.038 H 
ATOM     13  H   YJ8 d   1      10.286  35.208  21.631  0.00  0.00     0.038 H 
ENDROOT
BRANCH   1  14
ATOM     14  C6  YJ8 d   1       8.461  36.954  22.002  0.00  0.00     0.241 C 
ATOM     15  O7  YJ8 d   1       9.523  37.617  22.101  0.00  0.00    -0.271 OA
ATOM     16  N16 YJ8 d   1       7.370  37.078  22.811  0.00  0.00    -0.345 N 
ATOM     17  H   YJ8 d   1       6.532  36.544  22.579  0.00  0.00     0.163 HD
BRANCH  16  18
ATOM     18  C17 YJ8 d   1       7.340  37.901  23.945  0.00  0.00     0.066 A 
ATOM     19  C19 YJ8 d   1       7.593  39.391  23.716  0.00  0.00    -0.034 A 
ATOM     20  C20 YJ8 d   1       6.223  38.932  24.081  0.00  0.00    -0.034 A 
ATOM     21  H   YJ8 d   1       8.063  40.029  22.967  0.00  0.00     0.037 H 
ATOM     22  H   YJ8 d   1       8.306  40.151  24.035  0.00  0.00     0.037 H 
ATOM     23  H   YJ8 d   1       5.445  39.194  24.798  0.00  0.00     0.037 H 
ATOM     24  H   YJ8 d   1       5.201  39.071  23.728  0.00  0.00     0.037 H 
BRANCH  18  25
ATOM     25  C18 YJ8 d   1       7.830  37.273  25.184  0.00  0.00     0.000 C 
ATOM     26  N35 YJ8 d   1       7.768  37.856  26.334  0.00  0.00    -0.314 NA
ATOM     27  H   YJ8 d   1       7.367  38.791  26.411  0.00  0.00     0.185 HD
ATOM     28  H   YJ8 d   1       8.263  36.274  25.127  0.00  0.00     0.110 H 
ENDBRANCH  18  25
ENDBRANCH  16  18
ENDBRANCH   1  14
BRANCH   6  29
ATOM     29  C23 YJ8 d   1       7.768  37.527  17.594  0.00  0.00     0.068 A 
ATOM     30  C31 YJ8 d   1       7.092  36.650  16.570  0.00  0.00    -0.044 A 
ATOM     31  C32 YJ8 d   1       6.605  38.051  16.813  0.00  0.00    -0.044 A 
ATOM     32  H   YJ8 d   1       6.686  35.641  16.492  0.00  0.00     0.035 H 
ATOM     33  H   YJ8 d   1       7.363  36.009  15.731  0.00  0.00     0.035 H 
ATOM     34  H   YJ8 d   1       6.347  38.936  16.231  0.00  0.00     0.035 H 
ATOM     35  H   YJ8 d   1       5.662  38.564  17.002  0.00  0.00     0.035 H 
BRANCH  29  36
ATOM     36  C24 YJ8 d   1       9.109  38.083  17.381  0.00  0.00    -0.040 A 
ATOM     37  C25 YJ8 d   1       9.556  39.154  18.187  0.00  0.00    -0.074 A 
ATOM     38  C26 YJ8 d   1      10.828  39.646  17.992  0.00  0.00    -0.066 A 
ATOM     39  H   YJ8 d   1       8.906  39.583  18.950  0.00  0.00     0.084 H 
ATOM     40  C27 YJ8 d   1      11.662  39.061  17.054  0.00  0.00     0.006 A 
ATOM     41  H   YJ8 d   1      11.178  40.497  18.577  0.00  0.00     0.085 H 
ATOM     42  C28 YJ8 d   1      11.256  37.988  16.281  0.00  0.00    -0.066 A 
ATOM     43  I30 YJ8 d   1      13.594  39.832  16.857  0.00  0.00    -0.045 I 
ATOM     44  C29 YJ8 d   1       9.971  37.480  16.446  0.00  0.00    -0.074 A 
ATOM     45  H   YJ8 d   1      11.934  37.546  15.552  0.00  0.00     0.085 H 
ATOM     46  H   YJ8 d   1       9.636  36.625  15.858  0.00  0.00     0.084 H 
ENDBRANCH  29  36
ENDBRANCH   6  29
BRANCH   4  47
ATOM     47  S8  YJ8 d   1       8.518  32.868  19.537  0.00  0.00     0.182 S 
ATOM     48  O33 YJ8 d   1       8.851  31.850  20.487  0.00  0.00    -0.222 OA
ATOM     49  O34 YJ8 d   1       7.193  33.349  19.607  0.00  0.00    -0.222 OA
BRANCH  47  50
ATOM     50  C9  YJ8 d   1       8.847  32.386  17.948  0.00  0.00     0.081 A 
ATOM     51  C10 YJ8 d   1       9.986  31.759  17.515  0.00  0.00     0.055 A 
ATOM     52  C11 YJ8 d   1      10.198  31.398  16.192  0.00  0.00    -0.060 A 
ATOM     53 CL   YJ8 d   1      11.200  31.340  18.570  0.00  0.00    -0.083 Cl
ATOM     54  C12 YJ8 d   1       9.252  31.685  15.218  0.00  0.00    -0.081 A 
ATOM     55  H   YJ8 d   1      11.118  30.883  15.915  0.00  0.00     0.086 H 
ATOM     56  C13 YJ8 d   1       8.084  32.335  15.607  0.00  0.00    -0.081 A 
ATOM     57  H   YJ8 d   1       9.419  31.409  14.177  0.00  0.00     0.083 H 
ATOM     58  C14 YJ8 d   1       7.899  32.672  16.944  0.00  0.00    -0.060 A 
ATOM     59  H   YJ8 d   1       7.320  32.578  14.869  0.00  0.00     0.083 H 
ATOM     60  H   YJ8 d   1       6.978  33.181  17.229  0.00  0.00     0.085 H 
ENDBRANCH  47  50
ENDBRANCH   4  47
TORSDOF 7
