REMARK  8 active torsions:
REMARK  status: ('A' for Active; 'I' for Inactive)
REMARK    1  A    between atoms: C1_1  and  C2_2 
REMARK       I    between atoms: C2_2  and  N3_3 
REMARK    2  A    between atoms: N3_3  and  C4_4 
REMARK    3  A    between atoms: C4_4  and  C5_5 
REMARK       I    between atoms: C24_24  and  N10_10 
REMARK    4  A    between atoms: C12_12  and  S14_14 
REMARK    5  A    between atoms: S14_14  and  C15_15 
REMARK    6  A    between atoms: C27_27  and  C24_24 
REMARK    7  A    between atoms: C33_33  and  C27_27 
REMARK    8  A    between atoms: C30_30  and  C35_35 
ROOT
ATOM      1  C1  YJ9 d   1       8.204  35.599  21.249  0.00  0.00     0.093 C 
ATOM      2  N10 YJ9 d   1       8.344  36.031  19.884  0.00  0.00    -0.336 N 
ATOM      3  C11 YJ9 d   1       9.313  35.215  19.176  0.00  0.00     0.015 C 
ATOM      4  C12 YJ9 d   1       9.529  33.982  20.084  0.00  0.00     0.067 C 
ATOM      5  C13 YJ9 d   1       9.317  34.571  21.467  0.00  0.00    -0.020 C 
ATOM      6  C24 YJ9 d   1       7.415  36.881  19.348  0.00  0.00     0.234 C 
ATOM      7  O25 YJ9 d   1       6.487  37.290  20.093  0.00  0.00    -0.272 OA
ATOM      8  H   YJ9 d   1       7.193  35.215  21.385  0.00  0.00     0.087 H 
ATOM      9  H   YJ9 d   1      10.243  35.754  18.995  0.00  0.00     0.066 H 
ATOM     10  H   YJ9 d   1       8.959  34.932  18.185  0.00  0.00     0.066 H 
ATOM     11  H   YJ9 d   1      10.504  33.530  19.898  0.00  0.00     0.067 H 
ATOM     12  H   YJ9 d   1       9.050  33.816  22.207  0.00  0.00     0.038 H 
ATOM     13  H   YJ9 d   1      10.224  35.017  21.875  0.00  0.00     0.038 H 
ENDROOT
BRANCH   1  14
ATOM     14  C2  YJ9 d   1       8.368  36.711  22.294  0.00  0.00     0.241 C 
ATOM     15  N3  YJ9 d   1       7.317  36.830  23.170  0.00  0.00    -0.345 N 
ATOM     16  H   YJ9 d   1       6.509  36.224  23.029  0.00  0.00     0.163 HD
ATOM     17  O6  YJ9 d   1       9.413  37.393  22.346  0.00  0.00    -0.271 OA
BRANCH  15  18
ATOM     18  C4  YJ9 d   1       7.282  37.735  24.251  0.00  0.00     0.066 A 
ATOM     19  C7  YJ9 d   1       7.519  39.227  24.067  0.00  0.00    -0.034 A 
ATOM     20  C8  YJ9 d   1       6.137  38.730  24.365  0.00  0.00    -0.034 A 
ATOM     21  H   YJ9 d   1       8.009  39.891  23.355  0.00  0.00     0.037 H 
ATOM     22  H   YJ9 d   1       8.204  39.993  24.430  0.00  0.00     0.037 H 
ATOM     23  H   YJ9 d   1       5.322  38.957  25.052  0.00  0.00     0.037 H 
ATOM     24  H   YJ9 d   1       5.126  38.855  23.976  0.00  0.00     0.037 H 
BRANCH  18  25
ATOM     25  C5  YJ9 d   1       7.798  37.119  25.476  0.00  0.00     0.000 C 
ATOM     26  N9  YJ9 d   1       7.786  37.614  26.675  0.00  0.00    -0.314 NA
ATOM     27  H   YJ9 d   1       7.383  38.536  26.842  0.00  0.00     0.185 HD
ATOM     28  H   YJ9 d   1       8.244  36.130  25.367  0.00  0.00     0.110 H 
ENDBRANCH  18  25
ENDBRANCH  15  18
ENDBRANCH   1  14
BRANCH   6  29
ATOM     29  C27 YJ9 d   1       7.550  37.256  17.901  0.00  0.00     0.068 A 
ATOM     30  C26 YJ9 d   1       6.869  36.283  16.970  0.00  0.00    -0.044 A 
ATOM     31  C28 YJ9 d   1       6.308  37.660  17.160  0.00  0.00    -0.044 A 
ATOM     32  H   YJ9 d   1       6.522  35.250  16.977  0.00  0.00     0.035 H 
ATOM     33  H   YJ9 d   1       7.132  35.612  16.152  0.00  0.00     0.035 H 
ATOM     34  H   YJ9 d   1       5.346  38.125  17.376  0.00  0.00     0.035 H 
ATOM     35  H   YJ9 d   1       5.961  38.490  16.544  0.00  0.00     0.035 H 
BRANCH  29  36
ATOM     36  C33 YJ9 d   1       8.880  37.854  17.616  0.00  0.00    -0.040 A 
ATOM     37  C32 YJ9 d   1       9.278  38.974  18.347  0.00  0.00    -0.075 A 
ATOM     38  C31 YJ9 d   1      10.518  39.568  18.151  0.00  0.00    -0.068 A 
ATOM     39  H   YJ9 d   1       8.599  39.393  19.090  0.00  0.00     0.084 H 
ATOM     40  C30 YJ9 d   1      11.390  39.033  17.219  0.00  0.00     0.047 A 
ATOM     41  H   YJ9 d   1      10.802  40.449  18.727  0.00  0.00     0.084 H 
ATOM     42  C29 YJ9 d   1      11.027  37.908  16.464  0.00  0.00    -0.068 A 
ATOM     43  C34 YJ9 d   1       9.770  37.325  16.659  0.00  0.00    -0.075 A 
ATOM     44  H   YJ9 d   1      11.718  37.491  15.732  0.00  0.00     0.084 H 
ATOM     45  H   YJ9 d   1       9.477  36.457  16.068  0.00  0.00     0.084 H 
BRANCH  40  46
ATOM     46  C35 YJ9 d   1      12.731  39.709  17.018  0.00  0.00     0.417 C 
ATOM     47  F36 YJ9 d   1      13.146  40.471  18.032  0.00  0.00    -0.166 F 
ATOM     48  F37 YJ9 d   1      13.760  38.876  16.840  0.00  0.00    -0.166 F 
ATOM     49  F38 YJ9 d   1      12.726  40.536  15.970  0.00  0.00    -0.166 F 
ENDBRANCH  40  46
ENDBRANCH  29  36
ENDBRANCH   6  29
BRANCH   4  50
ATOM     50  S14 YJ9 d   1       8.452  32.658  19.822  0.00  0.00     0.182 S 
ATOM     51  O22 YJ9 d   1       8.850  31.635  20.720  0.00  0.00    -0.222 OA
ATOM     52  O23 YJ9 d   1       7.130  33.145  19.907  0.00  0.00    -0.222 OA
BRANCH  50  53
ATOM     53  C15 YJ9 d   1       8.744  32.211  18.197  0.00  0.00     0.081 A 
ATOM     54  C16 YJ9 d   1       9.889  31.565  17.711  0.00  0.00     0.055 A 
ATOM     55  C17 YJ9 d   1      10.097  31.211  16.374  0.00  0.00    -0.060 A 
ATOM     56 CL   YJ9 d   1      11.115  31.122  18.762  0.00  0.00    -0.083 Cl
ATOM     57  C18 YJ9 d   1       9.140  31.533  15.431  0.00  0.00    -0.081 A 
ATOM     58  H   YJ9 d   1      11.005  30.686  16.079  0.00  0.00     0.086 H 
ATOM     59  C19 YJ9 d   1       7.987  32.182  15.849  0.00  0.00    -0.081 A 
ATOM     60  H   YJ9 d   1       9.288  31.282  14.380  0.00  0.00     0.083 H 
ATOM     61  C20 YJ9 d   1       7.789  32.513  17.180  0.00  0.00    -0.060 A 
ATOM     62  H   YJ9 d   1       7.222  32.437  15.116  0.00  0.00     0.083 H 
ATOM     63  H   YJ9 d   1       6.868  33.024  17.461  0.00  0.00     0.085 H 
ENDBRANCH  50  53
ENDBRANCH   4  50
TORSDOF 8
