REMARK  8 active torsions:
REMARK  status: ('A' for Active; 'I' for Inactive)
REMARK    1  A    between atoms: C1_1  and  C2_2 
REMARK       I    between atoms: C2_2  and  N3_3 
REMARK    2  A    between atoms: N3_3  and  C4_4 
REMARK    3  A    between atoms: C4_4  and  C5_5 
REMARK       I    between atoms: C24_24  and  N10_10 
REMARK    4  A    between atoms: C12_12  and  S14_14 
REMARK    5  A    between atoms: S14_14  and  C15_15 
REMARK    6  A    between atoms: C27_27  and  C24_24 
REMARK    7  A    between atoms: C33_33  and  C27_27 
REMARK    8  A    between atoms: C30_30  and  C35_35 
ROOT
ATOM      1  C1  YJ9 d   1       8.981   7.467 -14.628  0.00  0.00     0.093 C 
ATOM      2  N10 YJ9 d   1       9.167   7.951 -15.980  0.00  0.00    -0.336 N 
ATOM      3  C11 YJ9 d   1      10.126   7.137 -16.689  0.00  0.00     0.015 C 
ATOM      4  C12 YJ9 d   1      10.308   5.876 -15.867  0.00  0.00     0.067 C 
ATOM      5  C13 YJ9 d   1      10.061   6.378 -14.455  0.00  0.00    -0.020 C 
ATOM      6  C24 YJ9 d   1       8.301   8.848 -16.548  0.00  0.00     0.234 C 
ATOM      7  O25 YJ9 d   1       7.347   9.285 -15.885  0.00  0.00    -0.272 OA
ATOM      8  H   YJ9 d   1       7.954   7.120 -14.513  0.00  0.00     0.087 H 
ATOM      9  H   YJ9 d   1      11.072   7.664 -16.811  0.00  0.00     0.066 H 
ATOM     10  H   YJ9 d   1       9.773   6.902 -17.693  0.00  0.00     0.066 H 
ATOM     11  H   YJ9 d   1      11.285   5.413 -16.007  0.00  0.00     0.067 H 
ATOM     12  H   YJ9 d   1       9.740   5.581 -13.784  0.00  0.00     0.038 H 
ATOM     13  H   YJ9 d   1      10.967   6.766 -13.991  0.00  0.00     0.038 H 
ENDROOT
BRANCH   1  14
ATOM     14  C2  YJ9 d   1       9.150   8.531 -13.520  0.00  0.00     0.241 C 
ATOM     15  N3  YJ9 d   1       8.079   8.632 -12.664  0.00  0.00    -0.345 N 
ATOM     16  H   YJ9 d   1       7.273   8.047 -12.883  0.00  0.00     0.163 HD
ATOM     17  O6  YJ9 d   1      10.207   9.181 -13.437  0.00  0.00    -0.271 OA
BRANCH  15  18
ATOM     18  C4  YJ9 d   1       7.960   9.454 -11.509  0.00  0.00     0.066 A 
ATOM     19  C7  YJ9 d   1       8.259  10.944 -11.587  0.00  0.00    -0.034 A 
ATOM     20  C8  YJ9 d   1       6.843  10.485 -11.440  0.00  0.00    -0.034 A 
ATOM     21  H   YJ9 d   1       8.831  11.626 -12.215  0.00  0.00     0.037 H 
ATOM     22  H   YJ9 d   1       8.933  11.663 -11.122  0.00  0.00     0.037 H 
ATOM     23  H   YJ9 d   1       5.978  10.706 -10.815  0.00  0.00     0.037 H 
ATOM     24  H   YJ9 d   1       5.876  10.669 -11.909  0.00  0.00     0.037 H 
BRANCH  18  25
ATOM     25  C5  YJ9 d   1       8.314   8.721 -10.289  0.00  0.00     0.000 C 
ATOM     26  N9  YJ9 d   1       8.186   9.195  -9.074  0.00  0.00    -0.314 NA
ATOM     27  H   YJ9 d   1       7.818  10.135  -8.930  0.00  0.00     0.185 HD
ATOM     28  H   YJ9 d   1       8.711   7.712 -10.401  0.00  0.00     0.110 H 
ENDBRANCH  18  25
ENDBRANCH  15  18
ENDBRANCH   1  14
BRANCH   6  29
ATOM     29  C27 YJ9 d   1       8.526   9.277 -17.971  0.00  0.00     0.068 A 
ATOM     30  C26 YJ9 d   1       7.931   8.383 -19.028  0.00  0.00    -0.044 A 
ATOM     31  C28 YJ9 d   1       7.320   9.726 -18.744  0.00  0.00    -0.044 A 
ATOM     32  H   YJ9 d   1       7.614   7.346 -19.140  0.00  0.00     0.035 H 
ATOM     33  H   YJ9 d   1       8.261   7.799 -19.887  0.00  0.00     0.035 H 
ATOM     34  H   YJ9 d   1       6.335  10.149 -18.546  0.00  0.00     0.035 H 
ATOM     35  H   YJ9 d   1       6.986  10.604 -19.297  0.00  0.00     0.035 H 
BRANCH  29  36
ATOM     36  C33 YJ9 d   1       9.871   9.853 -18.165  0.00  0.00    -0.040 A 
ATOM     37  C32 YJ9 d   1      10.352  10.727 -17.192  0.00  0.00    -0.075 A 
ATOM     38  C31 YJ9 d   1      11.619  11.289 -17.314  0.00  0.00    -0.068 A 
ATOM     39  H   YJ9 d   1       9.732  10.972 -16.330  0.00  0.00     0.084 H 
ATOM     40  C30 YJ9 d   1      12.437  10.964 -18.380  0.00  0.00     0.047 A 
ATOM     41  H   YJ9 d   1      11.971  11.994 -16.560  0.00  0.00     0.084 H 
ATOM     42  C29 YJ9 d   1      11.996  10.079 -19.360  0.00  0.00    -0.068 A 
ATOM     43  C34 YJ9 d   1      10.714   9.511 -19.240  0.00  0.00    -0.075 A 
ATOM     44  H   YJ9 d   1      12.634   9.830 -20.208  0.00  0.00     0.084 H 
ATOM     45  H   YJ9 d   1      10.369   8.797 -19.988  0.00  0.00     0.084 H 
BRANCH  40  46
ATOM     46  C35 YJ9 d   1      13.816  11.604 -18.422  0.00  0.00     0.417 C 
ATOM     47  F36 YJ9 d   1      14.117  12.403 -17.369  0.00  0.00    -0.166 F 
ATOM     48  F37 YJ9 d   1      14.831  10.737 -18.434  0.00  0.00    -0.166 F 
ATOM     49  F38 YJ9 d   1      14.030  12.370 -19.487  0.00  0.00    -0.166 F 
ENDBRANCH  40  46
ENDBRANCH  29  36
ENDBRANCH   6  29
BRANCH   4  50
ATOM     50  S14 YJ9 d   1       9.202   4.619 -16.310  0.00  0.00     0.182 S 
ATOM     51  O22 YJ9 d   1       9.522   3.515 -15.479  0.00  0.00    -0.222 OA
ATOM     52  O23 YJ9 d   1       7.890   5.111 -16.279  0.00  0.00    -0.222 OA
BRANCH  50  53
ATOM     53  C15 YJ9 d   1       9.658   4.222 -17.903  0.00  0.00     0.081 A 
ATOM     54  C16 YJ9 d   1      10.820   3.575 -18.306  0.00  0.00     0.055 A 
ATOM     55  C17 YJ9 d   1      11.143   3.276 -19.620  0.00  0.00    -0.060 A 
ATOM     56 CL   YJ9 d   1      11.984   3.143 -17.174  0.00  0.00    -0.083 Cl
ATOM     57  C18 YJ9 d   1      10.221   3.617 -20.599  0.00  0.00    -0.081 A 
ATOM     58  H   YJ9 d   1      12.085   2.791 -19.875  0.00  0.00     0.086 H 
ATOM     59  C19 YJ9 d   1       9.038   4.240 -20.239  0.00  0.00    -0.081 A 
ATOM     60  H   YJ9 d   1      10.427   3.396 -21.646  0.00  0.00     0.083 H 
ATOM     61  C20 YJ9 d   1       8.764   4.537 -18.920  0.00  0.00    -0.060 A 
ATOM     62  H   YJ9 d   1       8.312   4.500 -21.010  0.00  0.00     0.083 H 
ATOM     63  H   YJ9 d   1       7.825   5.030 -18.669  0.00  0.00     0.085 H 
ENDBRANCH  50  53
ENDBRANCH   4  50
TORSDOF 8
