REMARK  7 active torsions:
REMARK  status: ('A' for Active; 'I' for Inactive)
REMARK    1  A    between atoms: C4_6  and  S1_1 
REMARK    2  A    between atoms: S1_1  and  C7_9 
REMARK       I    between atoms: C5_7  and  N2_2 
REMARK    3  A    between atoms: C3_4  and  C5_7 
REMARK    4  A    between atoms: C17_19  and  C3_4 
REMARK    5  A    between atoms: C6_8  and  C10_12 
REMARK       I    between atoms: C10_12  and  N14_16 
REMARK    6  A    between atoms: N14_16  and  C13_15 
REMARK    7  A    between atoms: C13_15  and  C15_17 
ROOT
ATOM      1  N2  424 d   1       8.510  36.361  19.585  0.00  0.00    -0.336 N 
ATOM      2  C4  424 d   1       9.638  34.278  19.754  0.00  0.00     0.067 C 
ATOM      3  C5  424 d   1       7.810  37.383  19.089  0.00  0.00     0.234 C 
ATOM      4  C6  424 d   1       8.287  35.881  20.937  0.00  0.00     0.093 C 
ATOM      5  C8  424 d   1       9.488  35.534  18.855  0.00  0.00     0.015 C 
ATOM      6  C9  424 d   1       9.369  34.811  21.183  0.00  0.00    -0.020 C 
ATOM      7  O22 424 d   1       7.010  37.960  19.799  0.00  0.00    -0.272 OA
ATOM      8  H   424 d   1      10.616  33.830  19.576  0.00  0.00     0.067 H 
ATOM      9  H   424 d   1       7.259  35.525  21.007  0.00  0.00     0.087 H 
ATOM     10  H   424 d   1      10.435  36.049  18.694  0.00  0.00     0.066 H 
ATOM     11  H   424 d   1       9.159  35.289  17.845  0.00  0.00     0.066 H 
ATOM     12  H   424 d   1      10.261  35.207  21.668  0.00  0.00     0.038 H 
ATOM     13  H   424 d   1       9.053  34.033  21.878  0.00  0.00     0.038 H 
ENDROOT
BRANCH   3  14
ATOM     14  C3  424 d   1       8.066  37.834  17.689  0.00  0.00     0.068 A 
ATOM     15  C11 424 d   1       7.428  37.023  16.561  0.00  0.00    -0.044 A 
ATOM     16  C12 424 d   1       6.884  38.412  16.921  0.00  0.00    -0.044 A 
ATOM     17  H   424 d   1       7.052  36.015  16.387  0.00  0.00     0.035 H 
ATOM     18  H   424 d   1       7.735  36.466  15.676  0.00  0.00     0.035 H 
ATOM     19  H   424 d   1       6.611  39.339  16.417  0.00  0.00     0.035 H 
ATOM     20  H   424 d   1       5.925  38.885  17.131  0.00  0.00     0.035 H 
BRANCH  14  21
ATOM     21  C17 424 d   1       9.443  38.402  17.493  0.00  0.00    -0.040 A 
ATOM     22  C25 424 d   1      10.355  37.769  16.661  0.00  0.00    -0.074 A 
ATOM     23  C30 424 d   1      11.626  38.303  16.515  0.00  0.00    -0.061 A 
ATOM     24  H   424 d   1      10.075  36.861  16.127  0.00  0.00     0.084 H 
ATOM     25  C27 424 d   1      11.980  39.436  17.240  0.00  0.00     0.034 A 
ATOM     26  H   424 d   1      12.342  37.839  15.837  0.00  0.00     0.086 H 
ATOM     27 CL3  424 d   1      13.567  40.127  17.109  0.00  0.00    -0.084 Cl
ATOM     28  C31 424 d   1      11.063  40.068  18.068  0.00  0.00    -0.061 A 
ATOM     29  C26 424 d   1       9.798  39.545  18.194  0.00  0.00    -0.074 A 
ATOM     30  H   424 d   1      11.343  40.970  18.613  0.00  0.00     0.086 H 
ATOM     31  H   424 d   1       9.072  40.030  18.847  0.00  0.00     0.084 H 
ENDBRANCH  14  21
ENDBRANCH   3  14
BRANCH   4  32
ATOM     32  C10 424 d   1       8.458  36.930  21.996  0.00  0.00     0.241 C 
ATOM     33  N14 424 d   1       7.413  37.033  22.838  0.00  0.00    -0.345 N 
ATOM     34  H   424 d   1       6.585  36.466  22.657  0.00  0.00     0.163 HD
ATOM     35  O24 424 d   1       9.496  37.596  22.136  0.00  0.00    -0.271 OA
BRANCH  33  36
ATOM     36  C13 424 d   1       7.410  37.914  23.992  0.00  0.00     0.066 A 
ATOM     37  C20 424 d   1       7.641  39.408  23.777  0.00  0.00    -0.034 A 
ATOM     38  C21 424 d   1       6.226  38.886  24.088  0.00  0.00    -0.034 A 
ATOM     39  H   424 d   1       8.130  40.064  23.056  0.00  0.00     0.037 H 
ATOM     40  H   424 d   1       8.319  40.188  24.124  0.00  0.00     0.037 H 
ATOM     41  H   424 d   1       5.398  39.108  24.762  0.00  0.00     0.037 H 
ATOM     42  H   424 d   1       5.211  38.985  23.703  0.00  0.00     0.037 H 
BRANCH  36  43
ATOM     43  C15 424 d   1       7.901  37.262  25.225  0.00  0.00     0.000 C 
ATOM     44  N16 424 d   1       7.868  37.828  26.396  0.00  0.00    -0.314 NA
ATOM     45  H   424 d   1       7.489  38.770  26.497  0.00  0.00     0.185 HD
ATOM     46  H   424 d   1       8.312  36.255  25.149  0.00  0.00     0.110 H 
ENDBRANCH  36  43
ENDBRANCH  33  36
ENDBRANCH   4  32
BRANCH   2  47
ATOM     47  S1  424 d   1       8.429  32.970  19.443  0.00  0.00     0.182 S 
ATOM     48  O18 424 d   1       8.783  31.878  20.304  0.00  0.00    -0.222 OA
ATOM     49  O19 424 d   1       7.113  33.531  19.433  0.00  0.00    -0.222 OA
BRANCH  47  50
ATOM     50  C7  424 d   1       8.685  32.498  17.747  0.00  0.00     0.081 A 
ATOM     51  C23 424 d   1       9.791  31.821  17.297  0.00  0.00     0.055 A 
ATOM     52 CL2  424 d   1      11.014  31.333  18.371  0.00  0.00    -0.083 Cl
ATOM     53  C33 424 d   1       9.945  31.467  15.964  0.00  0.00    -0.060 A 
ATOM     54  C35 424 d   1       8.983  31.836  15.047  0.00  0.00    -0.081 A 
ATOM     55  H   424 d   1      10.820  30.901  15.644  0.00  0.00     0.086 H 
ATOM     56  C34 424 d   1       7.881  32.529  15.501  0.00  0.00    -0.081 A 
ATOM     57  H   424 d   1       9.091  31.586  13.992  0.00  0.00     0.083 H 
ATOM     58  C29 424 d   1       7.733  32.868  16.831  0.00  0.00    -0.060 A 
ATOM     59  H   424 d   1       7.106  32.817  14.791  0.00  0.00     0.083 H 
ATOM     60  H   424 d   1       6.857  33.431  17.154  0.00  0.00     0.085 H 
ENDBRANCH  47  50
ENDBRANCH   2  47
TORSDOF 7
