REMARK  16 active torsions:
REMARK  status: ('A' for Active; 'I' for Inactive)
REMARK    1  A    between atoms: C5_2  and  C6_1 
REMARK    2  A    between atoms: C6_1  and  O6_6 
REMARK    3  A    between atoms: O4_8  and  C4_3 
REMARK    4  A    between atoms: C3_4  and  O3_9 
REMARK    5  A    between atoms: C1_16  and  O4_8 
REMARK    6  A    between atoms: C2_11  and  O2_17 
REMARK    7  A    between atoms: C3_12  and  O3_18 
REMARK    8  A    between atoms: O4_19  and  C4_13 
REMARK    9  A    between atoms: C5_14  and  C6_15 
REMARK   10  A    between atoms: C6_15  and  O6_21 
REMARK   11  A    between atoms: C1_27  and  O4_19 
REMARK   12  A    between atoms: C2_22  and  O2_28 
REMARK   13  A    between atoms: C3_23  and  O3_29 
REMARK   14  A    between atoms: C4_24  and  O4_30 
REMARK   15  A    between atoms: C5_25  and  C6_26 
REMARK   16  A    between atoms: C6_26  and  O6_32 
ROOT
ATOM      1  H   OXZ d   1      15.829 -24.929  15.716  0.00  0.00     0.094 H 
ATOM      2  H   OXZ d   1      17.646 -22.800  14.529  0.00  0.00     0.091 H 
ATOM      3  H   OXZ d   1      18.278 -25.271  16.118  0.00  0.00     0.091 H 
ATOM      4  H   OXZ d   1      18.763 -25.044  13.123  0.00  0.00     0.090 H 
ATOM      5  H   OXZ d   1      16.402 -24.341  12.755  0.00  0.00     0.133 H 
ATOM      6  C2  BGC d   1      16.074 -24.239  14.909  0.00  0.00     0.110 C 
ATOM      7  C3  BGC d   1      17.423 -23.609  15.225  0.00  0.00     0.092 C 
ATOM      8  C4  BGC d   1      18.482 -24.714  15.203  0.00  0.00     0.096 C 
ATOM      9  C5  BGC d   1      18.421 -25.625  13.980  0.00  0.00     0.089 C 
ATOM     10  C1  BGC d   1      16.134 -25.009  13.574  0.00  0.00     0.159 C 
ATOM     11  O5  BGC d   1      17.081 -26.079  13.747  0.00  0.00    -0.348 OA
ENDROOT
BRANCH   8  12
ATOM     12  O4  BGC d   1      19.746 -24.180  15.125  0.00  0.00    -0.348 OA
BRANCH  12  13
ATOM     13  C1  BGC d   1      20.561 -24.331  16.279  0.00  0.00     0.159 C 
ATOM     14  C2  BGC d   1      21.913 -23.794  15.875  0.00  0.00     0.110 C 
ATOM     15  C3  BGC d   1      22.848 -23.774  17.107  0.00  0.00     0.092 C 
ATOM     16  H   OXZ d   1      21.824 -22.770  15.512  0.00  0.00     0.094 H 
ATOM     17  C4  BGC d   1      22.210 -23.039  18.274  0.00  0.00     0.090 C 
ATOM     18  H   OXZ d   1      23.027 -24.817  17.366  0.00  0.00     0.091 H 
ATOM     19  C5  BGC d   1      20.851 -23.674  18.512  0.00  0.00     0.089 C 
ATOM     20  H   OXZ d   1      22.126 -21.968  18.089  0.00  0.00     0.091 H 
ATOM     21  O5  BGC d   1      20.100 -23.468  17.304  0.00  0.00    -0.348 OA
ATOM     22  H   OXZ d   1      20.852 -24.750  18.687  0.00  0.00     0.090 H 
ATOM     23  H   OXZ d   1      20.564 -25.365  16.623  0.00  0.00     0.133 H 
BRANCH  14  24
ATOM     24  O2  BGC d   1      22.442 -24.591  14.806  0.00  0.00    -0.388 OA
ATOM     25  H   OXZ d   1      21.845 -24.555  14.055  0.00  0.00     0.210 HD
ENDBRANCH  14  24
BRANCH  15  26
ATOM     26  O3  BGC d   1      24.073 -23.123  16.820  0.00  0.00    -0.390 OA
ATOM     27  H   OXZ d   1      24.641 -23.158  17.593  0.00  0.00     0.210 HD
ENDBRANCH  15  26
BRANCH  17  28
ATOM     28  O4  BGC d   1      23.009 -23.327  19.416  0.00  0.00    -0.390 OA
ATOM     29  H   OXZ d   1      23.880 -22.940  19.302  0.00  0.00     0.210 HD
ENDBRANCH  17  28
BRANCH  19  30
ATOM     30  C6  BGC d   1      20.282 -23.083  19.798  0.00  0.00     0.043 C 
ATOM     31  H   OXZ d   1      21.035 -22.419  20.223  0.00  0.00     0.078 H 
ATOM     32  H   OXZ d   1      20.027 -23.909  20.462  0.00  0.00     0.078 H 
BRANCH  30  33
ATOM     33  O6  BGC d   1      19.100 -22.320  19.576  0.00  0.00    -0.398 OA
ATOM     34  H   OXZ d   1      18.783 -21.972  20.413  0.00  0.00     0.209 HD
ENDBRANCH  30  33
ENDBRANCH  19  30
ENDBRANCH  12  13
ENDBRANCH   8  12
BRANCH   7  35
ATOM     35  O3  BGC d   1      17.363 -23.211  16.593  0.00  0.00    -0.390 OA
ATOM     36  H   OXZ d   1      18.225 -22.891  16.870  0.00  0.00     0.210 HD
ENDBRANCH   7  35
BRANCH   9  37
ATOM     37  C6  BGC d   1      19.316 -26.836  14.170  0.00  0.00     0.043 C 
ATOM     38  H   OXZ d   1      19.012 -27.443  15.023  0.00  0.00     0.078 H 
ATOM     39  H   OXZ d   1      20.345 -26.556  14.395  0.00  0.00     0.078 H 
BRANCH  37  40
ATOM     40  O6  BGC d   1      19.208 -27.550  12.932  0.00  0.00    -0.398 OA
ATOM     41  H   OXZ d   1      19.752 -28.340  12.971  0.00  0.00     0.209 HD
ENDBRANCH  37  40
ENDBRANCH   9  37
BRANCH   6  42
ATOM     42  O2  BGC d   1      15.067 -23.231  14.812  0.00  0.00    -0.388 OA
ATOM     43  H   OXZ d   1      15.287 -22.629  14.097  0.00  0.00     0.210 HD
ENDBRANCH   6  42
BRANCH  10  44
ATOM     44  O4  OXZ d   1      14.841 -25.631  13.338  0.00  0.00    -0.348 OA
BRANCH  44  45
ATOM     45  C4  OXZ d   1      14.395 -25.715  11.984  0.00  0.00     0.097 C 
ATOM     46  C5  OXZ d   1      12.844 -25.520  11.940  0.00  0.00     0.119 C 
ATOM     47  O5  OXZ d   1      12.493 -25.695  10.561  0.00  0.00    -0.195 OA
ATOM     48  H   OXZ d   1      12.375 -26.220  12.631  0.00  0.00     0.094 H 
ATOM     49  N1  OXZ d   1      12.867 -26.911   9.974  0.00  0.00     0.042 N 
ATOM     50  C2  OXZ d   1      14.297 -27.294   9.962  0.00  0.00     0.135 C 
ATOM     51  H   OXZ d   1      12.409 -27.627  10.538  0.00  0.00     0.315 HD
ATOM     52  H   OXZ d   1      12.613 -26.817   8.991  0.00  0.00     0.315 HD
ATOM     53  C3  OXZ d   1      14.837 -27.057  11.401  0.00  0.00     0.088 C 
ATOM     54  H   OXZ d   1      14.417 -28.337   9.670  0.00  0.00     0.084 H 
ATOM     55  H   OXZ d   1      14.852 -26.699   9.237  0.00  0.00     0.084 H 
ATOM     56  H   OXZ d   1      14.389 -27.805  12.055  0.00  0.00     0.089 H 
ATOM     57  H   OXZ d   1      14.837 -24.928  11.373  0.00  0.00     0.091 H 
BRANCH  46  58
ATOM     58  C6  OXZ d   1      12.384 -24.122  12.362  0.00  0.00     0.045 C 
ATOM     59  H   OXZ d   1      12.618 -23.943  13.412  0.00  0.00     0.078 H 
ATOM     60  H   OXZ d   1      11.305 -24.024  12.248  0.00  0.00     0.078 H 
BRANCH  58  61
ATOM     61  O6  OXZ d   1      13.075 -23.164  11.516  0.00  0.00    -0.398 OA
ATOM     62  H   OXZ d   1      12.850 -23.329  10.597  0.00  0.00     0.209 HD
ENDBRANCH  58  61
ENDBRANCH  46  58
BRANCH  53  63
ATOM     63  O3  OXZ d   1      16.276 -27.253  11.441  0.00  0.00    -0.391 OA
ATOM     64  H   OXZ d   1      16.593 -27.103  12.335  0.00  0.00     0.210 HD
ENDBRANCH  53  63
ENDBRANCH  44  45
ENDBRANCH  10  44
TORSDOF 16
