REMARK  5 active torsions:
REMARK  status: ('A' for Active; 'I' for Inactive)
REMARK    1  A    between atoms: C3_2  and  C6_5 
REMARK    2  A    between atoms: C4_3  and  C7_6 
REMARK    3  A    between atoms: C5_4  and  C8_7 
REMARK    4  A    between atoms: C21_13  and  O30_20 
REMARK    5  A    between atoms: C23_15  and  O29_18 
ROOT
ATOM      1  N2  YJW d   1       2.480  34.478  27.015  0.00  0.00    -0.127 NA
ATOM      2  C3  YJW d   1       1.685  34.760  25.970  0.00  0.00     0.111 A 
ATOM      3  C4  YJW d   1       0.995  35.971  26.120  0.00  0.00     0.037 A 
ATOM      4  C5  YJW d   1       1.341  36.493  27.321  0.00  0.00     0.088 A 
ATOM      5  O11 YJW d   1       2.236  35.675  27.943  0.00  0.00    -0.217 OA
ENDROOT
BRANCH   2   6
ATOM      6  C6  YJW d   1       1.610  33.911  24.823  0.00  0.00     0.029 A 
ATOM      7  C21 YJW d   1       2.877  33.496  24.177  0.00  0.00     0.081 A 
ATOM      8  C22 YJW d   1       2.776  32.721  22.991  0.00  0.00    -0.018 A 
ATOM      9  C23 YJW d   1       1.454  32.386  22.481  0.00  0.00     0.068 A 
ATOM     10  H9  YJW d   1       3.668  32.385  22.474  0.00  0.00     0.092 H 
ATOM     11  C24 YJW d   1       0.217  32.755  23.113  0.00  0.00    -0.050 A 
ATOM     12  C25 YJW d   1       0.331  33.583  24.269  0.00  0.00    -0.065 A 
ATOM     13  H10 YJW d   1      -0.744  32.424  22.735  0.00  0.00     0.087 H 
ATOM     14  H11 YJW d   1      -0.567  33.971  24.736  0.00  0.00     0.085 H 
BRANCH   7  15
ATOM     15  O30 YJW d   1       4.090  33.875  24.742  0.00  0.00    -0.360 OA
ATOM     16  H13 YJW d   1       3.927  34.386  25.526  0.00  0.00     0.217 HD
ENDBRANCH   7  15
BRANCH   9  17
ATOM     17  O29 YJW d   1       1.422  31.685  21.316  0.00  0.00    -0.361 OA
ATOM     18  H12 YJW d   1       2.310  31.517  21.024  0.00  0.00     0.217 HD
ENDBRANCH   9  17
ENDBRANCH   2   6
BRANCH   3  19
ATOM     19  C7  YJW d   1       0.073  36.650  25.255  0.00  0.00    -0.021 A 
ATOM     20  C12 YJW d   1       0.607  37.152  24.062  0.00  0.00    -0.072 A 
ATOM     21  C13 YJW d   1      -0.235  37.860  23.120  0.00  0.00    -0.082 A 
ATOM     22  H4  YJW d   1       1.659  37.010  23.842  0.00  0.00     0.084 H 
ATOM     23  C14 YJW d   1      -1.602  38.039  23.383  0.00  0.00    -0.083 A 
ATOM     24  H5  YJW d   1       0.194  38.254  22.206  0.00  0.00     0.083 H 
ATOM     25  C15 YJW d   1      -2.187  37.550  24.604  0.00  0.00    -0.082 A 
ATOM     26  H6  YJW d   1      -2.224  38.551  22.658  0.00  0.00     0.083 H 
ATOM     27  C16 YJW d   1      -1.333  36.856  25.563  0.00  0.00    -0.072 A 
ATOM     28  H7  YJW d   1      -3.242  37.694  24.807  0.00  0.00     0.083 H 
ATOM     29  H8  YJW d   1      -1.744  36.496  26.499  0.00  0.00     0.084 H 
ENDBRANCH   3  19
BRANCH   4  30
ATOM     30  C8  YJW d   1       0.855  37.757  27.896  0.00  0.00    -0.028 C 
ATOM     31  H1  YJW d   1       1.315  37.912  28.883  0.00  0.00     0.036 H 
ATOM     32  H2  YJW d   1      -0.239  37.714  28.005  0.00  0.00     0.036 H 
ATOM     33  H3  YJW d   1       1.125  38.590  27.231  0.00  0.00     0.036 H 
ENDBRANCH   4  30
TORSDOF 5
