REMARK  0 active torsions:
REMARK  status: ('A' for Active; 'I' for Inactive)
ROOT
ATOM      1  C15 YJX d   1       8.593  10.354 -26.100  0.00  0.00    -0.082 A 
ATOM      2  C19 YJX d   1       7.460   9.700 -26.696  0.00  0.00    -0.082 A 
ATOM      3  C8  YJX d   1       8.597  11.550 -25.312  0.00  0.00    -0.070 A 
ATOM      4  C14 YJX d   1       6.222  10.351 -26.500  0.00  0.00    -0.067 A 
ATOM      5  C20 YJX d   1      12.317  14.342 -23.935  0.00  0.00    -0.038 A 
ATOM      6  C22 YJX d   1      13.301  14.551 -22.934  0.00  0.00     0.004 A 
ATOM      7  C21 YJX d   1      11.617  14.750 -21.143  0.00  0.00     0.032 A 
ATOM      8  C3  YJX d   1       7.323  12.216 -25.116  0.00  0.00     0.007 A 
ATOM      9  C7  YJX d   1       6.116  11.593 -25.712  0.00  0.00     0.045 A 
ATOM     10  C17 YJX d   1      10.906  14.359 -23.461  0.00  0.00     0.065 A 
ATOM     11  C18 YJX d   1      10.626  14.577 -22.074  0.00  0.00     0.103 A 
ATOM     12  C5  YJX d   1       8.837  14.308 -23.251  0.00  0.00     0.137 A 
ATOM     13  C1  YJX d   1       6.849  13.344 -24.351  0.00  0.00     0.058 A 
ATOM     14  C9  YJX d   1       4.936  12.366 -25.364  0.00  0.00     0.259 A 
ATOM     15  C2  YJX d   1       7.437  14.242 -23.520  0.00  0.00     0.016 C 
ATOM     16  C6  YJX d   1       6.513  15.261 -22.752  0.00  0.00    -0.034 C 
ATOM     17  C13 YJX d   1       5.218  15.632 -23.495  0.00  0.00    -0.046 C 
ATOM     18  C10 YJX d   1       4.479  14.409 -24.004  0.00  0.00     0.004 C 
ATOM     19  N23 YJX d   1      12.990  14.740 -21.542  0.00  0.00    -0.271 NA
ATOM     20  N11 YJX d   1       9.773  14.205 -24.200  0.00  0.00    -0.339 N 
ATOM     21  N12 YJX d   1       9.276  14.538 -21.943  0.00  0.00    -0.227 NA
ATOM     22  N4  YJX d   1       5.422  13.366 -24.574  0.00  0.00    -0.312 N 
ATOM     23  O16 YJX d   1       3.710  12.205 -25.680  0.00  0.00    -0.267 OA
ATOM     24  H1  YJX d   1       9.557   9.887 -26.267  0.00  0.00     0.083 H 
ATOM     25  H2  YJX d   1       7.549   8.775 -27.255  0.00  0.00     0.083 H 
ATOM     26  H3  YJX d   1       9.512  11.941 -24.881  0.00  0.00     0.084 H 
ATOM     27  H4  YJX d   1       5.327   9.927 -26.940  0.00  0.00     0.085 H 
ATOM     28  H5  YJX d   1      12.576  14.181 -24.975  0.00  0.00     0.089 H 
ATOM     29  H6  YJX d   1      14.342  14.569 -23.234  0.00  0.00     0.114 H 
ATOM     30  H7  YJX d   1      11.359  14.895 -20.100  0.00  0.00     0.118 H 
ATOM     31  H8  YJX d   1       7.087  16.183 -22.580  0.00  0.00     0.040 H 
ATOM     32  H9  YJX d   1       6.239  14.815 -21.785  0.00  0.00     0.040 H 
ATOM     33  H10 YJX d   1       5.472  16.274 -24.351  0.00  0.00     0.035 H 
ATOM     34  H11 YJX d   1       4.560  16.183 -22.807  0.00  0.00     0.035 H 
ATOM     35  H12 YJX d   1       3.778  14.721 -24.792  0.00  0.00     0.065 H 
ATOM     36  H13 YJX d   1       3.918  13.961 -23.170  0.00  0.00     0.065 H 
ATOM     37  H14 YJX d   1       9.666  14.051 -25.213  0.00  0.00     0.167 HD
ENDROOT
TORSDOF 0
