REMARK  1 active torsions:
REMARK  status: ('A' for Active; 'I' for Inactive)
REMARK    1  A    between atoms: C2_15  and  C5_12 
ROOT
ATOM      1  C15 YK9 d   1       8.565  10.336  23.442  0.00  0.00    -0.082 A 
ATOM      2  C19 YK9 d   1       7.489   9.742  22.797  0.00  0.00    -0.082 A 
ATOM      3  C8  YK9 d   1       8.402  11.524  24.148  0.00  0.00    -0.071 A 
ATOM      4  C14 YK9 d   1       6.227  10.304  22.868  0.00  0.00    -0.068 A 
ATOM      5  C3  YK9 d   1       7.137  12.110  24.223  0.00  0.00    -0.010 A 
ATOM      6  C7  YK9 d   1       6.039  11.481  23.595  0.00  0.00     0.026 A 
ATOM      7  C1  YK9 d   1       6.639  13.304  24.940  0.00  0.00     0.003 A 
ATOM      8  C9  YK9 d   1       4.797  12.244  23.890  0.00  0.00     0.194 A 
ATOM      9  C2  YK9 d   1       7.208  14.269  25.792  0.00  0.00     0.022 A 
ATOM     10  C6  YK9 d   1       6.400  15.249  26.395  0.00  0.00    -0.068 A 
ATOM     11  C13 YK9 d   1       5.028  15.286  26.172  0.00  0.00    -0.081 A 
ATOM     12  C10 YK9 d   1       4.441  14.362  25.329  0.00  0.00    -0.068 A 
ATOM     13  C30 YK9 d   1       5.231  13.381  24.739  0.00  0.00     0.027 A 
ATOM     14  O16 YK9 d   1       3.648  11.992  23.505  0.00  0.00    -0.287 OA
ATOM     15  H1  YK9 d   1       9.542   9.870  23.395  0.00  0.00     0.083 H 
ATOM     16  H2  YK9 d   1       7.639   8.829  22.232  0.00  0.00     0.083 H 
ATOM     17  H3  YK9 d   1       9.250  11.991  24.636  0.00  0.00     0.084 H 
ATOM     18  H4  YK9 d   1       5.391   9.834  22.363  0.00  0.00     0.085 H 
ATOM     19  H8  YK9 d   1       6.854  15.988  27.045  0.00  0.00     0.085 H 
ATOM     20  H9  YK9 d   1       4.419  16.039  26.659  0.00  0.00     0.083 H 
ATOM     21  H10 YK9 d   1       3.376  14.401  25.130  0.00  0.00     0.085 H 
ENDROOT
BRANCH   9  22
ATOM     22  C5  YK9 d   1       8.659  14.316  26.082  0.00  0.00     0.140 A 
ATOM     23  N11 YK9 d   1       9.165  14.493  27.334  0.00  0.00    -0.228 NA
ATOM     24  C17 YK9 d   1      10.545  14.528  27.213  0.00  0.00     0.088 A 
ATOM     25  C20 YK9 d   1      11.569  14.683  28.145  0.00  0.00    -0.036 A 
ATOM     26  C18 YK9 d   1      10.800  14.388  25.850  0.00  0.00     0.080 A 
ATOM     27  C22 YK9 d   1      12.856  14.708  27.650  0.00  0.00     0.004 A 
ATOM     28  H5  YK9 d   1      11.364  14.779  29.205  0.00  0.00     0.089 H 
ATOM     29  N23 YK9 d   1      13.153  14.598  26.350  0.00  0.00    -0.271 NA
ATOM     30  H6  YK9 d   1      13.673  14.823  28.354  0.00  0.00     0.114 H 
ATOM     31  C21 YK9 d   1      12.146  14.446  25.487  0.00  0.00     0.030 A 
ATOM     32  H7  YK9 d   1      12.390  14.362  24.434  0.00  0.00     0.118 H 
ATOM     33  N12 YK9 d   1       9.605  14.243  25.155  0.00  0.00    -0.337 N 
ATOM     34  H11 YK9 d   1       9.481  14.108  24.141  0.00  0.00     0.167 HD
ENDBRANCH   9  22
TORSDOF 1
