REMARK  5 active torsions:
REMARK  status: ('A' for Active; 'I' for Inactive)
REMARK    1  A    between atoms: C7_7  and  N23_23 
REMARK    2  A    between atoms: C13_13  and  C14_14 
REMARK       I    between atoms: N23_23  and  C24_24 
REMARK    3  A    between atoms: C24_24  and  C25_25 
REMARK    4  A    between atoms: C25_25  and  C27_27 
REMARK    5  A    between atoms: C27_27  and  C28_28 
ROOT
ATOM      1  C1  YKB d   1       8.220  35.126 -23.423  0.00  0.00    -0.082 A 
ATOM      2  C2  YKB d   1       7.012  35.757 -22.860  0.00  0.00    -0.082 A 
ATOM      3  C3  YKB d   1       5.864  34.958 -23.132  0.00  0.00    -0.074 A 
ATOM      4  C4  YKB d   1       8.258  33.925 -24.209  0.00  0.00    -0.072 A 
ATOM      5  C5  YKB d   1       6.996  33.226 -24.424  0.00  0.00    -0.016 A 
ATOM      6  C6  YKB d   1       5.849  33.779 -23.861  0.00  0.00    -0.020 A 
ATOM      7  C7  YKB d   1       4.647  32.974 -24.127  0.00  0.00     0.065 A 
ATOM      8  C8  YKB d   1       6.569  31.970 -25.150  0.00  0.00    -0.003 A 
ATOM      9  C9  YKB d   1       5.202  31.806 -24.992  0.00  0.00    -0.019 A 
ATOM     10  C10 YKB d   1       4.406  30.767 -25.501  0.00  0.00    -0.074 A 
ATOM     11  C11 YKB d   1       5.052  29.725 -26.295  0.00  0.00    -0.081 A 
ATOM     12  C12 YKB d   1       6.500  29.916 -26.480  0.00  0.00    -0.068 A 
ATOM     13  C13 YKB d   1       7.251  30.976 -25.923  0.00  0.00     0.022 A 
ATOM     14  H1  YKB d   1       9.167  35.614 -23.225  0.00  0.00     0.083 H 
ATOM     15  H2  YKB d   1       6.999  36.695 -22.317  0.00  0.00     0.083 H 
ATOM     16  H3  YKB d   1       4.917  35.303 -22.733  0.00  0.00     0.084 H 
ATOM     17  H4  YKB d   1       9.187  33.553 -24.626  0.00  0.00     0.084 H 
ATOM     18  H5  YKB d   1       4.318  32.590 -23.150  0.00  0.00     0.088 H 
ATOM     19  H6  YKB d   1       3.339  30.739 -25.309  0.00  0.00     0.084 H 
ATOM     20  H7  YKB d   1       4.511  28.883 -26.712  0.00  0.00     0.083 H 
ATOM     21  H8  YKB d   1       7.029  29.191 -27.088  0.00  0.00     0.085 H 
ENDROOT
BRANCH   7  22
ATOM     22  N23 YKB d   1       3.468  33.442 -24.757  0.00  0.00    -0.348 N 
ATOM     23  C24 YKB d   1       2.252  33.673 -24.111  0.00  0.00     0.218 C 
ATOM     24  O26 YKB d   1       2.163  33.494 -22.889  0.00  0.00    -0.274 OA
ATOM     25  H13 YKB d   1       3.510  33.621 -25.740  0.00  0.00     0.163 HD
BRANCH  23  26
ATOM     26  C25 YKB d   1       1.050  34.175 -24.940  0.00  0.00     0.016 C 
ATOM     27  H14 YKB d   1       0.732  33.358 -25.605  0.00  0.00     0.047 H 
ATOM     28  H15 YKB d   1       1.389  35.029 -25.545  0.00  0.00     0.047 H 
BRANCH  26  29
ATOM     29  C27 YKB d   1      -0.140  34.614 -24.148  0.00  0.00     0.004 C 
ATOM     30  H16 YKB d   1       0.005  35.669 -23.874  0.00  0.00     0.046 H 
ATOM     31  H17 YKB d   1      -0.186  34.001 -23.236  0.00  0.00     0.046 H 
BRANCH  29  32
ATOM     32  C28 YKB d   1      -1.425  34.499 -24.833  0.00  0.00     0.149 C 
ATOM     33  O29 YKB d   1      -1.540  34.723 -26.160  0.00  0.00    -0.178 OA
ATOM     34  N30 YKB d   1      -2.320  34.043 -24.124  0.00  0.00    -0.381 N 
ATOM     35  H18 YKB d   1      -3.240  33.923 -24.496  0.00  0.00     0.158 HD
ATOM     36  H19 YKB d   1      -2.127  33.792 -23.175  0.00  0.00     0.158 HD
ENDBRANCH  29  32
ENDBRANCH  26  29
ENDBRANCH  23  26
ENDBRANCH   7  22
BRANCH  13  37
ATOM     37  C14 YKB d   1       8.752  30.972 -26.189  0.00  0.00     0.140 A 
ATOM     38  N15 YKB d   1       9.675  31.070 -25.280  0.00  0.00    -0.338 N 
ATOM     39  C18 YKB d   1      10.810  30.953 -26.073  0.00  0.00     0.065 A 
ATOM     40  H9  YKB d   1       9.590  31.198 -24.262  0.00  0.00     0.167 HD
ATOM     41  C17 YKB d   1      10.536  30.803 -27.464  0.00  0.00     0.103 A 
ATOM     42  C19 YKB d   1      12.209  30.984 -25.603  0.00  0.00    -0.038 A 
ATOM     43  N16 YKB d   1       9.261  30.809 -27.513  0.00  0.00    -0.227 NA
ATOM     44  C22 YKB d   1      11.609  30.697 -28.374  0.00  0.00     0.032 A 
ATOM     45  N21 YKB d   1      12.853  30.703 -27.862  0.00  0.00    -0.271 NA
ATOM     46  H12 YKB d   1      11.438  30.614 -29.441  0.00  0.00     0.118 H 
ATOM     47  C20 YKB d   1      13.158  30.832 -26.494  0.00  0.00     0.004 A 
ATOM     48  H11 YKB d   1      14.193  30.805 -26.173  0.00  0.00     0.114 H 
ATOM     49  H10 YKB d   1      12.444  31.128 -24.555  0.00  0.00     0.089 H 
ENDBRANCH  13  37
TORSDOF 5
