REMARK  3 active torsions:
REMARK  status: ('A' for Active; 'I' for Inactive)
REMARK    1  A    between atoms: C7_7  and  N23_23 
REMARK    2  A    between atoms: C13_13  and  C14_14 
REMARK       I    between atoms: N23_23  and  C24_24 
REMARK    3  A    between atoms: C24_24  and  C25_25 
ROOT
ATOM      1  C1  YKC d   1       8.045  10.240  23.443  0.00  0.00    -0.082 A 
ATOM      2  C2  YKC d   1       6.849   9.626  22.902  0.00  0.00    -0.082 A 
ATOM      3  C3  YKC d   1       5.607  10.299  23.111  0.00  0.00    -0.074 A 
ATOM      4  C4  YKC d   1       8.057  11.506  24.196  0.00  0.00    -0.072 A 
ATOM      5  C5  YKC d   1       6.796  12.187  24.380  0.00  0.00    -0.016 A 
ATOM      6  C6  YKC d   1       5.564  11.527  23.795  0.00  0.00    -0.020 A 
ATOM      7  C7  YKC d   1       4.430  12.413  24.119  0.00  0.00     0.065 A 
ATOM      8  C8  YKC d   1       6.368  13.369  25.049  0.00  0.00    -0.003 A 
ATOM      9  C9  YKC d   1       4.971  13.521  24.887  0.00  0.00    -0.019 A 
ATOM     10  C10 YKC d   1       4.260  14.653  25.494  0.00  0.00    -0.074 A 
ATOM     11  C11 YKC d   1       4.987  15.606  26.272  0.00  0.00    -0.081 A 
ATOM     12  C12 YKC d   1       6.399  15.444  26.437  0.00  0.00    -0.068 A 
ATOM     13  C13 YKC d   1       7.092  14.347  25.828  0.00  0.00     0.022 A 
ATOM     14  H1  YKC d   1       8.991   9.736  23.283  0.00  0.00     0.083 H 
ATOM     15  H2  YKC d   1       6.896   8.689  22.358  0.00  0.00     0.083 H 
ATOM     16  H3  YKC d   1       4.689   9.859  22.739  0.00  0.00     0.084 H 
ATOM     17  H4  YKC d   1       8.978  11.912  24.598  0.00  0.00     0.084 H 
ATOM     18  H5  YKC d   1       4.083  12.809  23.153  0.00  0.00     0.088 H 
ATOM     19  H6  YKC d   1       3.191  14.765  25.353  0.00  0.00     0.084 H 
ATOM     20  H7  YKC d   1       4.474  16.443  26.732  0.00  0.00     0.083 H 
ATOM     21  H8  YKC d   1       6.953  16.162  27.031  0.00  0.00     0.085 H 
ENDROOT
BRANCH   7  22
ATOM     22  N23 YKC d   1       3.248  11.920  24.762  0.00  0.00    -0.344 N 
ATOM     23  C24 YKC d   1       2.108  11.665  24.031  0.00  0.00     0.252 C 
ATOM     24  O26 YKC d   1       2.101  11.823  22.807  0.00  0.00    -0.268 OA
ATOM     25  H13 YKC d   1       3.251  11.760  25.749  0.00  0.00     0.163 HD
BRANCH  23  26
ATOM     26  C25 YKC d   1       0.896  11.228  24.789  0.00  0.00     0.034 A 
ATOM     27  C27 YKC d   1      -0.395  11.665  24.214  0.00  0.00    -0.051 A 
ATOM     28  C28 YKC d   1      -1.565  11.329  24.943  0.00  0.00     0.003 A 
ATOM     29  H14 YKC d   1      -0.445  12.215  23.281  0.00  0.00     0.087 H 
ATOM     30  N30 YKC d   1      -1.459  10.608  26.156  0.00  0.00    -0.273 NA
ATOM     31  H15 YKC d   1      -2.539  11.624  24.571  0.00  0.00     0.114 H 
ATOM     32  C60 YKC d   1      -0.236  10.191  26.738  0.00  0.00     0.003 A 
ATOM     33  C40 YKC d   1       0.993  10.520  26.047  0.00  0.00    -0.051 A 
ATOM     34  H17 YKC d   1      -0.221   9.642  27.673  0.00  0.00     0.114 H 
ATOM     35  H16 YKC d   1       1.957  10.244  26.460  0.00  0.00     0.087 H 
ENDBRANCH  23  26
ENDBRANCH   7  22
BRANCH  13  36
ATOM     36  C14 YKC d   1       8.544  14.343  26.051  0.00  0.00     0.140 A 
ATOM     37  N15 YKC d   1       9.494  14.155  25.123  0.00  0.00    -0.228 NA
ATOM     38  C18 YKC d   1      10.694  14.278  25.756  0.00  0.00     0.088 A 
ATOM     39  C17 YKC d   1      10.392  14.502  27.163  0.00  0.00     0.080 A 
ATOM     40  C19 YKC d   1      12.015  14.215  25.285  0.00  0.00    -0.036 A 
ATOM     41  N16 YKC d   1       9.059  14.515  27.311  0.00  0.00    -0.337 N 
ATOM     42  C22 YKC d   1      11.429  14.657  28.062  0.00  0.00     0.030 A 
ATOM     43  H9  YKC d   1       8.532  14.630  28.188  0.00  0.00     0.167 HD
ATOM     44  N21 YKC d   1      12.727  14.615  27.608  0.00  0.00    -0.271 NA
ATOM     45  H12 YKC d   1      11.222  14.810  29.115  0.00  0.00     0.118 H 
ATOM     46  C20 YKC d   1      12.996  14.432  26.247  0.00  0.00     0.004 A 
ATOM     47  H11 YKC d   1      14.030  14.461  25.923  0.00  0.00     0.114 H 
ATOM     48  H10 YKC d   1      12.253  14.012  24.247  0.00  0.00     0.089 H 
ENDBRANCH  13  36
TORSDOF 3
