REMARK  3 active torsions:
REMARK  status: ('A' for Active; 'I' for Inactive)
REMARK    1  A    between atoms: C7_7  and  N23_23 
REMARK    2  A    between atoms: C13_13  and  C14_14 
REMARK       I    between atoms: N23_23  and  C24_24 
REMARK    3  A    between atoms: C24_24  and  C25_25 
ROOT
ATOM      1  C1  YKE d   1       8.463  10.407  23.514  0.00  0.00    -0.082 C 
ATOM      2  C2  YKE d   1       7.365   9.746  22.979  0.00  0.00    -0.082 C 
ATOM      3  C3  YKE d   1       6.096  10.286  23.121  0.00  0.00    -0.074 C 
ATOM      4  C4  YKE d   1       8.335  11.593  24.237  0.00  0.00    -0.072 C 
ATOM      5  C5  YKE d   1       7.063  12.161  24.372  0.00  0.00    -0.016 C 
ATOM      6  C6  YKE d   1       5.970  11.532  23.709  0.00  0.00    -0.020 C 
ATOM      7  C7  YKE d   1       4.869  12.199  24.413  0.00  0.00     0.065 C 
ATOM      8  C8  YKE d   1       6.584  13.388  25.087  0.00  0.00    -0.003 A 
ATOM      9  C9  YKE d   1       5.213  13.549  24.869  0.00  0.00    -0.019 A 
ATOM     10  C10 YKE d   1       4.461  14.539  25.473  0.00  0.00    -0.074 A 
ATOM     11  C11 YKE d   1       5.111  15.490  26.249  0.00  0.00    -0.081 A 
ATOM     12  C12 YKE d   1       6.477  15.405  26.454  0.00  0.00    -0.068 A 
ATOM     13  C13 YKE d   1       7.231  14.376  25.872  0.00  0.00     0.022 A 
ATOM     14  H1  YKE d   1       9.451   9.988  23.365  0.00  0.00     0.083 H 
ATOM     15  H2  YKE d   1       7.500   8.809  22.451  0.00  0.00     0.083 H 
ATOM     16  H3  YKE d   1       5.222   9.744  22.779  0.00  0.00     0.084 H 
ATOM     17  H4  YKE d   1       9.202  12.065  24.685  0.00  0.00     0.084 H 
ATOM     18  H5  YKE d   1       5.170  11.737  25.365  0.00  0.00     0.088 H 
ATOM     19  H6  YKE d   1       3.385  14.572  25.344  0.00  0.00     0.084 H 
ATOM     20  H7  YKE d   1       4.547  16.301  26.695  0.00  0.00     0.083 H 
ATOM     21  H8  YKE d   1       6.971  16.145  27.073  0.00  0.00     0.085 H 
ENDROOT
BRANCH   7  22
ATOM     22  N23 YKE d   1       3.519  11.723  24.608  0.00  0.00    -0.344 N 
ATOM     23  C24 YKE d   1       2.775  10.672  24.264  0.00  0.00     0.253 C 
ATOM     24  O26 YKE d   1       2.884  10.123  23.177  0.00  0.00    -0.268 OA
ATOM     25  H13 YKE d   1       2.990  12.368  25.160  0.00  0.00     0.163 HD
BRANCH  23  26
ATOM     26  C25 YKE d   1       1.674  10.372  25.224  0.00  0.00     0.044 A 
ATOM     27  C27 YKE d   1       2.009   9.651  26.383  0.00  0.00    -0.067 A 
ATOM     28  C29 YKE d   1       1.035   9.281  27.325  0.00  0.00    -0.080 A 
ATOM     29  H14 YKE d   1       3.043   9.374  26.554  0.00  0.00     0.085 H 
ATOM     30  C28 YKE d   1      -0.285   9.610  27.152  0.00  0.00    -0.054 A 
ATOM     31  H16 YKE d   1       1.333   8.724  28.206  0.00  0.00     0.083 H 
ATOM     32  C31 YKE d   1      -0.663  10.332  25.969  0.00  0.00     0.067 A 
ATOM     33  H15 YKE d   1      -1.027   9.331  27.892  0.00  0.00     0.087 H 
ATOM     34  C30 YKE d   1       0.309  10.734  25.001  0.00  0.00     0.008 A 
ATOM     35  N32 YKE d   1      -1.942  10.670  25.771  0.00  0.00    -0.260 NA
ATOM     36  C35 YKE d   1      -0.106  11.466  23.860  0.00  0.00    -0.068 A 
ATOM     37  C34 YKE d   1      -1.463  11.701  23.673  0.00  0.00    -0.065 A 
ATOM     38  H19 YKE d   1       0.622  11.836  23.147  0.00  0.00     0.085 H 
ATOM     39  C33 YKE d   1      -2.326  11.262  24.664  0.00  0.00     0.003 A 
ATOM     40  H18 YKE d   1      -1.831  12.207  22.788  0.00  0.00     0.085 H 
ATOM     41  H17 YKE d   1      -3.388  11.418  24.515  0.00  0.00     0.114 H 
ENDBRANCH  23  26
ENDBRANCH   7  22
BRANCH  13  42
ATOM     42  C14 YKE d   1       8.673  14.389  26.150  0.00  0.00     0.140 A 
ATOM     43  N15 YKE d   1       9.202  14.559  27.360  0.00  0.00    -0.228 NA
ATOM     44  C18 YKE d   1      10.550  14.596  27.248  0.00  0.00     0.088 A 
ATOM     45  C17 YKE d   1      10.847  14.423  25.878  0.00  0.00     0.080 A 
ATOM     46  C19 YKE d   1      11.600  14.755  28.176  0.00  0.00    -0.036 A 
ATOM     47  N16 YKE d   1       9.639  14.275  25.215  0.00  0.00    -0.337 N 
ATOM     48  C22 YKE d   1      12.176  14.424  25.469  0.00  0.00     0.030 A 
ATOM     49  H9  YKE d   1       9.505  14.110  24.207  0.00  0.00     0.167 HD
ATOM     50  N21 YKE d   1      13.123  14.626  26.378  0.00  0.00    -0.271 NA
ATOM     51  H12 YKE d   1      12.434  14.263  24.428  0.00  0.00     0.118 H 
ATOM     52  C20 YKE d   1      12.887  14.772  27.680  0.00  0.00     0.004 A 
ATOM     53  H11 YKE d   1      13.719  14.906  28.361  0.00  0.00     0.114 H 
ATOM     54  H10 YKE d   1      11.403  14.860  29.237  0.00  0.00     0.089 H 
ENDBRANCH  13  42
TORSDOF 3
