REMARK  3 active torsions:
REMARK  status: ('A' for Active; 'I' for Inactive)
REMARK       I    between atoms: N4_8  and  C11_17 
REMARK    1  A    between atoms: C16_22  and  N4_8 
REMARK    2  A    between atoms: C26_32  and  N6_12 
REMARK    3  A    between atoms: C11_17  and  C12_18 
ROOT
ATOM      1  C1  YKJ d   1      13.163  14.508  26.333  0.00  0.00     0.004 A 
ATOM      2  N1  YKJ d   1      12.920  14.684  27.690  0.00  0.00    -0.271 NA
ATOM      3  C2  YKJ d   1      11.599  14.738  28.143  0.00  0.00     0.030 A 
ATOM      4  N2  YKJ d   1       9.146  14.631  27.357  0.00  0.00    -0.337 N 
ATOM      5  C3  YKJ d   1      12.134  14.372  25.377  0.00  0.00    -0.036 A 
ATOM      6  N3  YKJ d   1       9.616  14.348  25.222  0.00  0.00    -0.228 NA
ATOM      7  C4  YKJ d   1       8.609  14.470  26.112  0.00  0.00     0.140 A 
ATOM      8  C5  YKJ d   1      10.814  14.433  25.844  0.00  0.00     0.088 A 
ATOM      9  C6  YKJ d   1      10.525  14.612  27.246  0.00  0.00     0.080 A 
ATOM     10  C7  YKJ d   1       7.253  14.466  25.885  0.00  0.00     0.022 A 
ATOM     11  C8  YKJ d   1       4.387  14.733  25.516  0.00  0.00    -0.074 A 
ATOM     12  C9  YKJ d   1       5.099  15.703  26.288  0.00  0.00    -0.081 A 
ATOM     13  C10 YKJ d   1       6.512  15.557  26.457  0.00  0.00    -0.068 A 
ATOM     14  C16 YKJ d   1       4.571  12.617  24.169  0.00  0.00     0.065 A 
ATOM     15  C17 YKJ d   1       5.098  13.643  24.946  0.00  0.00    -0.019 A 
ATOM     16  C18 YKJ d   1       6.502  13.460  25.098  0.00  0.00    -0.003 A 
ATOM     17  C19 YKJ d   1       5.626  11.683  23.787  0.00  0.00    -0.020 A 
ATOM     18  C20 YKJ d   1       6.845  12.263  24.391  0.00  0.00    -0.016 A 
ATOM     19  C21 YKJ d   1       8.080  11.553  24.179  0.00  0.00    -0.072 A 
ATOM     20  C22 YKJ d   1       8.131  10.330  23.408  0.00  0.00    -0.082 A 
ATOM     21  C23 YKJ d   1       6.930   9.796  22.836  0.00  0.00    -0.082 A 
ATOM     22  C24 YKJ d   1       5.689  10.486  23.032  0.00  0.00    -0.074 A 
ATOM     23  H   YKJ d   1      14.197  14.473  25.991  0.00  0.00     0.114 H 
ATOM     24  H   YKJ d   1      11.399  14.880  29.205  0.00  0.00     0.118 H 
ATOM     25  H   YKJ d   1       8.619  14.746  28.223  0.00  0.00     0.167 HD
ATOM     26  H   YKJ d   1      12.356  14.226  24.320  0.00  0.00     0.089 H 
ATOM     27  H   YKJ d   1       3.312  14.829  25.366  0.00  0.00     0.084 H 
ATOM     28  H   YKJ d   1       4.572  16.543  26.742  0.00  0.00     0.083 H 
ATOM     29  H   YKJ d   1       7.048  16.303  27.043  0.00  0.00     0.085 H 
ATOM     30  H   YKJ d   1       4.168  13.117  23.289  0.00  0.00     0.088 H 
ATOM     31  H   YKJ d   1       9.000  11.947  24.611  0.00  0.00     0.084 H 
ATOM     32  H   YKJ d   1       9.081   9.816  23.262  0.00  0.00     0.083 H 
ATOM     33  H   YKJ d   1       6.960   8.873  22.257  0.00  0.00     0.083 H 
ATOM     34  H   YKJ d   1       4.777  10.082  22.592  0.00  0.00     0.084 H 
ENDROOT
BRANCH  14  35
ATOM     35  N4  YKJ d   1       3.312  11.859  24.759  0.00  0.00    -0.344 N 
ATOM     36  C11 YKJ d   1       2.218  11.729  24.001  0.00  0.00     0.252 C 
ATOM     37  O13 YKJ d   1       2.194  11.888  22.778  0.00  0.00    -0.268 OA
ATOM     38  H   YKJ d   1       3.335  11.475  25.704  0.00  0.00     0.163 HD
BRANCH  36  39
ATOM     39  C12 YKJ d   1       0.868  11.339  24.766  0.00  0.00     0.037 A 
ATOM     40  C14 YKJ d   1      -0.419  11.697  24.280  0.00  0.00    -0.051 A 
ATOM     41  C15 YKJ d   1      -1.539  11.295  25.041  0.00  0.00     0.005 A 
ATOM     42  H   YKJ d   1      -0.537  12.261  23.355  0.00  0.00     0.087 H 
ATOM     43  N5  YKJ d   1      -1.413  10.580  26.221  0.00  0.00    -0.244 NA
ATOM     44  H   YKJ d   1      -2.537  11.556  24.688  0.00  0.00     0.114 H 
ATOM     45  C26 YKJ d   1      -0.147  10.246  26.669  0.00  0.00     0.121 A 
ATOM     46  C25 YKJ d   1       1.038  10.597  25.987  0.00  0.00    -0.024 A 
ATOM     47  H   YKJ d   1       2.023  10.322  26.363  0.00  0.00     0.090 H 
BRANCH  45  48
ATOM     48  N6  YKJ d   1      -0.074   9.558  27.807  0.00  0.00    -0.384 N 
ATOM     49  H   YKJ d   1       0.835   9.287  28.182  0.00  0.00     0.157 HD
ATOM     50  H   YKJ d   1      -0.927   9.302  28.304  0.00  0.00     0.157 HD
ENDBRANCH  45  48
ENDBRANCH  36  39
ENDBRANCH  14  35
TORSDOF 3
