REMARK  4 active torsions:
REMARK  status: ('A' for Active; 'I' for Inactive)
REMARK    1  A    between atoms: N_1  and  CA_2 
REMARK    2  A    between atoms: CA_2  and  C_3 
REMARK    3  A    between atoms: CA_2  and  CB_5 
REMARK    4  A    between atoms: CB_5  and  SG_6 
ROOT
ATOM      1  CA  CYS d   1       7.587   2.869  -1.572  0.00  0.00     0.190 C 
ATOM      2  H4  CYS d   1       6.907   2.518  -2.363  0.00  0.00     0.102 H 
ENDROOT
BRANCH   1   3
ATOM      3  N   CYS d   1       8.978   2.637  -2.013  0.00  0.00    -0.065 N 
ATOM      4  H1  CYS d   1       9.121   1.651  -2.169  0.00  0.00     0.275 HD
ATOM      5  H2  CYS d   1       9.614   2.960  -1.301  0.00  0.00     0.275 HD
ATOM      6  H3  CYS d   1       9.148   3.141  -2.869  0.00  0.00     0.275 HD
ENDBRANCH   1   3
BRANCH   1   7
ATOM      7  C   CYS d   1       7.335   4.357  -1.325  0.00  0.00     0.205 C 
ATOM      8  O   CYS d   1       8.320   5.033  -0.957  0.00  0.00    -0.646 OA
ATOM      9  OXT CYS d   1       6.170   4.780  -1.464  0.00  0.00    -0.646 OA
ENDBRANCH   1   7
BRANCH   1  10
ATOM     10  CB  CYS d   1       7.287   2.100  -0.282  0.00  0.00     0.010 C 
ATOM     11  H5  CYS d   1       6.261   2.341   0.034  0.00  0.00     0.052 H 
ATOM     12  H6  CYS d   1       7.996   2.431   0.491  0.00  0.00     0.052 H 
BRANCH  10  13
ATOM     13  SG  CYS d   1       7.423   0.322  -0.448  0.00  0.00    -0.180 SA
ATOM     14  H7  CYS d   1       7.213  -0.114   0.436  0.00  0.00     0.101 HD
ENDBRANCH  10  13
ENDBRANCH   1  10
TORSDOF 4
