REMARK  10 active torsions:
REMARK  status: ('A' for Active; 'I' for Inactive)
REMARK    1  A    between atoms: C01_1  and  C02_2 
REMARK    2  A    between atoms: C05_5  and  O08_8 
REMARK    3  A    between atoms: O08_8  and  C09_9 
REMARK    4  A    between atoms: C09_9  and  C10_10 
REMARK    5  A    between atoms: C10_10  and  N11_11 
REMARK    6  A    between atoms: C19_19  and  S20_20 
REMARK    7  A    between atoms: S20_20  and  C21_21 
REMARK    8  A    between atoms: C21_21  and  C22_22 
REMARK    9  A    between atoms: C22_22  and  O23_23 
REMARK   10  A    between atoms: O23_23  and  C24_24 
ROOT
ATOM      1  N11 YLO d   1     -18.755  16.024 -30.594  0.00  0.00    -0.322 N 
ATOM      2  C12 YLO d   1     -18.002  16.100 -29.437  0.00  0.00     0.065 A 
ATOM      3  C13 YLO d   1     -17.753  17.106 -28.519  0.00  0.00    -0.055 A 
ATOM      4  C14 YLO d   1     -16.952  16.933 -27.431  0.00  0.00    -0.081 A 
ATOM      5  C15 YLO d   1     -16.365  15.718 -27.216  0.00  0.00    -0.081 A 
ATOM      6  C16 YLO d   1     -16.601  14.716 -28.131  0.00  0.00    -0.053 A 
ATOM      7  C17 YLO d   1     -17.423  14.903 -29.250  0.00  0.00     0.086 A 
ATOM      8  N18 YLO d   1     -17.803  14.075 -30.294  0.00  0.00    -0.222 NA
ATOM      9  C19 YLO d   1     -18.606  14.775 -31.092  0.00  0.00     0.170 A 
ATOM     10  H   YLO d   1     -18.218  18.079 -28.674  0.00  0.00     0.087 H 
ATOM     11  H   YLO d   1     -16.781  17.757 -26.738  0.00  0.00     0.083 H 
ATOM     12  H   YLO d   1     -15.729  15.547 -26.347  0.00  0.00     0.083 H 
ATOM     13  H   YLO d   1     -16.132  13.744 -27.979  0.00  0.00     0.087 H 
ENDROOT
BRANCH   1  14
ATOM     14  C10 YLO d   1     -19.504  17.147 -31.180  0.00  0.00     0.022 C 
ATOM     15  H   YLO d   1     -19.641  17.786 -30.308  0.00  0.00     0.068 H 
ATOM     16  H   YLO d   1     -18.913  17.351 -32.073  0.00  0.00     0.068 H 
BRANCH  14  17
ATOM     17  C09 YLO d   1     -20.883  17.132 -31.745  0.00  0.00     0.041 C 
ATOM     18  H   YLO d   1     -20.825  16.810 -32.785  0.00  0.00     0.077 H 
ATOM     19  H   YLO d   1     -21.492  16.454 -31.148  0.00  0.00     0.077 H 
BRANCH  17  20
ATOM     20  O08 YLO d   1     -21.464  18.389 -31.708  0.00  0.00    -0.350 OA
BRANCH  20  21
ATOM     21  C05 YLO d   1     -22.431  18.686 -30.734  0.00  0.00     0.068 A 
ATOM     22  C04 YLO d   1     -22.997  19.935 -30.688  0.00  0.00    -0.050 A 
ATOM     23  C03 YLO d   1     -23.966  20.213 -29.731  0.00  0.00    -0.075 A 
ATOM     24  H   YLO d   1     -22.689  20.704 -31.397  0.00  0.00     0.087 H 
ATOM     25  C02 YLO d   1     -24.400  19.300 -28.764  0.00  0.00    -0.062 A 
ATOM     26  H   YLO d   1     -24.416  21.206 -29.734  0.00  0.00     0.084 H 
ATOM     27  C07 YLO d   1     -23.826  18.044 -28.787  0.00  0.00    -0.075 A 
ATOM     28  C06 YLO d   1     -22.860  17.759 -29.761  0.00  0.00    -0.050 A 
ATOM     29  H   YLO d   1     -24.120  17.287 -28.060  0.00  0.00     0.084 H 
ATOM     30  H   YLO d   1     -22.415  16.764 -29.767  0.00  0.00     0.087 H 
BRANCH  25  31
ATOM     31  C01 YLO d   1     -25.482  19.661 -27.748  0.00  0.00    -0.051 C 
ATOM     32  H   YLO d   1     -25.151  20.512 -27.153  0.00  0.00     0.033 H 
ATOM     33  H   YLO d   1     -26.401  19.919 -28.274  0.00  0.00     0.033 H 
ATOM     34  H   YLO d   1     -25.664  18.808 -27.094  0.00  0.00     0.033 H 
ENDBRANCH  25  31
ENDBRANCH  20  21
ENDBRANCH  17  20
ENDBRANCH  14  17
ENDBRANCH   1  14
BRANCH   9  35
ATOM     35  S20 YLO d   1     -19.273  14.118 -32.506  0.00  0.00    -0.090 SA
BRANCH  35  36
ATOM     36  C21 YLO d   1     -20.416  12.788 -32.287  0.00  0.00     0.004 C 
ATOM     37  H   YLO d   1     -21.424  13.201 -32.243  0.00  0.00     0.052 H 
ATOM     38  H   YLO d   1     -20.163  12.261 -31.367  0.00  0.00     0.052 H 
BRANCH  36  39
ATOM     39  C22 YLO d   1     -20.347  11.800 -33.446  0.00  0.00     0.034 C 
ATOM     40  H   YLO d   1     -20.179  10.828 -32.982  0.00  0.00     0.076 H 
ATOM     41  H   YLO d   1     -19.582  12.197 -34.114  0.00  0.00     0.076 H 
BRANCH  39  42
ATOM     42  O23 YLO d   1     -21.476  11.632 -34.244  0.00  0.00    -0.350 OA
BRANCH  42  43
ATOM     43  C24 YLO d   1     -21.726  12.466 -35.313  0.00  0.00     0.068 A 
ATOM     44  C25 YLO d   1     -20.852  12.570 -36.366  0.00  0.00    -0.051 A 
ATOM     45  C26 YLO d   1     -21.124  13.400 -37.442  0.00  0.00    -0.080 A 
ATOM     46  H   YLO d   1     -19.929  11.990 -36.356  0.00  0.00     0.087 H 
ATOM     47  C27 YLO d   1     -22.297  14.124 -37.463  0.00  0.00    -0.083 A 
ATOM     48  H   YLO d   1     -20.415  13.480 -38.266  0.00  0.00     0.083 H 
ATOM     49  C28 YLO d   1     -23.170  14.025 -36.416  0.00  0.00    -0.080 A 
ATOM     50  H   YLO d   1     -22.527  14.771 -38.309  0.00  0.00     0.083 H 
ATOM     51  C29 YLO d   1     -22.899  13.192 -35.354  0.00  0.00    -0.051 A 
ATOM     52  H   YLO d   1     -24.089  14.611 -36.422  0.00  0.00     0.083 H 
ATOM     53  H   YLO d   1     -23.617  13.105 -34.538  0.00  0.00     0.087 H 
ENDBRANCH  42  43
ENDBRANCH  39  42
ENDBRANCH  36  39
ENDBRANCH  35  36
ENDBRANCH   9  35
TORSDOF 10
