REMARK  5 active torsions:
REMARK  status: ('A' for Active; 'I' for Inactive)
REMARK    1  A    between atoms: C12_4  and  C16_2 
REMARK    2  A    between atoms: C9_12  and  C10_6 
REMARK    3  A    between atoms: S8_10  and  C9_12 
REMARK    4  A    between atoms: C7_16  and  S8_10 
REMARK    5  A    between atoms: C2_15  and  C7_16 
ROOT
ATOM      1  C9  056 d   1      19.599 -15.852 -31.114  0.00  0.00     0.001 C 
ATOM      2  H   056 d   1      19.227 -16.552 -31.863  0.00  0.00     0.056 H 
ATOM      3  H   056 d   1      20.634 -16.154 -30.951  0.00  0.00     0.056 H 
ENDROOT
BRANCH   1   4
ATOM      4  C10 056 d   1      18.789 -15.899 -29.843  0.00  0.00    -0.048 A 
ATOM      5  C11 056 d   1      17.954 -16.946 -29.488  0.00  0.00    -0.060 A 
ATOM      6  C12 056 d   1      17.252 -16.863 -28.285  0.00  0.00     0.041 A 
ATOM      7  H   056 d   1      17.848 -17.817 -30.135  0.00  0.00     0.086 H 
ATOM      8  C13 056 d   1      17.346 -15.765 -27.464  0.00  0.00    -0.066 A 
ATOM      9  C14 056 d   1      18.170 -14.735 -27.834  0.00  0.00    -0.081 A 
ATOM     10  H   056 d   1      16.776 -15.715 -26.536  0.00  0.00     0.085 H 
ATOM     11  C15 056 d   1      18.874 -14.805 -29.019  0.00  0.00    -0.076 A 
ATOM     12  H   056 d   1      18.270 -13.860 -27.192  0.00  0.00     0.083 H 
ATOM     13  H   056 d   1      19.513 -13.971 -29.308  0.00  0.00     0.084 H 
BRANCH   6  14
ATOM     14  C16 056 d   1      16.330 -17.924 -27.808  0.00  0.00     0.209 C 
ATOM     15  O17 056 d   1      15.272 -17.517 -27.295  0.00  0.00    -0.644 OA
ATOM     16  O18 056 d   1      16.626 -19.137 -27.914  0.00  0.00    -0.644 OA
ENDBRANCH   6  14
ENDBRANCH   1   4
BRANCH   1  17
ATOM     17  S8  056 d   1      19.474 -14.171 -31.655  0.00  0.00    -0.160 SA
BRANCH  17  18
ATOM     18  C7  056 d   1      21.013 -13.578 -32.269  0.00  0.00     0.002 C 
ATOM     19  H   056 d   1      21.631 -14.451 -32.478  0.00  0.00     0.056 H 
ATOM     20  H   056 d   1      21.421 -12.907 -31.514  0.00  0.00     0.056 H 
BRANCH  18  21
ATOM     21  C2  056 d   1      20.911 -12.787 -33.558  0.00  0.00    -0.027 A 
ATOM     22  C1  056 d   1      19.907 -13.051 -34.647  0.00  0.00     0.042 A 
ATOM     23  C6  056 d   1      19.934 -12.245 -35.786  0.00  0.00    -0.040 A 
ATOM     24 CL1  056 d   1      18.643 -14.341 -34.558  0.00  0.00    -0.084 Cl
ATOM     25  C5  056 d   1      20.875 -11.224 -35.916  0.00  0.00     0.035 A 
ATOM     26  H   056 d   1      19.211 -12.416 -36.584  0.00  0.00     0.088 H 
ATOM     27  C4  056 d   1      21.806 -11.004 -34.899  0.00  0.00    -0.061 A 
ATOM     28 CL2  056 d   1      20.887 -10.186 -37.397  0.00  0.00    -0.084 Cl
ATOM     29  C3  056 d   1      21.835 -11.765 -33.738  0.00  0.00    -0.073 A 
ATOM     30  H   056 d   1      22.537 -10.205 -35.021  0.00  0.00     0.086 H 
ATOM     31  H   056 d   1      22.581 -11.561 -32.970  0.00  0.00     0.084 H 
ENDBRANCH  18  21
ENDBRANCH  17  18
ENDBRANCH   1  17
TORSDOF 5
