REMARK  9 active torsions:
REMARK  status: ('A' for Active; 'I' for Inactive)
REMARK    1  A    between atoms: C01_1  and  C02_2 
REMARK    2  A    between atoms: C05_5  and  O06_6 
REMARK    3  A    between atoms: O06_6  and  C07_7 
REMARK    4  A    between atoms: C07_7  and  C08_8 
REMARK    5  A    between atoms: C08_8  and  N09_9 
REMARK    6  A    between atoms: C10_10  and  S11_11 
REMARK    7  A    between atoms: S11_11  and  C12_12 
REMARK    8  A    between atoms: C12_12  and  C13_13 
REMARK    9  A    between atoms: C13_13  and  C14_14 
ROOT
ATOM      1  N09 YLQ d   1      17.723 -16.684 -30.954  0.00  0.00    -0.322 N 
ATOM      2  C10 YLQ d   1      18.697 -15.768 -30.700  0.00  0.00     0.169 A 
ATOM      3  N17 YLQ d   1      18.644 -15.335 -29.434  0.00  0.00    -0.222 NA
ATOM      4  C18 YLQ d   1      17.602 -15.989 -28.836  0.00  0.00     0.086 A 
ATOM      5  C19 YLQ d   1      17.102 -15.921 -27.521  0.00  0.00    -0.053 A 
ATOM      6  C20 YLQ d   1      16.020 -16.720 -27.212  0.00  0.00    -0.081 A 
ATOM      7  C21 YLQ d   1      15.447 -17.573 -28.137  0.00  0.00    -0.081 A 
ATOM      8  C22 YLQ d   1      15.941 -17.651 -29.452  0.00  0.00    -0.055 A 
ATOM      9  C23 YLQ d   1      17.026 -16.836 -29.778  0.00  0.00     0.065 A 
ATOM     10  H   YLQ d   1      17.552 -15.264 -26.777  0.00  0.00     0.087 H 
ATOM     11  H   YLQ d   1      15.604 -16.677 -26.206  0.00  0.00     0.083 H 
ATOM     12  H   YLQ d   1      14.601 -18.194 -27.843  0.00  0.00     0.083 H 
ATOM     13  H   YLQ d   1      15.494 -18.321 -30.187  0.00  0.00     0.087 H 
ENDROOT
BRANCH   1  14
ATOM     14  C08 YLQ d   1      17.486 -17.399 -32.243  0.00  0.00     0.022 C 
ATOM     15  H   YLQ d   1      17.768 -16.670 -33.002  0.00  0.00     0.068 H 
ATOM     16  H   YLQ d   1      18.031 -18.336 -32.127  0.00  0.00     0.068 H 
BRANCH  14  17
ATOM     17  C07 YLQ d   1      16.126 -17.827 -32.648  0.00  0.00     0.041 C 
ATOM     18  H   YLQ d   1      16.196 -18.890 -32.880  0.00  0.00     0.077 H 
ATOM     19  H   YLQ d   1      15.463 -17.561 -31.825  0.00  0.00     0.077 H 
BRANCH  17  20
ATOM     20  O06 YLQ d   1      15.608 -17.214 -33.780  0.00  0.00    -0.350 OA
BRANCH  20  21
ATOM     21  C05 YLQ d   1      14.646 -16.253 -33.715  0.00  0.00     0.068 A 
ATOM     22  C04 YLQ d   1      13.470 -16.447 -32.952  0.00  0.00    -0.050 A 
ATOM     23  C03 YLQ d   1      12.460 -15.418 -32.883  0.00  0.00    -0.075 A 
ATOM     24  H   YLQ d   1      13.325 -17.382 -32.411  0.00  0.00     0.087 H 
ATOM     25  C02 YLQ d   1      12.637 -14.255 -33.574  0.00  0.00    -0.062 A 
ATOM     26  H   YLQ d   1      11.562 -15.569 -32.283  0.00  0.00     0.084 H 
ATOM     27  C25 YLQ d   1      13.835 -14.066 -34.357  0.00  0.00    -0.075 A 
ATOM     28  C24 YLQ d   1      14.818 -15.055 -34.421  0.00  0.00    -0.050 A 
ATOM     29  H   YLQ d   1      13.974 -13.136 -34.907  0.00  0.00     0.084 H 
ATOM     30  H   YLQ d   1      15.716 -14.896 -35.018  0.00  0.00     0.087 H 
BRANCH  25  31
ATOM     31  C01 YLQ d   1      11.598 -13.189 -33.529  0.00  0.00    -0.051 C 
ATOM     32  H   YLQ d   1      10.658 -13.583 -33.916  0.00  0.00     0.033 H 
ATOM     33  H   YLQ d   1      11.459 -12.862 -32.498  0.00  0.00     0.033 H 
ATOM     34  H   YLQ d   1      11.919 -12.345 -34.139  0.00  0.00     0.033 H 
ENDBRANCH  25  31
ENDBRANCH  20  21
ENDBRANCH  17  20
ENDBRANCH  14  17
ENDBRANCH   1  14
BRANCH   2  35
ATOM     35  S11 YLQ d   1      19.834 -15.187 -31.881  0.00  0.00    -0.091 SA
BRANCH  35  36
ATOM     36  C12 YLQ d   1      19.650 -13.383 -31.753  0.00  0.00    -0.007 C 
ATOM     37  H   YLQ d   1      20.260 -13.121 -30.889  0.00  0.00     0.050 H 
ATOM     38  H   YLQ d   1      18.570 -13.232 -31.758  0.00  0.00     0.050 H 
BRANCH  36  39
ATOM     39  C13 YLQ d   1      20.136 -12.477 -32.813  0.00  0.00     0.024 C 
ATOM     40  H   YLQ d   1      19.664 -11.521 -32.584  0.00  0.00     0.050 H 
ATOM     41  H   YLQ d   1      19.906 -13.003 -33.739  0.00  0.00     0.050 H 
BRANCH  39  42
ATOM     42  C14 YLQ d   1      21.584 -12.150 -32.929  0.00  0.00     0.173 C 
ATOM     43  O15 YLQ d   1      22.426 -12.708 -32.207  0.00  0.00    -0.648 OA
ATOM     44  O16 YLQ d   1      21.949 -11.293 -33.803  0.00  0.00    -0.648 OA
ENDBRANCH  39  42
ENDBRANCH  36  39
ENDBRANCH  35  36
ENDBRANCH   2  35
TORSDOF 9
