REMARK  8 active torsions:
REMARK  status: ('A' for Active; 'I' for Inactive)
REMARK    1  A    between atoms: C01_1  and  C02_2 
REMARK    2  A    between atoms: C02_2  and  O03_3 
REMARK    3  A    between atoms: O03_3  and  C04_4 
REMARK    4  A    between atoms: C04_4  and  C06_6 
REMARK    5  A    between atoms: C12_12  and  C13_13 
REMARK    6  A    between atoms: C22_22  and  N23_23 
REMARK    7  A    between atoms: C27_27  and  C28_28 
REMARK    8  A    between atoms: C28_28  and  N29_29 
ROOT
ATOM      1  C13 4YM d   1      13.446  -1.241  11.827  0.00  0.00    -0.003 A 
ATOM      2  C14 4YM d   1      14.305  -2.133  12.445  0.00  0.00    -0.071 A 
ATOM      3  C15 4YM d   1      13.816  -3.086  13.329  0.00  0.00    -0.081 A 
ATOM      4  C16 4YM d   1      12.462  -3.146  13.599  0.00  0.00    -0.063 A 
ATOM      5  C17 4YM d   1      11.601  -2.257  12.984  0.00  0.00     0.045 A 
ATOM      6  C18 4YM d   1      10.148  -2.326  13.278  0.00  0.00     0.099 C 
ATOM      7  N19 4YM d   1       9.041  -2.381  13.505  0.00  0.00    -0.191 NA
ATOM      8  C20 4YM d   1      12.089  -1.303  12.096  0.00  0.00    -0.051 A 
ATOM      9  H   4YM d   1      15.374  -2.087  12.236  0.00  0.00     0.084 H 
ATOM     10  H   4YM d   1      14.500  -3.786  13.809  0.00  0.00     0.083 H 
ATOM     11  H   4YM d   1      12.075  -3.891  14.294  0.00  0.00     0.085 H 
ATOM     12  H   4YM d   1      11.404  -0.606  11.613  0.00  0.00     0.087 H 
ENDROOT
BRANCH   1  13
ATOM     13  C12 4YM d   1      13.918  -0.296  10.943  0.00  0.00     0.103 A 
ATOM     14  N11 4YM d   1      13.200   0.768  10.538  0.00  0.00    -0.172 NA
ATOM     15  N10 4YM d   1      13.955   1.487   9.661  0.00  0.00    -0.260 N 
ATOM     16  C09 4YM d   1      15.171   0.848   9.514  0.00  0.00     0.158 A 
ATOM     17  H   4YM d   1      13.671   2.348   9.194  0.00  0.00     0.191 HD
ATOM     18  N08 4YM d   1      16.239   1.225   8.726  0.00  0.00    -0.240 NA
ATOM     19  C21 4YM d   1      15.208  -0.288  10.296  0.00  0.00     0.065 A 
ATOM     20  C07 4YM d   1      17.362   0.493   8.689  0.00  0.00     0.022 A 
ATOM     21  C06 4YM d   1      17.485  -0.673   9.450  0.00  0.00     0.079 A 
ATOM     22  H   4YM d   1      18.191   0.812   8.057  0.00  0.00     0.116 H 
ATOM     23  C22 4YM d   1      16.415  -1.083  10.275  0.00  0.00     0.045 A 
BRANCH  21  24
ATOM     24  C04 4YM d   1      18.782  -1.394   9.322  0.00  0.00     0.296 C 
ATOM     25  O05 4YM d   1      18.835  -2.609   9.266  0.00  0.00    -0.259 OA
BRANCH  24  26
ATOM     26  O03 4YM d   1      19.937  -0.648   9.214  0.00  0.00    -0.318 OA
BRANCH  26  27
ATOM     27  C02 4YM d   1      20.687  -0.762   8.066  0.00  0.00     0.026 C 
ATOM     28  H   4YM d   1      21.530  -1.399   8.334  0.00  0.00     0.074 H 
ATOM     29  H   4YM d   1      19.995  -1.120   7.304  0.00  0.00     0.074 H 
BRANCH  27  30
ATOM     30  C01 4YM d   1      21.295   0.478   7.497  0.00  0.00    -0.056 C 
ATOM     31  H   4YM d   1      20.506   1.188   7.250  0.00  0.00     0.030 H 
ATOM     32  H   4YM d   1      21.967   0.921   8.231  0.00  0.00     0.030 H 
ATOM     33  H   4YM d   1      21.854   0.226   6.596  0.00  0.00     0.030 H 
ENDBRANCH  27  30
ENDBRANCH  26  27
ENDBRANCH  24  26
ENDBRANCH  21  24
BRANCH  23  34
ATOM     34  N23 4YM d   1      16.528  -2.299  11.062  0.00  0.00    -0.277 NA
ATOM     35  C24 4YM d   1      16.389  -3.415  10.216  0.00  0.00     0.004 C 
ATOM     36  C25 4YM d   1      16.419  -4.671  11.015  0.00  0.00     0.031 C 
ATOM     37  H   4YM d   1      17.212  -3.426   9.501  0.00  0.00     0.059 H 
ATOM     38  H   4YM d   1      15.436  -3.349   9.690  0.00  0.00     0.059 H 
ATOM     39  O26 4YM d   1      17.597  -4.763  11.767  0.00  0.00    -0.382 OA
ATOM     40  H   4YM d   1      16.374  -5.519  10.332  0.00  0.00     0.076 H 
ATOM     41  H   4YM d   1      15.569  -4.670  11.697  0.00  0.00     0.076 H 
ATOM     42  C27 4YM d   1      17.852  -3.644  12.581  0.00  0.00     0.073 C 
ATOM     43  C30 4YM d   1      17.691  -2.343  11.852  0.00  0.00     0.009 C 
ATOM     44  H   4YM d   1      18.896  -3.712  12.887  0.00  0.00     0.087 H 
ATOM     45  H   4YM d   1      17.618  -1.551  12.597  0.00  0.00     0.060 H 
ATOM     46  H   4YM d   1      18.548  -2.224  11.190  0.00  0.00     0.060 H 
BRANCH  42  47
ATOM     47  C28 4YM d   1      16.966  -3.666  13.794  0.00  0.00     0.104 C 
ATOM     48  H   4YM d   1      17.306  -4.442  14.480  0.00  0.00     0.079 H 
ATOM     49  H   4YM d   1      15.940  -3.876  13.492  0.00  0.00     0.079 H 
BRANCH  47  50
ATOM     50  N29 4YM d   1      17.023  -2.384  14.449  0.00  0.00    -0.077 N 
ATOM     51  H   4YM d   1      16.422  -2.397  15.273  0.00  0.00     0.274 HD
ATOM     52  H   4YM d   1      17.984  -2.190  14.731  0.00  0.00     0.274 HD
ATOM     53  H   4YM d   1      16.703  -1.660  13.805  0.00  0.00     0.274 HD
ENDBRANCH  47  50
ENDBRANCH  42  47
ENDBRANCH  23  34
ENDBRANCH   1  13
TORSDOF 8
