REMARK  6 active torsions:
REMARK  status: ('A' for Active; 'I' for Inactive)
REMARK    1  A    between atoms: N01_1  and  C02_2 
REMARK    2  A    between atoms: C02_2  and  C03_3 
REMARK    3  A    between atoms: N05_5  and  C06_6 
REMARK    4  A    between atoms: C13_13  and  C14_14 
REMARK    5  A    between atoms: C18_18  and  C19_19 
REMARK    6  A    between atoms: C19_19  and  O20_20 
ROOT
ATOM      1  C06 YM5 d   1      16.799  -0.678  10.321  0.00  0.00     0.121 A 
ATOM      2  N07 YM5 d   1      17.895  -0.244   9.629  0.00  0.00    -0.229 NA
ATOM      3  C08 YM5 d   1      17.875   0.865   8.806  0.00  0.00     0.090 A 
ATOM      4  N09 YM5 d   1      16.749   1.559   8.673  0.00  0.00    -0.223 NA
ATOM      5  C10 YM5 d   1      15.590   1.181   9.354  0.00  0.00     0.143 A 
ATOM      6  N11 YM5 d   1      14.385   1.745   9.346  0.00  0.00    -0.349 N 
ATOM      7  C12 YM5 d   1      13.525   1.017  10.190  0.00  0.00    -0.009 A 
ATOM      8  C13 YM5 d   1      14.234  -0.018  10.705  0.00  0.00     0.007 A 
ATOM      9  C22 YM5 d   1      15.589   0.048  10.200  0.00  0.00     0.063 A 
ATOM     10  H   YM5 d   1      18.774   1.169   8.270  0.00  0.00     0.146 H 
ATOM     11  H   YM5 d   1      14.125   2.575   8.812  0.00  0.00     0.167 HD
ATOM     12  H   YM5 d   1      12.478   1.244  10.393  0.00  0.00     0.112 H 
ENDROOT
BRANCH   1  13
ATOM     13  N05 YM5 d   1      16.951  -1.851  11.147  0.00  0.00    -0.262 NA
ATOM     14  C04 YM5 d   1      18.264  -2.348  11.040  0.00  0.00     0.011 C 
ATOM     15  C03 YM5 d   1      18.425  -3.473  12.011  0.00  0.00     0.073 C 
ATOM     16  H   YM5 d   1      18.446  -2.703  10.026  0.00  0.00     0.060 H 
ATOM     17  H   YM5 d   1      18.981  -1.558  11.264  0.00  0.00     0.060 H 
ATOM     18  O25 YM5 d   1      17.470  -4.497  11.791  0.00  0.00    -0.382 OA
ATOM     19  H   YM5 d   1      18.247  -3.072  13.009  0.00  0.00     0.087 H 
ATOM     20  C24 YM5 d   1      16.148  -4.018  11.701  0.00  0.00     0.031 C 
ATOM     21  C23 YM5 d   1      16.037  -2.857  10.762  0.00  0.00     0.005 C 
ATOM     22  H   YM5 d   1      15.518  -4.824  11.324  0.00  0.00     0.076 H 
ATOM     23  H   YM5 d   1      15.836  -3.687  12.692  0.00  0.00     0.076 H 
ATOM     24  H   YM5 d   1      16.265  -3.187   9.748  0.00  0.00     0.059 H 
ATOM     25  H   YM5 d   1      15.023  -2.459  10.795  0.00  0.00     0.059 H 
BRANCH  15  26
ATOM     26  C02 YM5 d   1      19.902  -4.053  11.966  0.00  0.00     0.104 C 
ATOM     27  H   YM5 d   1      19.993  -4.558  11.004  0.00  0.00     0.079 H 
ATOM     28  H   YM5 d   1      20.560  -3.203  12.145  0.00  0.00     0.079 H 
BRANCH  26  29
ATOM     29  N01 YM5 d   1      20.247  -5.023  12.946  0.00  0.00    -0.077 N 
ATOM     30  H   YM5 d   1      21.215  -5.313  12.809  0.00  0.00     0.274 HD
ATOM     31  H   YM5 d   1      20.140  -4.618  13.876  0.00  0.00     0.274 HD
ATOM     32  H   YM5 d   1      19.632  -5.832  12.853  0.00  0.00     0.274 HD
ENDBRANCH  26  29
ENDBRANCH  15  26
ENDBRANCH   1  13
BRANCH   8  33
ATOM     33  C14 YM5 d   1      13.723  -0.952  11.620  0.00  0.00    -0.023 A 
ATOM     34  C15 YM5 d   1      12.419  -1.487  11.430  0.00  0.00    -0.072 A 
ATOM     35  C16 YM5 d   1      11.900  -2.357  12.331  0.00  0.00    -0.082 A 
ATOM     36  H   YM5 d   1      11.835  -1.196  10.557  0.00  0.00     0.084 H 
ATOM     37  C17 YM5 d   1      12.644  -2.731  13.490  0.00  0.00    -0.075 A 
ATOM     38  H   YM5 d   1      10.906  -2.774  12.169  0.00  0.00     0.083 H 
ATOM     39  C18 YM5 d   1      13.941  -2.181  13.697  0.00  0.00    -0.034 A 
ATOM     40  H   YM5 d   1      12.223  -3.432  14.211  0.00  0.00     0.084 H 
ATOM     41  C21 YM5 d   1      14.459  -1.306  12.801  0.00  0.00    -0.064 A 
ATOM     42  H   YM5 d   1      15.441  -0.868  12.978  0.00  0.00     0.085 H 
BRANCH  39  43
ATOM     43  C19 YM5 d   1      14.768  -2.585  14.963  0.00  0.00     0.040 C 
ATOM     44  H   YM5 d   1      15.778  -2.775  14.600  0.00  0.00     0.081 H 
ATOM     45  H   YM5 d   1      14.222  -3.414  15.413  0.00  0.00     0.081 H 
BRANCH  43  46
ATOM     46  O20 YM5 d   1      14.913  -1.629  15.993  0.00  0.00    -0.396 OA
ATOM     47  H   YM5 d   1      15.438  -2.003  16.704  0.00  0.00     0.209 HD
ENDBRANCH  43  46
ENDBRANCH  39  43
ENDBRANCH   8  33
TORSDOF 6
