REMARK  3 active torsions:
REMARK  status: ('A' for Active; 'I' for Inactive)
REMARK    1  A    between atoms: NAU_21  and  C6_6 
REMARK    2  A    between atoms: CAF_11  and  NAA_7 
REMARK    3  A    between atoms: CAT_20  and  CAF_11 
ROOT
ATOM      1  CAG YM6 d   1      16.111  -3.753  12.621  0.00  0.00     0.035 C 
ATOM      2  CAH YM6 d   1      15.927  -3.009  11.311  0.00  0.00     0.016 C 
ATOM      3  CAI YM6 d   1      18.335  -2.699  11.122  0.00  0.00     0.022 C 
ATOM      4  OAN YM6 d   1      17.359  -4.459  12.607  0.00  0.00    -0.381 OA
ATOM      5  CAT YM6 d   1      18.430  -3.488  12.435  0.00  0.00     0.076 C 
ATOM      6  NAU YM6 d   1      17.022  -2.047  11.108  0.00  0.00    -0.360 N 
ATOM      7  H   YM6 d   1      15.296  -4.465  12.749  0.00  0.00     0.076 H 
ATOM      8  H   YM6 d   1      16.110  -3.039  13.444  0.00  0.00     0.076 H 
ATOM      9  H   YM6 d   1      14.981  -2.469  11.340  0.00  0.00     0.067 H 
ATOM     10  H   YM6 d   1      15.930  -3.728  10.492  0.00  0.00     0.067 H 
ATOM     11  H   YM6 d   1      18.445  -3.363  10.264  0.00  0.00     0.068 H 
ATOM     12  H   YM6 d   1      19.133  -1.960  11.057  0.00  0.00     0.068 H 
ATOM     13  H   YM6 d   1      19.396  -3.990  12.384  0.00  0.00     0.088 H 
ENDROOT
BRANCH   6  14
ATOM     14  C6  YM6 d   1      16.828  -0.847  10.428  0.00  0.00     0.142 C 
ATOM     15  N1  YM6 d   1      17.829  -0.476   9.612  0.00  0.00    -0.224 NA
ATOM     16  C2  YM6 d   1      17.747   0.597   8.849  0.00  0.00     0.091 C 
ATOM     17  N3  YM6 d   1      16.647   1.328   8.831  0.00  0.00    -0.223 NA
ATOM     18  H   YM6 d   1      18.595   0.883   8.227  0.00  0.00     0.146 H 
ATOM     19  C4  YM6 d   1      15.587   0.993   9.577  0.00  0.00     0.144 A 
ATOM     20  C5  YM6 d   1      15.623  -0.152  10.362  0.00  0.00     0.068 A 
ATOM     21  NAM YM6 d   1      14.395   1.575   9.721  0.00  0.00    -0.338 N 
ATOM     22  CAQ YM6 d   1      14.393  -0.192  11.032  0.00  0.00     0.011 A 
ATOM     23  CAD YM6 d   1      13.799  -1.046  11.952  0.00  0.00    -0.053 A 
ATOM     24  CAP YM6 d   1      13.647   0.887  10.582  0.00  0.00     0.062 A 
ATOM     25  CAB YM6 d   1      12.499  -0.788  12.387  0.00  0.00     0.003 A 
ATOM     26  H   YM6 d   1      14.344  -1.911  12.331  0.00  0.00     0.087 H 
ATOM     27  NAJ YM6 d   1      11.825   0.260  11.941  0.00  0.00    -0.271 NA
ATOM     28  H   YM6 d   1      12.031  -1.460  13.106  0.00  0.00     0.114 H 
ATOM     29  CAE YM6 d   1      12.360   1.092  11.060  0.00  0.00     0.028 A 
ATOM     30  H   YM6 d   1      11.783   1.947  10.707  0.00  0.00     0.118 H 
ATOM     31  H   YM6 d   1      14.099   2.425   9.241  0.00  0.00     0.167 HD
ENDBRANCH   6  14
BRANCH   5  32
ATOM     32  CAF YM6 d   1      18.292  -2.541  13.646  0.00  0.00     0.105 C 
ATOM     33  H   YM6 d   1      19.085  -1.795  13.597  0.00  0.00     0.079 H 
ATOM     34  H   YM6 d   1      17.308  -2.072  13.612  0.00  0.00     0.079 H 
BRANCH  32  35
ATOM     35  NAA YM6 d   1      18.418  -3.279  14.914  0.00  0.00    -0.077 N 
ATOM     36  H   YM6 d   1      18.323  -2.630  15.695  0.00  0.00     0.274 HD
ATOM     37  H   YM6 d   1      17.686  -3.987  14.968  0.00  0.00     0.274 HD
ATOM     38  H   YM6 d   1      19.332  -3.730  14.954  0.00  0.00     0.274 HD
ENDBRANCH  32  35
ENDBRANCH   5  32
TORSDOF 3
