REMARK  5 active torsions:
REMARK  status: ('A' for Active; 'I' for Inactive)
REMARK    1  A    between atoms: CAW_6  and  CAK_7 
REMARK    2  A    between atoms: CAK_7  and  NAQ_8 
REMARK    3  A    between atoms: NAQ_8  and  C6_9 
REMARK    4  A    between atoms: C4_14  and  NAR_15 
REMARK    5  A    between atoms: NAR_15  and  CAT_16 
ROOT
ATOM      1  CAT YM7 d   1      13.864   0.537  10.370  0.00  0.00     0.146 A 
ATOM      2  CAE YM7 d   1      12.743   1.282  10.805  0.00  0.00     0.048 A 
ATOM      3  NAN YM7 d   1      11.846   0.727  11.658  0.00  0.00    -0.245 NA
ATOM      4  CAS YM7 d   1      12.033  -0.525  12.080  0.00  0.00     0.153 A 
ATOM      5  CAB YM7 d   1      11.047  -1.171  12.989  0.00  0.00     0.121 C 
ATOM      6  NAA YM7 d   1      10.272  -1.660  13.653  0.00  0.00    -0.190 NA
ATOM      7  CAD YM7 d   1      13.168  -1.286  11.633  0.00  0.00     0.043 A 
ATOM      8  NAO YM7 d   1      14.050  -0.737  10.795  0.00  0.00    -0.239 NA
ATOM      9  H   YM7 d   1      12.600   2.304  10.454  0.00  0.00     0.120 H 
ATOM     10  H   YM7 d   1      13.308  -2.310  11.978  0.00  0.00     0.119 H 
ENDROOT
BRANCH   1  11
ATOM     11  NAR YM7 d   1      14.809   1.158   9.423  0.00  0.00    -0.324 N 
ATOM     12  H   YM7 d   1      14.473   1.947   8.870  0.00  0.00     0.169 HD
BRANCH  11  13
ATOM     13  C4  YM7 d   1      16.107   0.753   9.230  0.00  0.00     0.134 A 
ATOM     14  C5  YM7 d   1      16.589  -0.498   9.723  0.00  0.00     0.005 A 
ATOM     15  C6  YM7 d   1      17.995  -0.837   9.481  0.00  0.00     0.128 A 
ATOM     16  H   YM7 d   1      15.932  -1.180  10.263  0.00  0.00     0.095 H 
ATOM     17  N1  YM7 d   1      18.780   0.012   8.811  0.00  0.00    -0.225 NA
ATOM     18  C2  YM7 d   1      18.282   1.188   8.348  0.00  0.00     0.091 A 
ATOM     19  N3  YM7 d   1      16.925   1.552   8.567  0.00  0.00    -0.224 NA
ATOM     20  H   YM7 d   1      18.935   1.866   7.798  0.00  0.00     0.146 H 
BRANCH  15  21
ATOM     21  NAQ YM7 d   1      18.557  -2.137   9.939  0.00  0.00    -0.374 N 
ATOM     22  H   YM7 d   1      19.553  -2.316   9.810  0.00  0.00     0.161 HD
BRANCH  21  23
ATOM     23  CAK YM7 d   1      17.738  -3.158  10.562  0.00  0.00    -0.003 C 
ATOM     24  H   YM7 d   1      16.814  -3.177   9.985  0.00  0.00     0.064 H 
ATOM     25  H   YM7 d   1      18.357  -4.055  10.574  0.00  0.00     0.064 H 
BRANCH  23  26
ATOM     26  CAW YM7 d   1      17.289  -2.944  12.057  0.00  0.00    -0.036 C 
ATOM     27  CAI YM7 d   1      18.468  -2.632  12.877  0.00  0.00    -0.038 C 
ATOM     28  CAG YM7 d   1      18.113  -2.521  14.333  0.00  0.00     0.082 C 
ATOM     29  H   YM7 d   1      19.193  -3.437  12.759  0.00  0.00     0.036 H 
ATOM     30  H   YM7 d   1      18.875  -1.676  12.547  0.00  0.00     0.036 H 
ATOM     31  NAP YM7 d   1      17.443  -3.714  14.815  0.00  0.00    -0.075 N 
ATOM     32  H   YM7 d   1      17.438  -1.674  14.458  0.00  0.00     0.075 H 
ATOM     33  H   YM7 d   1      19.034  -2.391  14.902  0.00  0.00     0.075 H 
ATOM     34  CAH YM7 d   1      16.264  -4.043  14.008  0.00  0.00     0.082 C 
ATOM     35  H   YM7 d   1      17.137  -3.544  15.773  0.00  0.00     0.277 HD
ATOM     36  H   YM7 d   1      18.098  -4.494  14.757  0.00  0.00     0.277 HD
ATOM     37  CAJ YM7 d   1      16.582  -4.130  12.542  0.00  0.00    -0.038 C 
ATOM     38  H   YM7 d   1      15.527  -3.252  14.148  0.00  0.00     0.075 H 
ATOM     39  H   YM7 d   1      15.893  -5.016  14.332  0.00  0.00     0.075 H 
ATOM     40  H   YM7 d   1      15.642  -4.211  11.996  0.00  0.00     0.036 H 
ATOM     41  H   YM7 d   1      17.226  -4.995  12.386  0.00  0.00     0.036 H 
ATOM     42  H   YM7 d   1      16.598  -2.104  12.125  0.00  0.00     0.042 H 
ENDBRANCH  23  26
ENDBRANCH  21  23
ENDBRANCH  15  21
ENDBRANCH  11  13
ENDBRANCH   1  11
TORSDOF 5
