REMARK  9 active torsions:
REMARK  status: ('A' for Active; 'I' for Inactive)
REMARK    1  A    between atoms: CAZ_26  and  CAA_1 
REMARK    2  A    between atoms: NBA_27  and  CAB_2 
REMARK    3  A    between atoms: NBA_27  and  CAC_3 
REMARK    4  A    between atoms: CAZ_26  and  CAM_13 
REMARK    5  A    between atoms: CAM_13  and  NBA_27 
REMARK    6  A    between atoms: CAU_21  and  NAQ_17 
REMARK    7  A    between atoms: NAQ_17  and  CAV_22 
REMARK    8  A    between atoms: OAR_18  and  CAW_23 
REMARK    9  A    between atoms: OAR_18  and  CAZ_26 
ROOT
ATOM      1  NAD YM8 d   1      10.113  -1.804  13.600  0.00  0.00    -0.190 NA
ATOM      2  CAF YM8 d   1      10.877  -1.310  12.913  0.00  0.00     0.124 C 
ATOM      3  CAJ YM8 d   1      12.427   0.994  10.592  0.00  0.00     0.048 A 
ATOM      4  NAN YM8 d   1      11.537   0.430  11.388  0.00  0.00    -0.242 NA
ATOM      5  NAP YM8 d   1      14.007  -0.681  11.094  0.00  0.00    -0.203 NA
ATOM      6  CAT YM8 d   1      11.849  -0.691  12.056  0.00  0.00     0.189 A 
ATOM      7  CAU YM8 d   1      13.684   0.425  10.411  0.00  0.00     0.149 A 
ATOM      8  CAW YM8 d   1      13.094  -1.286  11.869  0.00  0.00     0.207 A 
ATOM      9  H   YM8 d   1      12.174   1.917  10.070  0.00  0.00     0.120 H 
ENDROOT
BRANCH   8  10
ATOM     10  OAR YM8 d   1      13.421  -2.405  12.580  0.00  0.00    -0.325 OA
BRANCH  10  11
ATOM     11  CAZ YM8 d   1      14.845  -2.623  12.559  0.00  0.00     0.069 C 
ATOM     12  H   YM8 d   1      15.316  -1.652  12.711  0.00  0.00     0.086 H 
BRANCH  11  13
ATOM     13  CAA YM8 d   1      15.199  -3.321  11.244  0.00  0.00    -0.050 C 
ATOM     14  H   YM8 d   1      16.271  -3.516  11.215  0.00  0.00     0.031 H 
ATOM     15  H   YM8 d   1      14.655  -4.263  11.176  0.00  0.00     0.031 H 
ATOM     16  H   YM8 d   1      14.923  -2.679  10.408  0.00  0.00     0.031 H 
ENDBRANCH  11  13
BRANCH  11  17
ATOM     17  CAM YM8 d   1      15.283  -3.626  13.612  0.00  0.00     0.136 C 
ATOM     18  H   YM8 d   1      16.353  -3.823  13.547  0.00  0.00     0.083 H 
ATOM     19  H   YM8 d   1      14.789  -4.587  13.470  0.00  0.00     0.083 H 
BRANCH  17  20
ATOM     20  NBA YM8 d   1      14.930  -3.035  14.913  0.00  0.00     0.082 N 
BRANCH  20  21
ATOM     21  CAB YM8 d   1      15.313  -3.911  16.028  0.00  0.00     0.095 C 
ATOM     22  H   YM8 d   1      14.796  -4.866  15.932  0.00  0.00     0.071 H 
ATOM     23  H   YM8 d   1      16.390  -4.075  16.006  0.00  0.00     0.071 H 
ATOM     24  H   YM8 d   1      15.036  -3.439  16.971  0.00  0.00     0.071 H 
ENDBRANCH  20  21
BRANCH  20  25
ATOM     25  CAC YM8 d   1      15.629  -1.746  15.020  0.00  0.00     0.095 C 
ATOM     26  H   YM8 d   1      16.705  -1.911  14.956  0.00  0.00     0.071 H 
ATOM     27  H   YM8 d   1      15.311  -1.093  14.207  0.00  0.00     0.071 H 
ATOM     28  H   YM8 d   1      15.387  -1.281  15.976  0.00  0.00     0.071 H 
ENDBRANCH  20  25
ENDBRANCH  17  20
ENDBRANCH  11  17
ENDBRANCH  10  11
ENDBRANCH   8  10
BRANCH   7  29
ATOM     29  NAQ YM8 d   1      14.557   1.055   9.615  0.00  0.00    -0.324 N 
ATOM     30  H   YM8 d   1      14.218   1.889   9.136  0.00  0.00     0.169 HD
BRANCH  29  31
ATOM     31  CAV YM8 d   1      15.832   0.705   9.381  0.00  0.00     0.129 A 
ATOM     32  CAL YM8 d   1      16.449  -0.368  10.022  0.00  0.00    -0.028 A 
ATOM     33  CAX YM8 d   1      17.785  -0.649   9.755  0.00  0.00    -0.019 A 
ATOM     34  H   YM8 d   1      15.889  -0.982  10.727  0.00  0.00     0.090 H 
ATOM     35  CAI YM8 d   1      18.426  -1.723  10.363  0.00  0.00    -0.072 A 
ATOM     36  CAY YM8 d   1      18.477   0.157   8.865  0.00  0.00     0.013 A 
ATOM     37  CAG YM8 d   1      19.762  -1.984  10.076  0.00  0.00    -0.081 A 
ATOM     38  H   YM8 d   1      17.883  -2.359  11.062  0.00  0.00     0.084 H 
ATOM     39  CAH YM8 d   1      20.456  -1.175   9.182  0.00  0.00    -0.061 A 
ATOM     40  H   YM8 d   1      20.266  -2.825  10.553  0.00  0.00     0.083 H 
ATOM     41  CAS YM8 d   1      19.813  -0.102   8.575  0.00  0.00     0.046 A 
ATOM     42  H   YM8 d   1      21.502  -1.382   8.958  0.00  0.00     0.086 H 
ATOM     43 CL   YM8 d   1      20.676   0.906   7.462  0.00  0.00    -0.083 Cl
ATOM     44  CAK YM8 d   1      17.818   1.222   8.266  0.00  0.00     0.017 A 
ATOM     45  NAO YM8 d   1      16.549   1.473   8.544  0.00  0.00    -0.242 NA
ATOM     46  H   YM8 d   1      18.351   1.858   7.559  0.00  0.00     0.116 H 
ENDBRANCH  29  31
ENDBRANCH   7  29
TORSDOF 9
