REMARK  21 active torsions:
REMARK  status: ('A' for Active; 'I' for Inactive)
REMARK    1  A    between atoms: N_1  and  CA_2 
REMARK    2  A    between atoms: CA_2  and  C_3 
REMARK    3  A    between atoms: CA_2  and  CB_5 
REMARK       I    between atoms: C_3  and  N_10 
REMARK    4  A    between atoms: CB_5  and  CG_6 
REMARK    5  A    between atoms: CG_6  and  CD_7 
REMARK    6  A    between atoms: N_10  and  CA_11 
REMARK    7  A    between atoms: CA_11  and  C_12 
REMARK    8  A    between atoms: CA_11  and  CB_14 
REMARK       I    between atoms: C_12  and  N_24 
REMARK    9  A    between atoms: CB_14  and  CG_15 
REMARK   10  A    between atoms: N_24  and  CA_25 
REMARK   11  A    between atoms: CA_25  and  C_26 
REMARK       I    between atoms: C_26  and  N_28 
REMARK   12  A    between atoms: CA_29  and  C_30 
REMARK       I    between atoms: C_30  and  N_35 
REMARK   13  A    between atoms: N_35  and  CA_36 
REMARK   14  A    between atoms: CA_36  and  C_37 
REMARK   15  A    between atoms: CA_36  and  CB_39 
REMARK       I    between atoms: C_37  and  N_49 
REMARK   16  A    between atoms: CB_39  and  CG_40 
REMARK   17  A    between atoms: N_49  and  CA_50 
REMARK   18  A    between atoms: CA_50  and  C_51 
REMARK   19  A    between atoms: CA_50  and  CB_53 
REMARK       I    between atoms: C_51  and  N_56 
REMARK   20  A    between atoms: CB_53  and  CG1_54 
REMARK   21  A    between atoms: CB_53  and  CG2_55 
ROOT
ATOM      1  C   GLY d   1      -9.820   9.972  11.821  0.00  0.00     0.238 C 
ATOM      2  O   GLY d   1     -10.203   9.134  10.999  0.00  0.00    -0.272 OA
ATOM      3  N   PRO d   1      -8.702  10.689  11.659  0.00  0.00    -0.337 N 
ATOM      4  CA  PRO d   1      -7.830  10.561  10.489  0.00  0.00     0.091 C 
ATOM      5  CB  PRO d   1      -6.901  11.766  10.631  0.00  0.00    -0.036 C 
ATOM      6  CG  PRO d   1      -6.797  11.963  12.101  0.00  0.00    -0.048 C 
ATOM      7  CD  PRO d   1      -8.173  11.659  12.635  0.00  0.00    -0.001 C 
ATOM      8  H22 PRO d   1      -8.406  10.599   9.552  0.00  0.00     0.087 H 
ATOM      9  H23 PRO d   1      -7.334  12.654  10.146  0.00  0.00     0.036 H 
ATOM     10  H24 PRO d   1      -5.914  11.554  10.193  0.00  0.00     0.036 H 
ATOM     11  H25 PRO d   1      -6.513  13.000  12.333  0.00  0.00     0.035 H 
ATOM     12  H26 PRO d   1      -6.055  11.275  12.531  0.00  0.00     0.035 H 
ATOM     13  H27 PRO d   1      -8.118  11.217  13.641  0.00  0.00     0.064 H 
ATOM     14  H28 PRO d   1      -8.794  12.566  12.667  0.00  0.00     0.064 H 
ENDROOT
BRANCH   1  15
ATOM     15  CA  GLY d   1     -10.611  10.228  13.087  0.00  0.00     0.069 C 
ATOM     16  H20 GLY d   1      -9.963  10.053  13.959  0.00  0.00     0.078 H 
ATOM     17  H21 GLY d   1     -10.958  11.272  13.091  0.00  0.00     0.078 H 
BRANCH  15  18
ATOM     18  N   GLY d   1     -11.756   9.346  13.161  0.00  0.00    -0.351 N 
ATOM     19  C   TRP d   1     -12.844   9.562  12.432  0.00  0.00     0.241 C 
ATOM     20  O   TRP d   1     -12.987  10.559  11.729  0.00  0.00    -0.271 OA
ATOM     21  H19 GLY d   1     -11.727   8.557  13.774  0.00  0.00     0.163 HD
BRANCH  19  22
ATOM     22  CA  TRP d   1     -13.919   8.481  12.494  0.00  0.00     0.093 C 
ATOM     23  H10 TRP d   1     -13.828   7.949  13.453  0.00  0.00     0.088 H 
BRANCH  22  24
ATOM     24  N   TRP d   1     -15.261   9.056  12.420  0.00  0.00    -0.346 N 
ATOM     25  C   GLU d   1     -15.897   9.449  13.521  0.00  0.00     0.249 C 
ATOM     26  O   GLU d   1     -15.436   9.281  14.648  0.00  0.00    -0.271 OA
ATOM     27  H9  TRP d   1     -15.707   9.155  11.530  0.00  0.00     0.163 HD
BRANCH  25  28
ATOM     28  CA  GLU d   1     -17.254  10.131  13.333  0.00  0.00     0.176 C 
ATOM     29  H4  GLU d   1     -17.476  10.684  14.258  0.00  0.00     0.099 H 
BRANCH  28  30
ATOM     30  N   GLU d   1     -17.237  11.094  12.238  0.00  0.00    -0.066 N 
ATOM     31  H1  GLU d   1     -18.147  11.518  12.149  0.00  0.00     0.275 HD
ATOM     32  H2  GLU d   1     -17.001  10.622  11.379  0.00  0.00     0.275 HD
ATOM     33  H3  GLU d   1     -16.551  11.807  12.429  0.00  0.00     0.275 HD
ENDBRANCH  28  30
BRANCH  28  34
ATOM     34  CB  GLU d   1     -18.367   9.098  13.128  0.00  0.00    -0.021 C 
ATOM     35  H5  GLU d   1     -17.913   8.096  13.122  0.00  0.00     0.037 H 
ATOM     36  H6  GLU d   1     -18.844   9.291  12.156  0.00  0.00     0.037 H 
BRANCH  34  37
ATOM     37  CG  GLU d   1     -19.445   9.131  14.208  0.00  0.00     0.018 C 
ATOM     38  H7  GLU d   1     -19.435  10.123  14.682  0.00  0.00     0.049 H 
ATOM     39  H8  GLU d   1     -19.211   8.363  14.960  0.00  0.00     0.049 H 
BRANCH  37  40
ATOM     40  CD  GLU d   1     -20.843   8.867  13.665  0.00  0.00     0.172 C 
ATOM     41  OE1 GLU d   1     -20.959   8.371  12.523  0.00  0.00    -0.648 OA
ATOM     42  OE2 GLU d   1     -21.825   9.168  14.379  0.00  0.00    -0.648 OA
ENDBRANCH  37  40
ENDBRANCH  34  37
ENDBRANCH  28  34
ENDBRANCH  25  28
ENDBRANCH  22  24
BRANCH  22  43
ATOM     43  CB  TRP d   1     -13.675   7.487  11.359  0.00  0.00    -0.012 C 
ATOM     44  H11 TRP d   1     -12.592   7.308  11.292  0.00  0.00     0.044 H 
ATOM     45  H12 TRP d   1     -14.029   7.946  10.424  0.00  0.00     0.044 H 
BRANCH  43  46
ATOM     46  CG  TRP d   1     -14.352   6.165  11.507  0.00  0.00    -0.028 A 
ATOM     47  CD1 TRP d   1     -15.573   5.814  11.013  0.00  0.00    -0.015 A 
ATOM     48  NE1 TRP d   1     -15.856   4.506  11.330  0.00  0.00    -0.365 N 
ATOM     49  H13 TRP d   1     -16.230   6.474  10.449  0.00  0.00     0.112 H 
ATOM     50  CE2 TRP d   1     -14.805   3.983  12.035  0.00  0.00     0.042 A 
ATOM     51  H14 TRP d   1     -16.718   4.002  11.078  0.00  0.00     0.165 HD
ATOM     52  CD2 TRP d   1     -13.835   4.998  12.164  0.00  0.00    -0.002 A 
ATOM     53  CZ2 TRP d   1     -14.628   2.709  12.569  0.00  0.00    -0.056 A 
ATOM     54  CE3 TRP d   1     -12.653   4.715  12.856  0.00  0.00    -0.070 A 
ATOM     55  CZ3 TRP d   1     -12.480   3.452  13.384  0.00  0.00    -0.082 A 
ATOM     56  H15 TRP d   1     -11.888   5.473  12.975  0.00  0.00     0.084 H 
ATOM     57  CH2 TRP d   1     -13.464   2.464  13.239  0.00  0.00    -0.081 A 
ATOM     58  H17 TRP d   1     -11.567   3.220  13.920  0.00  0.00     0.083 H 
ATOM     59  H18 TRP d   1     -13.297   1.483  13.669  0.00  0.00     0.083 H 
ATOM     60  H16 TRP d   1     -15.385   1.942  12.457  0.00  0.00     0.086 H 
ENDBRANCH  43  46
ENDBRANCH  22  43
ENDBRANCH  19  22
ENDBRANCH  15  18
ENDBRANCH   1  15
BRANCH   4  61
ATOM     61  C   PRO d   1      -7.015   9.274  10.550  0.00  0.00     0.241 C 
ATOM     62  O   PRO d   1      -6.807   8.718  11.633  0.00  0.00    -0.271 OA
ATOM     63  N   TRP d   1      -6.560   8.803   9.397  0.00  0.00    -0.346 N 
ATOM     64  H29 TRP d   1      -6.877   9.201   8.536  0.00  0.00     0.163 HD
BRANCH  63  65
ATOM     65  CA  TRP d   1      -5.603   7.711   9.380  0.00  0.00     0.093 C 
ATOM     66  H30 TRP d   1      -6.019   6.857   9.935  0.00  0.00     0.088 H 
BRANCH  65  67
ATOM     67  C   TRP d   1      -4.323   8.179  10.052  0.00  0.00     0.241 C 
ATOM     68  O   TRP d   1      -3.853   9.290   9.804  0.00  0.00    -0.271 OA
ATOM     69  N   VAL d   1      -3.777   7.340  10.924  0.00  0.00    -0.346 N 
ATOM     70  H39 VAL d   1      -4.257   6.493  11.155  0.00  0.00     0.163 HD
BRANCH  69  71
ATOM     71  CA  VAL d   1      -2.497   7.626  11.550  0.00  0.00     0.092 C 
ATOM     72  H40 VAL d   1      -2.130   8.601  11.198  0.00  0.00     0.088 H 
BRANCH  71  73
ATOM     73  C   VAL d   1      -1.527   6.537  11.133  0.00  0.00     0.238 C 
ATOM     74  O   VAL d   1      -1.883   5.361  11.119  0.00  0.00    -0.271 OA
ATOM     75  N   NH2 d   1      -0.308   6.927  10.781  0.00  0.00    -0.368 N 
ATOM     76  H48 NH2 d   1       0.371   6.250  10.497  0.00  0.00     0.159 HD
ATOM     77  H49 NH2 d   1      -0.069   7.898  10.799  0.00  0.00     0.159 HD
ENDBRANCH  71  73
BRANCH  71  78
ATOM     78  CB  VAL d   1      -2.619   7.664  13.092  0.00  0.00    -0.033 C 
ATOM     79  H41 VAL d   1      -3.006   6.692  13.432  0.00  0.00     0.042 H 
BRANCH  78  80
ATOM     80  CG1 VAL d   1      -1.259   7.888  13.739  0.00  0.00    -0.071 C 
ATOM     81  H42 VAL d   1      -1.373   7.911  14.833  0.00  0.00     0.028 H 
ATOM     82  H43 VAL d   1      -0.842   8.845  13.394  0.00  0.00     0.028 H 
ATOM     83  H44 VAL d   1      -0.580   7.069  13.458  0.00  0.00     0.028 H 
ENDBRANCH  78  80
BRANCH  78  84
ATOM     84  CG2 VAL d   1      -3.603   8.748  13.517  0.00  0.00    -0.071 C 
ATOM     85  H45 VAL d   1      -4.577   8.567  13.039  0.00  0.00     0.028 H 
ATOM     86  H46 VAL d   1      -3.220   9.732  13.208  0.00  0.00     0.028 H 
ATOM     87  H47 VAL d   1      -3.722   8.727  14.610  0.00  0.00     0.028 H 
ENDBRANCH  78  84
ENDBRANCH  71  78
ENDBRANCH  69  71
ENDBRANCH  65  67
BRANCH  65  88
ATOM     88  CB  TRP d   1      -5.293   7.273   7.954  0.00  0.00    -0.012 C 
ATOM     89  H31 TRP d   1      -4.387   6.649   7.976  0.00  0.00     0.044 H 
ATOM     90  H32 TRP d   1      -5.103   8.174   7.352  0.00  0.00     0.044 H 
BRANCH  88  91
ATOM     91  CG  TRP d   1      -6.376   6.495   7.295  0.00  0.00    -0.028 A 
ATOM     92  CD1 TRP d   1      -7.161   6.906   6.262  0.00  0.00    -0.015 A 
ATOM     93  NE1 TRP d   1      -8.040   5.912   5.911  0.00  0.00    -0.365 N 
ATOM     94  H33 TRP d   1      -7.101   7.882   5.783  0.00  0.00     0.112 H 
ATOM     95  CE2 TRP d   1      -7.839   4.831   6.726  0.00  0.00     0.042 A 
ATOM     96  H34 TRP d   1      -8.738   5.970   5.156  0.00  0.00     0.165 HD
ATOM     97  CD2 TRP d   1      -6.795   5.162   7.613  0.00  0.00    -0.002 A 
ATOM     98  CZ2 TRP d   1      -8.481   3.596   6.754  0.00  0.00    -0.056 A 
ATOM     99  CE3 TRP d   1      -6.385   4.215   8.554  0.00  0.00    -0.070 A 
ATOM    100  CZ3 TRP d   1      -7.028   2.989   8.587  0.00  0.00    -0.082 A 
ATOM    101  H35 TRP d   1      -5.579   4.435   9.245  0.00  0.00     0.084 H 
ATOM    102  CH2 TRP d   1      -8.065   2.690   7.691  0.00  0.00    -0.081 A 
ATOM    103  H37 TRP d   1      -6.725   2.248   9.318  0.00  0.00     0.083 H 
ATOM    104  H38 TRP d   1      -8.547   1.720   7.742  0.00  0.00     0.083 H 
ATOM    105  H36 TRP d   1      -9.280   3.361   6.060  0.00  0.00     0.086 H 
ENDBRANCH  88  91
ENDBRANCH  65  88
ENDBRANCH  63  65
ENDBRANCH   4  61
TORSDOF 21
