REMARK  8 active torsions:
REMARK  status: ('A' for Active; 'I' for Inactive)
REMARK    1  A    between atoms: CAU_21  and  CAA_1 
REMARK    2  A    between atoms: CAV_22  and  CAB_2 
REMARK    3  A    between atoms: NBE_31  and  CAC_3 
REMARK    4  A    between atoms: NAT_20  and  CBB_28 
REMARK    5  A    between atoms: SBF_32  and  NAT_20 
REMARK    6  A    between atoms: CAZ_26  and  CAY_25 
REMARK    7  A    between atoms: CBA_27  and  NBD_30 
REMARK    8  A    between atoms: CBC_29  and  SBF_32 
ROOT
ATOM      1 CLF  646 d   1     -24.716  13.559 -29.722  0.00  0.00    -0.083 Cl
ATOM      2 CLG  646 d   1     -21.692  15.772 -25.593  0.00  0.00    -0.083 Cl
ATOM      3  CAJ 646 d   1     -25.464  15.459 -27.957  0.00  0.00    -0.050 C 
ATOM      4  CAK 646 d   1     -24.155  16.391 -26.211  0.00  0.00    -0.050 C 
ATOM      5  CAW 646 d   1     -24.416  14.614 -28.309  0.00  0.00     0.059 C 
ATOM      6  CAX 646 d   1     -23.131  15.521 -26.575  0.00  0.00     0.059 C 
ATOM      7  CAZ 646 d   1     -25.316  16.418 -26.959  0.00  0.00    -0.022 C 
ATOM      8  CBC 646 d   1     -23.195  14.595 -27.641  0.00  0.00     0.123 C 
ATOM      9  H   646 d   1     -26.415  15.369 -28.470  0.00  0.00     0.087 H 
ATOM     10  H   646 d   1     -24.043  17.040 -25.350  0.00  0.00     0.087 H 
ENDROOT
BRANCH   7  11
ATOM     11  CAY 646 d   1     -26.509  17.125 -26.532  0.00  0.00    -0.021 C 
ATOM     12  CAI 646 d   1     -27.682  17.037 -27.287  0.00  0.00    -0.055 C 
ATOM     13  CAH 646 d   1     -28.878  17.523 -26.758  0.00  0.00     0.005 C 
ATOM     14  H   646 d   1     -27.663  16.594 -28.276  0.00  0.00     0.087 H 
ATOM     15  NAQ 646 d   1     -28.941  17.964 -25.490  0.00  0.00    -0.243 NA
ATOM     16  H   646 d   1     -29.767  17.545 -27.377  0.00  0.00     0.114 H 
ATOM     17  CBA 646 d   1     -27.861  17.972 -24.664  0.00  0.00     0.126 C 
ATOM     18  CAL 646 d   1     -26.626  17.498 -25.167  0.00  0.00    -0.028 C 
ATOM     19  H   646 d   1     -25.768  17.420 -24.509  0.00  0.00     0.090 H 
BRANCH  17  20
ATOM     20  NBD 646 d   1     -28.001  18.474 -23.341  0.00  0.00    -0.363 N 
ATOM     21  CAO 646 d   1     -29.367  18.759 -22.808  0.00  0.00     0.019 C 
ATOM     22  CAM 646 d   1     -29.431  19.510 -21.452  0.00  0.00     0.096 C 
ATOM     23  H   646 d   1     -29.898  19.368 -23.554  0.00  0.00     0.066 H 
ATOM     24  H   646 d   1     -29.886  17.797 -22.684  0.00  0.00     0.066 H 
ATOM     25  NAS 646 d   1     -28.111  19.991 -20.992  0.00  0.00    -0.072 N 
ATOM     26  H   646 d   1     -29.839  18.827 -20.692  0.00  0.00     0.078 H 
ATOM     27  H   646 d   1     -30.100  20.376 -21.563  0.00  0.00     0.078 H 
ATOM     28  CAN 646 d   1     -27.152  18.877 -21.134  0.00  0.00     0.096 C 
ATOM     29  H   646 d   1     -28.167  20.275 -20.026  0.00  0.00     0.277 HD
ATOM     30  H   646 d   1     -27.815  20.773 -21.556  0.00  0.00     0.277 HD
ATOM     31  CAP 646 d   1     -26.773  18.733 -22.590  0.00  0.00     0.019 C 
ATOM     32  H   646 d   1     -26.252  19.088 -20.538  0.00  0.00     0.078 H 
ATOM     33  H   646 d   1     -27.616  17.944 -20.780  0.00  0.00     0.078 H 
ATOM     34  H   646 d   1     -26.073  17.894 -22.715  0.00  0.00     0.066 H 
ATOM     35  H   646 d   1     -26.302  19.660 -22.949  0.00  0.00     0.066 H 
ENDBRANCH  17  20
ENDBRANCH   7  11
BRANCH   8  36
ATOM     36  SBF 646 d   1     -22.024  13.429 -27.942  0.00  0.00     0.266 S 
ATOM     37  OAD 646 d   1     -21.063  13.485 -26.828  0.00  0.00    -0.200 OA
ATOM     38  OAE 646 d   1     -21.493  13.378 -29.312  0.00  0.00    -0.200 OA
BRANCH  36  39
ATOM     39  NAT 646 d   1     -22.790  11.991 -27.846  0.00  0.00    -0.276 N 
ATOM     40  H   646 d   1     -22.950  11.447 -28.670  0.00  0.00     0.179 HD
BRANCH  39  41
ATOM     41  CBB 646 d   1     -23.241  11.505 -26.539  0.00  0.00     0.092 C 
ATOM     42  CAU 646 d   1     -22.362  10.842 -25.537  0.00  0.00     0.080 C 
ATOM     43  NAR 646 d   1     -23.164  10.584 -24.435  0.00  0.00    -0.175 NA
ATOM     44  NBE 646 d   1     -24.527  10.908 -24.738  0.00  0.00    -0.276 N 
ATOM     45  CAV 646 d   1     -24.622  11.633 -25.989  0.00  0.00     0.055 C 
BRANCH  42  46
ATOM     46  CAA 646 d   1     -20.913  10.599 -25.730  0.00  0.00    -0.032 C 
ATOM     47  H   646 d   1     -20.616  10.931 -26.736  0.00  0.00     0.035 H 
ATOM     48  H   646 d   1     -20.704   9.525 -25.622  0.00  0.00     0.035 H 
ATOM     49  H   646 d   1     -20.343  11.162 -24.976  0.00  0.00     0.035 H 
ENDBRANCH  42  46
BRANCH  44  50
ATOM     50  CAC 646 d   1     -25.638  10.896 -23.768  0.00  0.00     0.003 C 
ATOM     51  H   646 d   1     -26.570  11.186 -24.275  0.00  0.00     0.059 H 
ATOM     52  H   646 d   1     -25.425  11.608 -22.957  0.00  0.00     0.059 H 
ATOM     53  H   646 d   1     -25.747   9.885 -23.348  0.00  0.00     0.059 H 
ENDBRANCH  44  50
BRANCH  45  54
ATOM     54  CAB 646 d   1     -25.968  12.144 -26.457  0.00  0.00    -0.034 C 
ATOM     55  H   646 d   1     -25.848  12.666 -27.418  0.00  0.00     0.035 H 
ATOM     56  H   646 d   1     -26.376  12.841 -25.710  0.00  0.00     0.035 H 
ATOM     57  H   646 d   1     -26.658  11.297 -26.583  0.00  0.00     0.035 H 
ENDBRANCH  45  54
ENDBRANCH  39  41
ENDBRANCH  36  39
ENDBRANCH   8  36
TORSDOF 8
