REMARK  8 active torsions:
REMARK  status: ('A' for Active; 'I' for Inactive)
REMARK    1  A    between atoms: C4_1  and  C3_2 
REMARK    2  A    between atoms: N1_3  and  C2_4 
REMARK    3  A    between atoms: C5_6  and  C6_9 
REMARK    4  A    between atoms: C1_7  and  C_8 
REMARK    5  A    between atoms: C6_9  and  C7_10 
REMARK    6  A    between atoms: C8_12  and  C9_15 
REMARK    7  A    between atoms: C10_23  and  O1_24 
REMARK    8  A    between atoms: O1_24  and  C11_25 
ROOT
ATOM      1  C9  YNE d   1      23.715  41.938  63.969  0.00  0.00     0.095 A 
ATOM      2  S   YNE d   1      22.128  41.913  63.358  0.00  0.00    -0.082 SA
ATOM      3  C21 YNE d   1      21.534  40.684  64.319  0.00  0.00     0.018 A 
ATOM      4  C20 YNE d   1      20.225  40.167  64.375  0.00  0.00    -0.066 A 
ATOM      5  C19 YNE d   1      19.952  39.097  65.306  0.00  0.00    -0.082 A 
ATOM      6  C18 YNE d   1      20.995  38.589  66.120  0.00  0.00    -0.082 A 
ATOM      7  C17 YNE d   1      22.342  39.078  66.120  0.00  0.00    -0.069 A 
ATOM      8  C16 YNE d   1      22.603  40.163  65.213  0.00  0.00     0.016 A 
ATOM      9  C10 YNE d   1      23.866  40.889  65.017  0.00  0.00     0.102 A 
ATOM     10  H   YNE d   1      19.443  40.562  63.736  0.00  0.00     0.085 H 
ATOM     11  H   YNE d   1      18.953  38.684  65.382  0.00  0.00     0.083 H 
ATOM     12  H   YNE d   1      20.757  37.772  66.791  0.00  0.00     0.083 H 
ATOM     13  H   YNE d   1      23.111  38.659  66.759  0.00  0.00     0.085 H 
ENDROOT
BRANCH   1  14
ATOM     14  C8  YNE d   1      24.741  42.850  63.510  0.00  0.00     0.212 A 
ATOM     15  O   YNE d   1      24.279  43.874  62.861  0.00  0.00    -0.272 OA
ATOM     16  C7  YNE d   1      25.456  44.538  62.599  0.00  0.00     0.173 A 
ATOM     17  N2  YNE d   1      26.545  43.928  63.070  0.00  0.00    -0.126 NA
ATOM     18  N3  YNE d   1      26.035  42.769  63.741  0.00  0.00    -0.121 NA
BRANCH  16  19
ATOM     19  C6  YNE d   1      25.478  45.801  61.813  0.00  0.00     0.026 C 
ATOM     20  H   YNE d   1      26.513  46.049  61.537  0.00  0.00     0.052 H 
ATOM     21  H   YNE d   1      24.874  45.682  60.901  0.00  0.00     0.052 H 
BRANCH  19  22
ATOM     22  C5  YNE d   1      24.908  46.886  62.657  0.00  0.00    -0.001 A 
ATOM     23  C3  YNE d   1      25.661  47.860  63.467  0.00  0.00     0.035 A 
ATOM     24  N1  YNE d   1      24.765  48.670  63.976  0.00  0.00    -0.278 N 
ATOM     25  N   YNE d   1      23.475  48.333  63.618  0.00  0.00    -0.177 NA
ATOM     26  C1  YNE d   1      23.494  47.272  62.789  0.00  0.00     0.059 A 
BRANCH  23  27
ATOM     27  C4  YNE d   1      27.158  47.933  63.619  0.00  0.00    -0.035 C 
ATOM     28  H   YNE d   1      27.623  47.103  63.067  0.00  0.00     0.035 H 
ATOM     29  H   YNE d   1      27.422  47.859  64.684  0.00  0.00     0.035 H 
ATOM     30  H   YNE d   1      27.521  48.890  63.217  0.00  0.00     0.035 H 
ENDBRANCH  23  27
BRANCH  24  31
ATOM     31  C2  YNE d   1      25.011  49.785  64.932  0.00  0.00     0.003 C 
ATOM     32  H   YNE d   1      24.058  50.279  65.172  0.00  0.00     0.059 H 
ATOM     33  H   YNE d   1      25.697  50.514  64.476  0.00  0.00     0.059 H 
ATOM     34  H   YNE d   1      25.459  49.386  65.854  0.00  0.00     0.059 H 
ENDBRANCH  24  31
BRANCH  26  35
ATOM     35  C   YNE d   1      22.226  46.644  62.224  0.00  0.00    -0.033 C 
ATOM     36  H   YNE d   1      22.494  45.796  61.576  0.00  0.00     0.035 H 
ATOM     37  H   YNE d   1      21.675  47.394  61.637  0.00  0.00     0.035 H 
ATOM     38  H   YNE d   1      21.593  46.288  63.050  0.00  0.00     0.035 H 
ENDBRANCH  26  35
ENDBRANCH  19  22
ENDBRANCH  16  19
ENDBRANCH   1  14
BRANCH   9  39
ATOM     39  O1  YNE d   1      25.011  40.661  65.687  0.00  0.00    -0.343 OA
BRANCH  39  40
ATOM     40  C11 YNE d   1      24.810  40.656  67.152  0.00  0.00     0.048 C 
ATOM     41  C15 YNE d   1      25.751  39.604  67.781  0.00  0.00    -0.018 C 
ATOM     42  C14 YNE d   1      27.253  39.885  67.448  0.00  0.00     0.084 C 
ATOM     43  H   YNE d   1      25.482  38.610  67.394  0.00  0.00     0.039 H 
ATOM     44  H   YNE d   1      25.621  39.620  68.873  0.00  0.00     0.039 H 
ATOM     45  N4  YNE d   1      27.542  41.241  68.005  0.00  0.00    -0.075 N 
ATOM     46  H   YNE d   1      27.413  39.875  66.360  0.00  0.00     0.075 H 
ATOM     47  H   YNE d   1      27.899  39.130  67.921  0.00  0.00     0.075 H 
ATOM     48  C13 YNE d   1      26.641  42.315  67.493  0.00  0.00     0.084 C 
ATOM     49  H   YNE d   1      28.491  41.485  67.769  0.00  0.00     0.277 HD
ATOM     50  H   YNE d   1      27.446  41.199  69.007  0.00  0.00     0.277 HD
ATOM     51  C12 YNE d   1      25.119  42.070  67.659  0.00  0.00    -0.018 C 
ATOM     52  H   YNE d   1      26.845  42.441  66.419  0.00  0.00     0.075 H 
ATOM     53  H   YNE d   1      26.891  43.245  68.025  0.00  0.00     0.075 H 
ATOM     54  H   YNE d   1      24.840  42.156  68.720  0.00  0.00     0.039 H 
ATOM     55  H   YNE d   1      24.555  42.809  67.071  0.00  0.00     0.039 H 
ATOM     56  H   YNE d   1      23.767  40.399  67.391  0.00  0.00     0.084 H 
ENDBRANCH  39  40
ENDBRANCH   9  39
TORSDOF 8
