REMARK WARNING: 32 MAX_TORS EXCEEDED!!!
REMARK  41 active torsions:
REMARK  status: ('A' for Active; 'I' for Inactive)
REMARK    1  A    between atoms: N_1  and  CA_2 
REMARK    2  A    between atoms: CA_2  and  C_3 
REMARK    3  A    between atoms: CA_2  and  CB_5 
REMARK       I    between atoms: C_3  and  N_7 
REMARK    4  A    between atoms: CB_5  and  SG_6 
REMARK    5  A    between atoms: N_7  and  CA_8 
REMARK    6  A    between atoms: CA_8  and  C_9 
REMARK    7  A    between atoms: CA_8  and  CB_11 
REMARK       I    between atoms: C_9  and  N_14 
REMARK    8  A    between atoms: CB_11  and  OG1_12 
REMARK    9  A    between atoms: CB_11  and  CG2_13 
REMARK   10  A    between atoms: N_14  and  CA_15 
REMARK   11  A    between atoms: CA_15  and  C_16 
REMARK   12  A    between atoms: CA_15  and  CB_18 
REMARK       I    between atoms: C_16  and  N_25 
REMARK   13  A    between atoms: CB_18  and  CG_19 
REMARK   14  A    between atoms: N_25  and  CA_26 
REMARK   15  A    between atoms: CA_26  and  C_27 
REMARK   16  A    between atoms: CA_26  and  CB_29 
REMARK       I    between atoms: C_27  and  N_34 
REMARK   17  A    between atoms: CB_29  and  CG_30 
REMARK   18  A    between atoms: CG_30  and  CD_31 
REMARK   19  A    between atoms: CD_31  and  CE_32 
REMARK   20  A    between atoms: CE_32  and  NZ_33 
REMARK   21  A    between atoms: N_34  and  CA_35 
REMARK   22  A    between atoms: CA_35  and  C_36 
REMARK   23  A    between atoms: CA_35  and  CB_38 
REMARK       I    between atoms: C_36  and  N_41 
REMARK   24  A    between atoms: CB_38  and  OG1_39 
REMARK   25  A    between atoms: CB_38  and  CG2_40 
REMARK   26  A    between atoms: N_41  and  CA_42 
REMARK   27  A    between atoms: CA_42  and  C_43 
REMARK   28  A    between atoms: CA_42  and  CB_45 
REMARK       I    between atoms: C_43  and  N_50 
REMARK   29  A    between atoms: CB_45  and  CG_46 
REMARK   30  A    between atoms: CG_46  and  CD_47 
REMARK   31  A    between atoms: CD_47  and  CE_48 
REMARK   32  A    between atoms: CE_48  and  NZ_49 
REMARK   33  A    between atoms: N_50  and  CA_51 
REMARK   34  A    between atoms: CA_51  and  C_52 
REMARK   35  A    between atoms: CA_51  and  CB_54 
REMARK       I    between atoms: C_52  and  N_57 
REMARK   36  A    between atoms: CB_54  and  OG1_55 
REMARK   37  A    between atoms: CB_54  and  CG2_56 
REMARK   38  A    between atoms: N_57  and  CA_58 
REMARK   39  A    between atoms: CA_58  and  C_59 
REMARK   40  A    between atoms: CA_58  and  CB_61 
REMARK   41  A    between atoms: CB_61  and  CG_62 
REMARK       I    between atoms: CG_62  and  ND2_64 
ROOT
ATOM      1  CA  LYS d   1     -67.426  48.389 -14.743  0.00  0.00     0.089 C 
ATOM      2  H   LYS d   1     -68.016  48.425 -13.827  0.00  0.00     0.087 H 
ENDROOT
BRANCH   1   3
ATOM      3  N   LYS d   1     -68.165  49.051 -15.808  0.00  0.00    -0.346 N 
ATOM      4  C   PHE d   1     -69.434  49.403 -15.643  0.00  0.00     0.241 C 
ATOM      5  O   PHE d   1     -70.147  48.934 -14.761  0.00  0.00    -0.271 OA
ATOM      6  H   LYS d   1     -67.701  49.247 -16.695  0.00  0.00     0.163 HD
BRANCH   4   7
ATOM      7  CA  PHE d   1     -69.984  50.413 -16.636  0.00  0.00     0.093 C 
ATOM      8  H   PHE d   1     -69.368  50.393 -17.535  0.00  0.00     0.088 H 
BRANCH   7   9
ATOM      9  N   PHE d   1     -71.345  50.079 -17.041  0.00  0.00    -0.346 N 
ATOM     10  C   THR d   1     -71.642  49.838 -18.313  0.00  0.00     0.243 C 
ATOM     11  O   THR d   1     -70.806  49.905 -19.218  0.00  0.00    -0.271 OA
ATOM     12  H   PHE d   1     -72.081  50.030 -16.336  0.00  0.00     0.163 HD
BRANCH  10  13
ATOM     13  CA  THR d   1     -73.094  49.468 -18.611  0.00  0.00     0.113 C 
ATOM     14  H   THR d   1     -73.136  49.017 -19.602  0.00  0.00     0.091 H 
BRANCH  13  15
ATOM     15  N   THR d   1     -73.608  48.468 -17.676  0.00  0.00    -0.344 N 
ATOM     16  C   CYS d   1     -73.055  47.265 -17.561  0.00  0.00     0.249 C 
ATOM     17  O   CYS d   1     -72.059  46.914 -18.199  0.00  0.00    -0.271 OA
ATOM     18  H   THR d   1     -74.414  48.700 -17.096  0.00  0.00     0.163 HD
BRANCH  16  19
ATOM     19  CA  CYS d   1     -73.719  46.324 -16.566  0.00  0.00     0.183 C 
ATOM     20  H   CYS d   1     -74.776  46.587 -16.514  0.00  0.00     0.100 H 
BRANCH  19  21
ATOM     21  N   CYS d   1     -73.647  44.929 -16.995  0.00  0.00    -0.066 N 
ATOM     22  H   CYS d   1     -74.075  44.835 -17.916  0.00  0.00     0.275 HD
ATOM     23  H   CYS d   1     -72.670  44.639 -17.042  0.00  0.00     0.275 HD
ATOM     24  H   CYS d   1     -74.145  44.343 -16.326  0.00  0.00     0.275 HD
ENDBRANCH  19  21
BRANCH  19  25
ATOM     25  CB  CYS d   1     -73.082  46.496 -15.183  0.00  0.00     0.009 C 
ATOM     26  H   CYS d   1     -73.157  47.548 -14.906  0.00  0.00     0.052 H 
ATOM     27  H   CYS d   1     -72.049  46.153 -15.243  0.00  0.00     0.052 H 
BRANCH  25  28
ATOM     28  SG  CYS d   1     -73.915  45.528 -13.916  0.00  0.00    -0.180 SA
ATOM     29  H   CYS d   1     -73.314  45.722 -12.745  0.00  0.00     0.101 HD
ENDBRANCH  25  28
ENDBRANCH  19  25
ENDBRANCH  16  19
ENDBRANCH  13  15
BRANCH  13  30
ATOM     30  CB  THR d   1     -73.959  50.738 -18.593  0.00  0.00     0.060 C 
ATOM     31  H   THR d   1     -73.938  51.167 -17.591  0.00  0.00     0.086 H 
BRANCH  30  32
ATOM     32  OG1 THR d   1     -75.305  50.396 -18.948  0.00  0.00    -0.393 OA
ATOM     33  H   THR d   1     -75.848  51.187 -18.938  0.00  0.00     0.210 HD
ENDBRANCH  30  32
BRANCH  30  34
ATOM     34  CG2 THR d   1     -73.417  51.770 -19.566  0.00  0.00    -0.050 C 
ATOM     35  H   THR d   1     -73.431  51.358 -20.575  0.00  0.00     0.031 H 
ATOM     36  H   THR d   1     -74.039  52.664 -19.529  0.00  0.00     0.031 H 
ATOM     37  H   THR d   1     -72.394  52.025 -19.290  0.00  0.00     0.031 H 
ENDBRANCH  30  34
ENDBRANCH  13  30
ENDBRANCH  10  13
ENDBRANCH   7   9
BRANCH   7  38
ATOM     38  CB  PHE d   1     -69.934  51.806 -16.008  0.00  0.00    -0.014 C 
ATOM     39  H   PHE d   1     -68.891  52.019 -15.772  0.00  0.00     0.043 H 
ATOM     40  H   PHE d   1     -70.588  51.793 -15.136  0.00  0.00     0.043 H 
BRANCH  38  41
ATOM     41  CG  PHE d   1     -70.418  52.893 -16.913  0.00  0.00    -0.056 A 
ATOM     42  CD1 PHE d   1     -69.685  53.254 -18.033  0.00  0.00    -0.077 A 
ATOM     43  CE1 PHE d   1     -70.130  54.261 -18.876  0.00  0.00    -0.082 A 
ATOM     44  H   PHE d   1     -68.749  52.741 -18.253  0.00  0.00     0.084 H 
ATOM     45  CZ  PHE d   1     -71.316  54.921 -18.599  0.00  0.00    -0.083 A 
ATOM     46  H   PHE d   1     -69.547  54.533 -19.756  0.00  0.00     0.083 H 
ATOM     47  CE2 PHE d   1     -72.055  54.571 -17.482  0.00  0.00    -0.082 A 
ATOM     48  H   PHE d   1     -71.667  55.714 -19.259  0.00  0.00     0.083 H 
ATOM     49  CD2 PHE d   1     -71.605  53.562 -16.645  0.00  0.00    -0.077 A 
ATOM     50  H   PHE d   1     -72.989  55.088 -17.261  0.00  0.00     0.083 H 
ATOM     51  H   PHE d   1     -72.190  53.290 -15.766  0.00  0.00     0.084 H 
ENDBRANCH  38  41
ENDBRANCH   7  38
ENDBRANCH   4   7
ENDBRANCH   1   3
BRANCH   1  52
ATOM     52  C   LYS d   1     -66.103  49.120 -14.572  0.00  0.00     0.241 C 
ATOM     53  O   LYS d   1     -65.110  48.775 -15.212  0.00  0.00    -0.271 OA
ATOM     54  N   THR d   1     -66.098  50.147 -13.729  0.00  0.00    -0.344 N 
ATOM     55  H   THR d   1     -66.962  50.416 -13.259  0.00  0.00     0.163 HD
BRANCH  54  56
ATOM     56  CA  THR d   1     -64.876  50.894 -13.467  0.00  0.00     0.113 C 
ATOM     57  H   THR d   1     -64.438  51.204 -14.416  0.00  0.00     0.091 H 
BRANCH  56  58
ATOM     58  C   THR d   1     -63.880  49.985 -12.736  0.00  0.00     0.243 C 
ATOM     59  O   THR d   1     -64.266  49.084 -11.993  0.00  0.00    -0.271 OA
ATOM     60  N   LYS d   1     -62.600  50.210 -12.989  0.00  0.00    -0.346 N 
ATOM     61  H   LYS d   1     -62.350  51.022 -13.553  0.00  0.00     0.163 HD
BRANCH  60  62
ATOM     62  CA  LYS d   1     -61.534  49.351 -12.499  0.00  0.00     0.089 C 
ATOM     63  H   LYS d   1     -61.884  48.319 -12.472  0.00  0.00     0.087 H 
BRANCH  62  64
ATOM     64  C   LYS d   1     -61.120  49.764 -11.090  0.00  0.00     0.241 C 
ATOM     65  O   LYS d   1     -60.183  50.546 -10.920  0.00  0.00    -0.271 OA
ATOM     66  N   THR d   1     -61.824  49.259 -10.082  0.00  0.00    -0.344 N 
ATOM     67  H   THR d   1     -62.589  48.611 -10.271  0.00  0.00     0.163 HD
BRANCH  66  68
ATOM     68  CA  THR d   1     -61.508  49.627  -8.705  0.00  0.00     0.113 C 
ATOM     69  H   THR d   1     -60.731  50.390  -8.756  0.00  0.00     0.091 H 
BRANCH  68  70
ATOM     70  C   THR d   1     -60.953  48.451  -7.901  0.00  0.00     0.243 C 
ATOM     71  O   THR d   1     -60.341  48.649  -6.851  0.00  0.00    -0.271 OA
ATOM     72  N   ASN d   1     -61.159  47.229  -8.387  0.00  0.00    -0.344 N 
ATOM     73  H   ASN d   1     -61.672  47.109  -9.261  0.00  0.00     0.163 HD
BRANCH  72  74
ATOM     74  CA  ASN d   1     -60.652  46.056  -7.672  0.00  0.00     0.104 C 
ATOM     75  H   ASN d   1     -60.740  46.311  -6.616  0.00  0.00     0.090 H 
BRANCH  74  76
ATOM     76  C   ASN d   1     -59.166  45.768  -7.911  0.00  0.00     0.197 C 
ATOM     77  O   ASN d   1     -58.631  44.794  -7.356  0.00  0.00    -0.646 OA
ATOM     78  OXT ASN d   1     -58.480  46.510  -8.643  0.00  0.00    -0.646 OA
ENDBRANCH  74  76
BRANCH  74  79
ATOM     79  CB  ASN d   1     -61.503  44.811  -7.949  0.00  0.00     0.037 C 
ATOM     80  H   ASN d   1     -62.500  44.994  -7.548  0.00  0.00     0.051 H 
ATOM     81  H   ASN d   1     -61.008  43.959  -7.483  0.00  0.00     0.051 H 
BRANCH  79  82
ATOM     82  CG  ASN d   1     -61.645  44.513  -9.418  0.00  0.00     0.217 C 
ATOM     83  OD1 ASN d   1     -61.119  45.237 -10.266  0.00  0.00    -0.274 OA
ATOM     84  ND2 ASN d   1     -62.360  43.433  -9.737  0.00  0.00    -0.370 N 
ATOM     85  H   ASN d   1     -62.489  43.178 -10.716  0.00  0.00     0.159 HD
ATOM     86  H   ASN d   1     -62.778  42.862  -9.002  0.00  0.00     0.159 HD
ENDBRANCH  79  82
ENDBRANCH  74  79
ENDBRANCH  72  74
ENDBRANCH  68  70
BRANCH  68  87
ATOM     87  CB  THR d   1     -62.756  50.207  -7.991  0.00  0.00     0.060 C 
ATOM     88  H   THR d   1     -62.562  50.254  -6.919  0.00  0.00     0.086 H 
BRANCH  87  89
ATOM     89  OG1 THR d   1     -63.874  49.368  -8.282  0.00  0.00    -0.393 OA
ATOM     90  H   THR d   1     -64.655  49.715  -7.846  0.00  0.00     0.210 HD
ENDBRANCH  87  89
BRANCH  87  91
ATOM     91  CG2 THR d   1     -63.066  51.604  -8.510  0.00  0.00    -0.050 C 
ATOM     92  H   THR d   1     -62.214  52.257  -8.322  0.00  0.00     0.031 H 
ATOM     93  H   THR d   1     -63.260  51.557  -9.582  0.00  0.00     0.031 H 
ATOM     94  H   THR d   1     -63.945  51.994  -7.997  0.00  0.00     0.031 H 
ENDBRANCH  87  91
ENDBRANCH  68  87
ENDBRANCH  66  68
ENDBRANCH  62  64
BRANCH  62  95
ATOM     95  CB  LYS d   1     -60.338  49.493 -13.431  0.00  0.00    -0.038 C 
ATOM     96  H   LYS d   1     -59.484  49.036 -12.931  0.00  0.00     0.036 H 
ATOM     97  H   LYS d   1     -60.217  50.556 -13.639  0.00  0.00     0.036 H 
BRANCH  95  98
ATOM     98  CG  LYS d   1     -60.504  48.790 -14.767  0.00  0.00    -0.061 C 
ATOM     99  H   LYS d   1     -60.478  49.523 -15.573  0.00  0.00     0.033 H 
ATOM    100  H   LYS d   1     -61.461  48.268 -14.790  0.00  0.00     0.033 H 
BRANCH  98 101
ATOM    101  CD  LYS d   1     -59.379  47.798 -14.947  0.00  0.00    -0.043 C 
ATOM    102  H   LYS d   1     -59.346  47.151 -14.071  0.00  0.00     0.035 H 
ATOM    103  H   LYS d   1     -58.448  48.351 -15.071  0.00  0.00     0.035 H 
BRANCH 101 104
ATOM    104  CE  LYS d   1     -59.591  46.932 -16.177  0.00  0.00     0.080 C 
ATOM    105  H   LYS d   1     -59.073  47.382 -17.024  0.00  0.00     0.075 H 
ATOM    106  H   LYS d   1     -60.659  46.861 -16.383  0.00  0.00     0.075 H 
BRANCH 104 107
ATOM    107  NZ  LYS d   1     -59.047  45.564 -15.944  0.00  0.00    -0.079 N 
ATOM    108  H   LYS d   1     -59.196  44.994 -16.777  0.00  0.00     0.274 HD
ATOM    109  H   LYS d   1     -58.048  45.626 -15.747  0.00  0.00     0.274 HD
ATOM    110  H   LYS d   1     -59.526  45.140 -15.150  0.00  0.00     0.274 HD
ENDBRANCH 104 107
ENDBRANCH 101 104
ENDBRANCH  98 101
ENDBRANCH  95  98
ENDBRANCH  62  95
ENDBRANCH  60  62
ENDBRANCH  56  58
BRANCH  56 111
ATOM    111  CB  THR d   1     -65.156  52.197 -12.683  0.00  0.00     0.060 C 
ATOM    112  H   THR d   1     -65.477  51.929 -11.676  0.00  0.00     0.086 H 
BRANCH 111 113
ATOM    113  OG1 THR d   1     -66.178  52.944 -13.357  0.00  0.00    -0.393 OA
ATOM    114  H   THR d   1     -66.354  53.754 -12.872  0.00  0.00     0.210 HD
ENDBRANCH 111 113
BRANCH 111 115
ATOM    115  CG2 THR d   1     -63.901  53.059 -12.585  0.00  0.00    -0.050 C 
ATOM    116  H   THR d   1     -63.119  52.502 -12.069  0.00  0.00     0.031 H 
ATOM    117  H   THR d   1     -63.562  53.320 -13.588  0.00  0.00     0.031 H 
ATOM    118  H   THR d   1     -64.129  53.968 -12.028  0.00  0.00     0.031 H 
ENDBRANCH 111 115
ENDBRANCH  56 111
ENDBRANCH  54  56
ENDBRANCH   1  52
BRANCH   1 119
ATOM    119  CB  LYS d   1     -67.178  46.912 -15.042  0.00  0.00    -0.038 C 
ATOM    120  H   LYS d   1     -66.547  46.849 -15.929  0.00  0.00     0.036 H 
ATOM    121  H   LYS d   1     -68.145  46.430 -15.184  0.00  0.00     0.036 H 
BRANCH 119 122
ATOM    122  CG  LYS d   1     -66.458  46.198 -13.898  0.00  0.00    -0.061 C 
ATOM    123  H   LYS d   1     -67.194  45.975 -13.125  0.00  0.00     0.033 H 
ATOM    124  H   LYS d   1     -65.662  46.852 -13.542  0.00  0.00     0.033 H 
BRANCH 122 125
ATOM    125  CD  LYS d   1     -65.828  44.890 -14.334  0.00  0.00    -0.043 C 
ATOM    126  H   LYS d   1     -64.903  44.751 -13.775  0.00  0.00     0.035 H 
ATOM    127  H   LYS d   1     -65.646  44.937 -15.408  0.00  0.00     0.035 H 
BRANCH 125 128
ATOM    128  CE  LYS d   1     -66.737  43.712 -14.055  0.00  0.00     0.080 C 
ATOM    129  H   LYS d   1     -67.681  43.867 -14.578  0.00  0.00     0.075 H 
ATOM    130  H   LYS d   1     -66.895  43.639 -12.979  0.00  0.00     0.075 H 
BRANCH 128 131
ATOM    131  NZ  LYS d   1     -66.124  42.439 -14.538  0.00  0.00    -0.079 N 
ATOM    132  H   LYS d   1     -66.754  41.662 -14.339  0.00  0.00     0.274 HD
ATOM    133  H   LYS d   1     -65.965  42.500 -15.544  0.00  0.00     0.274 HD
ATOM    134  H   LYS d   1     -65.235  42.288 -14.060  0.00  0.00     0.274 HD
ENDBRANCH 128 131
ENDBRANCH 125 128
ENDBRANCH 122 125
ENDBRANCH 119 122
ENDBRANCH   1 119
TORSDOF 41
