REMARK WARNING: 32 MAX_TORS EXCEEDED!!!
REMARK  38 active torsions:
REMARK  status: ('A' for Active; 'I' for Inactive)
REMARK    1  A    between atoms: N_1  and  CA_2 
REMARK    2  A    between atoms: CA_2  and  C_3 
REMARK    3  A    between atoms: CA_2  and  CB_5 
REMARK       I    between atoms: C_3  and  N_9 
REMARK    4  A    between atoms: CB_5  and  CG_6 
REMARK    5  A    between atoms: CG_6  and  CD1_7 
REMARK    6  A    between atoms: CG_6  and  CD2_8 
REMARK    7  A    between atoms: N_9  and  CA_10 
REMARK    8  A    between atoms: CA_10  and  C_11 
REMARK       I    between atoms: C_11  and  N_13 
REMARK    9  A    between atoms: N_13  and  CA_14 
REMARK   10  A    between atoms: CA_14  and  C_15 
REMARK   11  A    between atoms: CA_14  and  CB_17 
REMARK       I    between atoms: C_15  and  N_22 
REMARK   12  A    between atoms: CB_17  and  CG_18 
REMARK   13  A    between atoms: CG_18  and  CD_19 
REMARK   14  A    between atoms: CD_19  and  CE_20 
REMARK   15  A    between atoms: CE_20  and  NZ_21 
REMARK   16  A    between atoms: N_22  and  CA_23 
REMARK   17  A    between atoms: CA_23  and  C_24 
REMARK   18  A    between atoms: CA_23  and  CB_26 
REMARK       I    between atoms: C_24  and  N_33 
REMARK   19  A    between atoms: CB_26  and  CG_27 
REMARK   20  A    between atoms: CG_27  and  CD_28 
REMARK   21  A    between atoms: CD_28  and  NE_29 
REMARK       I    between atoms: NE_29  and  CZ_30 
REMARK       I    between atoms: CZ_30  and  NH1_31 
REMARK       I    between atoms: CZ_30  and  NH2_32 
REMARK   22  A    between atoms: N_33  and  CA_34 
REMARK   23  A    between atoms: CA_34  and  C_35 
REMARK   24  A    between atoms: CA_34  and  CB_37 
REMARK       I    between atoms: C_35  and  N_42 
REMARK   25  A    between atoms: CB_37  and  CG_38 
REMARK   26  A    between atoms: CG_38  and  CD_39 
REMARK   27  A    between atoms: CD_39  and  CE_40 
REMARK   28  A    between atoms: CE_40  and  NZ_41 
REMARK   29  A    between atoms: N_42  and  CA_43 
REMARK   30  A    between atoms: CA_43  and  C_44 
REMARK   31  A    between atoms: CA_43  and  CB_46 
REMARK       I    between atoms: C_44  and  N_53 
REMARK   32  A    between atoms: CB_46  and  CG_47 
REMARK   33  A    between atoms: CG_47  and  CD_48 
REMARK   34  A    between atoms: CD_48  and  NE_49 
REMARK       I    between atoms: NE_49  and  CZ_50 
REMARK       I    between atoms: CZ_50  and  NH1_51 
REMARK   35  A    between atoms: N_53  and  CA_54 
REMARK   36  A    between atoms: CA_54  and  C_55 
REMARK   37  A    between atoms: CA_54  and  CB_57 
REMARK   38  A    between atoms: CB_57  and  CG_58 
ROOT
ATOM      1  CA  ARG d   1       1.486   5.926   7.655  0.00  0.00     0.089 C 
ATOM      2  H31 ARG d   1       2.156   5.705   6.811  0.00  0.00     0.087 H 
ENDROOT
BRANCH   1   3
ATOM      3  N   ARG d   1       0.246   6.493   7.128  0.00  0.00    -0.346 N 
ATOM      4  C   LYS d   1       0.067   6.824   5.859  0.00  0.00     0.241 C 
ATOM      5  O   LYS d   1       0.922   6.682   4.996  0.00  0.00    -0.271 OA
ATOM      6  H30 ARG d   1      -0.512   6.639   7.764  0.00  0.00     0.163 HD
BRANCH   4   7
ATOM      7  CA  LYS d   1      -1.296   7.422   5.527  0.00  0.00     0.089 C 
ATOM      8  H18 LYS d   1      -1.640   7.992   6.403  0.00  0.00     0.087 H 
BRANCH   7   9
ATOM      9  N   LYS d   1      -1.213   8.327   4.404  0.00  0.00    -0.346 N 
ATOM     10  C   GLY d   1      -1.496   9.613   4.535  0.00  0.00     0.236 C 
ATOM     11  O   GLY d   1      -1.810  10.124   5.606  0.00  0.00    -0.272 OA
ATOM     12  H17 LYS d   1      -0.936   7.975   3.510  0.00  0.00     0.163 HD
BRANCH  10  13
ATOM     13  CA  GLY d   1      -1.389  10.437   3.275  0.00  0.00     0.069 C 
ATOM     14  H15 GLY d   1      -1.005   9.810   2.457  0.00  0.00     0.078 H 
ATOM     15  H16 GLY d   1      -2.382  10.825   3.004  0.00  0.00     0.078 H 
BRANCH  13  16
ATOM     16  N   GLY d   1      -0.486  11.539   3.503  0.00  0.00    -0.351 N 
ATOM     17  C   LEU d   1       0.832  11.414   3.422  0.00  0.00     0.248 C 
ATOM     18  O   LEU d   1       1.397  10.372   3.098  0.00  0.00    -0.271 OA
ATOM     19  H14 GLY d   1      -0.870  12.434   3.732  0.00  0.00     0.163 HD
BRANCH  17  20
ATOM     20  CA  LEU d   1       1.620  12.677   3.752  0.00  0.00     0.176 C 
ATOM     21  H4  LEU d   1       0.894  13.495   3.864  0.00  0.00     0.099 H 
BRANCH  20  22
ATOM     22  N   LEU d   1       2.345  12.567   5.013  0.00  0.00    -0.066 N 
ATOM     23  H1  LEU d   1       2.848  13.423   5.187  0.00  0.00     0.275 HD
ATOM     24  H2  LEU d   1       2.996  11.799   4.960  0.00  0.00     0.275 HD
ATOM     25  H3  LEU d   1       1.692  12.403   5.763  0.00  0.00     0.275 HD
ENDBRANCH  20  22
BRANCH  20  26
ATOM     26  CB  LEU d   1       2.560  13.050   2.604  0.00  0.00    -0.028 C 
ATOM     27  H5  LEU d   1       2.218  12.539   1.692  0.00  0.00     0.037 H 
ATOM     28  H6  LEU d   1       3.574  12.708   2.857  0.00  0.00     0.037 H 
BRANCH  26  29
ATOM     29  CG  LEU d   1       2.609  14.551   2.330  0.00  0.00    -0.059 C 
ATOM     30  H7  LEU d   1       1.581  14.936   2.397  0.00  0.00     0.038 H 
BRANCH  29  31
ATOM     31  CD1 LEU d   1       3.439  15.260   3.387  0.00  0.00    -0.073 C 
ATOM     32  H8  LEU d   1       3.462  16.339   3.172  0.00  0.00     0.028 H 
ATOM     33  H9  LEU d   1       4.464  14.862   3.376  0.00  0.00     0.028 H 
ATOM     34  H10 LEU d   1       2.991  15.093   4.378  0.00  0.00     0.028 H 
ENDBRANCH  29  31
BRANCH  29  35
ATOM     35  CD2 LEU d   1       3.119  14.852   0.933  0.00  0.00    -0.073 C 
ATOM     36  H11 LEU d   1       2.498  14.325   0.194  0.00  0.00     0.028 H 
ATOM     37  H12 LEU d   1       4.162  14.514   0.843  0.00  0.00     0.028 H 
ATOM     38  H13 LEU d   1       3.067  15.935   0.749  0.00  0.00     0.028 H 
ENDBRANCH  29  35
ENDBRANCH  26  29
ENDBRANCH  20  26
ENDBRANCH  17  20
ENDBRANCH  13  16
ENDBRANCH  10  13
ENDBRANCH   7   9
BRANCH   7  39
ATOM     39  CB  LYS d   1      -2.318   6.326   5.237  0.00  0.00    -0.038 C 
ATOM     40  H19 LYS d   1      -2.204   5.538   5.996  0.00  0.00     0.036 H 
ATOM     41  H20 LYS d   1      -2.105   5.910   4.241  0.00  0.00     0.036 H 
BRANCH  39  42
ATOM     42  CG  LYS d   1      -3.759   6.801   5.257  0.00  0.00    -0.061 C 
ATOM     43  H21 LYS d   1      -3.777   7.892   5.116  0.00  0.00     0.033 H 
ATOM     44  H22 LYS d   1      -4.204   6.550   6.231  0.00  0.00     0.033 H 
BRANCH  42  45
ATOM     45  CD  LYS d   1      -4.577   6.150   4.161  0.00  0.00    -0.043 C 
ATOM     46  H23 LYS d   1      -4.531   5.057   4.278  0.00  0.00     0.035 H 
ATOM     47  H24 LYS d   1      -4.158   6.432   3.184  0.00  0.00     0.035 H 
BRANCH  45  48
ATOM     48  CE  LYS d   1      -6.027   6.597   4.228  0.00  0.00     0.080 C 
ATOM     49  H25 LYS d   1      -6.064   7.688   4.096  0.00  0.00     0.075 H 
ATOM     50  H26 LYS d   1      -6.430   6.333   5.217  0.00  0.00     0.075 H 
BRANCH  48  51
ATOM     51  NZ  LYS d   1      -6.876   5.964   3.185  0.00  0.00    -0.079 N 
ATOM     52  H27 LYS d   1      -7.824   6.295   3.276  0.00  0.00     0.274 HD
ATOM     53  H28 LYS d   1      -6.858   4.963   3.299  0.00  0.00     0.274 HD
ATOM     54  H29 LYS d   1      -6.522   6.205   2.272  0.00  0.00     0.274 HD
ENDBRANCH  48  51
ENDBRANCH  45  48
ENDBRANCH  42  45
ENDBRANCH  39  42
ENDBRANCH   7  39
ENDBRANCH   4   7
ENDBRANCH   1   3
BRANCH   1  55
ATOM     55  C   ARG d   1       1.224   4.608   8.417  0.00  0.00     0.241 C 
ATOM     56  O   ARG d   1       0.490   4.603   9.404  0.00  0.00    -0.271 OA
ATOM     57  N   LYS d   1       1.844   3.500   7.955  0.00  0.00    -0.346 N 
ATOM     58  H43 LYS d   1       2.396   3.581   7.125  0.00  0.00     0.163 HD
BRANCH  57  59
ATOM     59  CA  LYS d   1       1.755   2.174   8.605  0.00  0.00     0.089 C 
ATOM     60  H44 LYS d   1       0.788   2.121   9.127  0.00  0.00     0.087 H 
BRANCH  59  61
ATOM     61  C   LYS d   1       2.870   1.993   9.649  0.00  0.00     0.241 C 
ATOM     62  O   LYS d   1       3.978   2.509   9.450  0.00  0.00    -0.271 OA
ATOM     63  N   ARG d   1       2.585   1.268  10.753  0.00  0.00    -0.346 N 
ATOM     64  H56 ARG d   1       1.659   0.912  10.882  0.00  0.00     0.163 HD
BRANCH  63  65
ATOM     65  CA  ARG d   1       3.613   0.994  11.769  0.00  0.00     0.089 C 
ATOM     66  H57 ARG d   1       4.331   1.827  11.737  0.00  0.00     0.087 H 
BRANCH  65  67
ATOM     67  C   ARG d   1       4.386  -0.304  11.443  0.00  0.00     0.241 C 
ATOM     68  O   ARG d   1       3.776  -1.376  11.324  0.00  0.00    -0.271 OA
ATOM     69  N   HIS d   1       5.741  -0.188  11.345  0.00  0.00    -0.344 N 
ATOM     70  H69 HIS d   1       6.117   0.733  11.444  0.00  0.00     0.163 HD
BRANCH  69  71
ATOM     71  CA  HIS d   1       6.714  -1.273  11.109  0.00  0.00     0.101 C 
ATOM     72  H70 HIS d   1       7.721  -0.831  11.104  0.00  0.00     0.090 H 
BRANCH  71  73
ATOM     73  C   HIS d   1       6.488  -1.951   9.753  0.00  0.00     0.197 C 
ATOM     74  O   HIS d   1       6.615  -1.296   8.684  0.00  0.00    -0.646 OA
ATOM     75  O   HIS d   1       6.173  -3.170   9.707  0.00  0.00    -0.646 OA
ENDBRANCH  71  73
BRANCH  71  76
ATOM     76  CB  HIS d   1       6.647  -2.308  12.249  0.00  0.00     0.003 C 
ATOM     77  H71 HIS d   1       5.784  -2.965  12.064  0.00  0.00     0.046 H 
ATOM     78  H72 HIS d   1       6.500  -1.766  13.195  0.00  0.00     0.046 H 
BRANCH  76  79
ATOM     79  CG  HIS d   1       7.860  -3.166  12.391  0.00  0.00     0.030 A 
ATOM     80  ND1 HIS d   1       7.869  -4.480  11.954  0.00  0.00    -0.353 N 
ATOM     81  CE1 HIS d   1       9.069  -4.949  12.255  0.00  0.00     0.063 A 
ATOM     82  H73 HIS d   1       7.101  -4.987  11.491  0.00  0.00     0.166 HD
ATOM     83  NE2 HIS d   1       9.816  -4.026  12.865  0.00  0.00    -0.254 NA
ATOM     84  H75 HIS d   1       9.405  -5.961  12.033  0.00  0.00     0.143 H 
ATOM     85  CD2 HIS d   1       9.053  -2.887  12.966  0.00  0.00     0.025 A 
ATOM     86  H74 HIS d   1       9.351  -1.943  13.421  0.00  0.00     0.117 H 
ENDBRANCH  76  79
ENDBRANCH  71  76
ENDBRANCH  69  71
ENDBRANCH  65  67
BRANCH  65  87
ATOM     87  CB  ARG d   1       3.044   0.933  13.202  0.00  0.00    -0.036 C 
ATOM     88  H58 ARG d   1       2.322   0.105  13.266  0.00  0.00     0.036 H 
ATOM     89  H59 ARG d   1       2.534   1.882  13.426  0.00  0.00     0.036 H 
BRANCH  87  90
ATOM     90  CG  ARG d   1       4.154   0.708  14.231  0.00  0.00    -0.048 C 
ATOM     91  H60 ARG d   1       4.965   1.419  14.014  0.00  0.00     0.035 H 
ATOM     92  H61 ARG d   1       4.525  -0.320  14.108  0.00  0.00     0.035 H 
BRANCH  90  93
ATOM     93  CD  ARG d   1       3.754   0.887  15.673  0.00  0.00     0.009 C 
ATOM     94  H62 ARG d   1       3.014   0.120  15.944  0.00  0.00     0.064 H 
ATOM     95  H63 ARG d   1       3.313   1.886  15.807  0.00  0.00     0.064 H 
BRANCH  93  96
ATOM     96  NE  ARG d   1       4.927   0.755  16.538  0.00  0.00    -0.227 N 
ATOM     97  CZ  ARG d   1       4.939   0.971  17.850  0.00  0.00     0.665 C 
ATOM     98  NH1 ARG d   1       3.833   1.347  18.478  0.00  0.00    -0.235 N 
ATOM     99  NH2 ARG d   1       6.061   0.821  18.543  0.00  0.00    -0.235 N 
ATOM    100  H65 ARG d   1       3.849   1.513  19.494  0.00  0.00     0.174 HD
ATOM    101  H66 ARG d   1       2.958   1.473  17.949  0.00  0.00     0.174 HD
ATOM    102  H67 ARG d   1       6.926   0.529  18.066  0.00  0.00     0.174 HD
ATOM    103  H68 ARG d   1       6.067   0.996  19.558  0.00  0.00     0.174 HD
ATOM    104  H64 ARG d   1       5.813   0.472  16.096  0.00  0.00     0.177 HD
ENDBRANCH  93  96
ENDBRANCH  90  93
ENDBRANCH  87  90
ENDBRANCH  65  87
ENDBRANCH  63  65
ENDBRANCH  59  61
BRANCH  59 105
ATOM    105  CB  LYS d   1       1.802   1.024   7.574  0.00  0.00    -0.038 C 
ATOM    106  H45 LYS d   1       0.903   1.098   6.945  0.00  0.00     0.036 H 
ATOM    107  H46 LYS d   1       1.785   0.074   8.127  0.00  0.00     0.036 H 
BRANCH 105 108
ATOM    108  CG  LYS d   1       3.027   1.007   6.646  0.00  0.00    -0.061 C 
ATOM    109  H47 LYS d   1       3.822   1.619   7.098  0.00  0.00     0.033 H 
ATOM    110  H48 LYS d   1       2.741   1.437   5.675  0.00  0.00     0.033 H 
BRANCH 108 111
ATOM    111  CD  LYS d   1       3.567  -0.417   6.418  0.00  0.00    -0.043 C 
ATOM    112  H49 LYS d   1       3.456  -0.981   7.356  0.00  0.00     0.035 H 
ATOM    113  H50 LYS d   1       4.633  -0.343   6.159  0.00  0.00     0.035 H 
BRANCH 111 114
ATOM    114  CE  LYS d   1       2.863  -1.186   5.315  0.00  0.00     0.080 C 
ATOM    115  H51 LYS d   1       3.029  -0.667   4.360  0.00  0.00     0.075 H 
ATOM    116  H52 LYS d   1       1.786  -1.214   5.535  0.00  0.00     0.075 H 
BRANCH 114 117
ATOM    117  NZ  LYS d   1       3.365  -2.583   5.195  0.00  0.00    -0.079 N 
ATOM    118  H53 LYS d   1       2.872  -3.055   4.453  0.00  0.00     0.274 HD
ATOM    119  H54 LYS d   1       3.212  -3.071   6.064  0.00  0.00     0.274 HD
ATOM    120  H55 LYS d   1       4.351  -2.569   4.987  0.00  0.00     0.274 HD
ENDBRANCH 114 117
ENDBRANCH 111 114
ENDBRANCH 108 111
ENDBRANCH 105 108
ENDBRANCH  59 105
ENDBRANCH  57  59
ENDBRANCH   1  55
BRANCH   1 121
ATOM    121  CB  ARG d   1       2.171   6.974   8.568  0.00  0.00    -0.036 C 
ATOM    122  H32 ARG d   1       1.502   7.168   9.419  0.00  0.00     0.036 H 
ATOM    123  H33 ARG d   1       2.298   7.897   7.984  0.00  0.00     0.036 H 
BRANCH 121 124
ATOM    124  CG  ARG d   1       3.529   6.585   9.124  0.00  0.00    -0.048 C 
ATOM    125  H34 ARG d   1       4.108   6.075   8.340  0.00  0.00     0.035 H 
ATOM    126  H35 ARG d   1       3.389   5.906   9.978  0.00  0.00     0.035 H 
BRANCH 124 127
ATOM    127  CD  ARG d   1       4.287   7.815   9.584  0.00  0.00     0.009 C 
ATOM    128  H36 ARG d   1       3.564   8.612   9.811  0.00  0.00     0.064 H 
ATOM    129  H37 ARG d   1       4.953   8.144   8.773  0.00  0.00     0.064 H 
BRANCH 127 130
ATOM    130  NE  ARG d   1       5.093   7.555  10.780  0.00  0.00    -0.227 N 
ATOM    131  CZ  ARG d   1       4.774   7.974  12.001  0.00  0.00     0.665 C 
ATOM    132  NH1 ARG d   1       3.669   8.681  12.202  0.00  0.00    -0.235 N 
ATOM    133  NH2 ARG d   1       5.564   7.696  13.030  0.00  0.00    -0.235 N 
ATOM    134  H39 ARG d   1       3.429   9.002  13.151  0.00  0.00     0.174 HD
ATOM    135  H40 ARG d   1       3.052   8.909  11.409  0.00  0.00     0.174 HD
ATOM    136  H41 ARG d   1       6.424   7.148  12.886  0.00  0.00     0.174 HD
ATOM    137  H42 ARG d   1       5.317   8.028  13.973  0.00  0.00     0.174 HD
ATOM    138  H38 ARG d   1       5.962   7.013  10.668  0.00  0.00     0.177 HD
ENDBRANCH 127 130
ENDBRANCH 124 127
ENDBRANCH 121 124
ENDBRANCH   1 121
TORSDOF 38
