REMARK WARNING: 32 MAX_TORS EXCEEDED!!!
REMARK  47 active torsions:
REMARK  status: ('A' for Active; 'I' for Inactive)
REMARK    1  A    between atoms: N_1  and  CA_2 
REMARK    2  A    between atoms: CA_2  and  C_3 
REMARK    3  A    between atoms: CA_2  and  CB_5 
REMARK       I    between atoms: C_3  and  N_7 
REMARK    4  A    between atoms: CB_5  and  OG_6 
REMARK    5  A    between atoms: N_7  and  CA_8 
REMARK    6  A    between atoms: CA_8  and  C_9 
REMARK    7  A    between atoms: CA_8  and  CB_11 
REMARK       I    between atoms: C_9  and  N_14 
REMARK    8  A    between atoms: CB_11  and  CG1_12 
REMARK    9  A    between atoms: CB_11  and  CG2_13 
REMARK   10  A    between atoms: N_14  and  CA_15 
REMARK   11  A    between atoms: CA_15  and  C_16 
REMARK   12  A    between atoms: CA_15  and  CB_18 
REMARK       I    between atoms: C_16  and  N_22 
REMARK   13  A    between atoms: CB_18  and  CG_19 
REMARK   14  A    between atoms: CG_19  and  CD1_20 
REMARK   15  A    between atoms: CG_19  and  CD2_21 
REMARK   16  A    between atoms: N_22  and  CA_23 
REMARK   17  A    between atoms: CA_23  and  C_24 
REMARK       I    between atoms: C_24  and  N_26 
REMARK   18  A    between atoms: N_26  and  CA_27 
REMARK   19  A    between atoms: CA_27  and  C_28 
REMARK   20  A    between atoms: CA_27  and  CB_30 
REMARK       I    between atoms: C_28  and  N_35 
REMARK   21  A    between atoms: CB_30  and  CG_31 
REMARK   22  A    between atoms: CG_31  and  CD_32 
REMARK   23  A    between atoms: CD_32  and  CE_33 
REMARK   24  A    between atoms: CE_33  and  NZ_34 
REMARK   25  A    between atoms: N_35  and  CA_36 
REMARK   26  A    between atoms: CA_36  and  C_37 
REMARK   27  A    between atoms: CA_36  and  CB_39 
REMARK       I    between atoms: C_37  and  N_46 
REMARK   28  A    between atoms: CB_39  and  CG_40 
REMARK   29  A    between atoms: CG_40  and  CD_41 
REMARK   30  A    between atoms: CD_41  and  NE_42 
REMARK       I    between atoms: NE_42  and  CZ_43 
REMARK       I    between atoms: CZ_43  and  NH1_44 
REMARK       I    between atoms: CZ_43  and  NH2_45 
REMARK   31  A    between atoms: N_46  and  CA_47 
REMARK   32  A    between atoms: CA_47  and  C_48 
REMARK   33  A    between atoms: CA_47  and  CB_50 
REMARK       I    between atoms: C_48  and  N_55 
REMARK   34  A    between atoms: CB_50  and  CG_51 
REMARK   35  A    between atoms: CG_51  and  CD_52 
REMARK   36  A    between atoms: CD_52  and  CE_53 
REMARK   37  A    between atoms: CE_53  and  NZ_54 
REMARK   38  A    between atoms: N_55  and  CA_56 
REMARK   39  A    between atoms: CA_56  and  C_57 
REMARK   40  A    between atoms: CA_56  and  CB_59 
REMARK       I    between atoms: C_57  and  N_66 
REMARK   41  A    between atoms: CB_59  and  CG_60 
REMARK   42  A    between atoms: CG_60  and  CD_61 
REMARK   43  A    between atoms: CD_61  and  NE_62 
REMARK       I    between atoms: NE_62  and  CZ_63 
REMARK       I    between atoms: CZ_63  and  NH1_64 
REMARK   44  A    between atoms: N_66  and  CA_67 
REMARK   45  A    between atoms: CA_67  and  C_68 
REMARK   46  A    between atoms: CA_67  and  CB_70 
REMARK   47  A    between atoms: CB_70  and  CG_71 
ROOT
ATOM      1  CA  ARG d   1      15.508  -9.887  27.265  0.00  0.00     0.089 C 
ATOM      2  H45 ARG d   1      15.337 -10.057  26.192  0.00  0.00     0.087 H 
ENDROOT
BRANCH   1   3
ATOM      3  N   ARG d   1      15.523 -11.176  27.952  0.00  0.00    -0.346 N 
ATOM      4  C   LYS d   1      15.315 -12.353  27.343  0.00  0.00     0.241 C 
ATOM      5  O   LYS d   1      15.061 -12.471  26.138  0.00  0.00    -0.271 OA
ATOM      6  H44 ARG d   1      15.699 -11.181  28.936  0.00  0.00     0.163 HD
BRANCH   4   7
ATOM      7  CA  LYS d   1      15.439 -13.583  28.216  0.00  0.00     0.089 C 
ATOM      8  H32 LYS d   1      15.392 -13.267  29.269  0.00  0.00     0.087 H 
BRANCH   7   9
ATOM      9  N   LYS d   1      14.358 -14.536  27.982  0.00  0.00    -0.346 N 
ATOM     10  C   GLY d   1      13.077 -14.288  28.284  0.00  0.00     0.236 C 
ATOM     11  O   GLY d   1      12.692 -13.227  28.780  0.00  0.00    -0.272 OA
ATOM     12  H31 LYS d   1      14.586 -15.420  27.575  0.00  0.00     0.163 HD
BRANCH  10  13
ATOM     13  CA  GLY d   1      12.098 -15.398  27.989  0.00  0.00     0.069 C 
ATOM     14  H29 GLY d   1      12.336 -15.817  27.000  0.00  0.00     0.078 H 
ATOM     15  H30 GLY d   1      12.216 -16.178  28.756  0.00  0.00     0.078 H 
BRANCH  13  16
ATOM     16  N   GLY d   1      10.708 -14.966  27.983  0.00  0.00    -0.351 N 
ATOM     17  C   LEU d   1       9.832 -15.347  27.050  0.00  0.00     0.240 C 
ATOM     18  O   LEU d   1      10.103 -16.086  26.101  0.00  0.00    -0.271 OA
ATOM     19  H28 GLY d   1      10.395 -14.356  28.711  0.00  0.00     0.163 HD
BRANCH  17  20
ATOM     20  CA  LEU d   1       8.429 -14.811  27.227  0.00  0.00     0.089 C 
ATOM     21  H18 LEU d   1       8.509 -13.781  27.605  0.00  0.00     0.087 H 
BRANCH  20  22
ATOM     22  N   LEU d   1       7.672 -14.763  25.974  0.00  0.00    -0.346 N 
ATOM     23  C   VAL d   1       7.784 -13.779  25.059  0.00  0.00     0.241 C 
ATOM     24  O   VAL d   1       8.609 -12.867  25.154  0.00  0.00    -0.271 OA
ATOM     25  H17 LEU d   1       7.031 -15.507  25.785  0.00  0.00     0.163 HD
BRANCH  23  26
ATOM     26  CA  VAL d   1       6.830 -13.832  23.838  0.00  0.00     0.092 C 
ATOM     27  H9  VAL d   1       7.433 -13.609  22.945  0.00  0.00     0.088 H 
BRANCH  26  28
ATOM     28  N   VAL d   1       6.303 -15.192  23.659  0.00  0.00    -0.346 N 
ATOM     29  C   SER d   1       6.774 -16.003  22.695  0.00  0.00     0.251 C 
ATOM     30  O   SER d   1       7.637 -15.649  21.901  0.00  0.00    -0.271 OA
ATOM     31  H8  VAL d   1       5.580 -15.521  24.266  0.00  0.00     0.163 HD
BRANCH  29  32
ATOM     32  CA  SER d   1       6.214 -17.433  22.597  0.00  0.00     0.195 C 
ATOM     33  H4  SER d   1       6.825 -17.990  21.871  0.00  0.00     0.102 H 
BRANCH  32  34
ATOM     34  N   SER d   1       6.305 -18.119  23.886  0.00  0.00    -0.064 N 
ATOM     35  H1  SER d   1       5.933 -19.052  23.797  0.00  0.00     0.275 HD
ATOM     36  H2  SER d   1       5.775 -17.610  24.576  0.00  0.00     0.275 HD
ATOM     37  H3  SER d   1       7.270 -18.168  24.173  0.00  0.00     0.275 HD
ENDBRANCH  32  34
BRANCH  32  38
ATOM     38  CB  SER d   1       4.777 -17.415  22.089  0.00  0.00     0.051 C 
ATOM     39  H5  SER d   1       4.131 -16.974  22.863  0.00  0.00     0.077 H 
ATOM     40  H6  SER d   1       4.457 -18.448  21.889  0.00  0.00     0.077 H 
BRANCH  38  41
ATOM     41  OG  SER d   1       4.649 -16.655  20.895  0.00  0.00    -0.398 OA
ATOM     42  H7  SER d   1       3.743 -16.666  20.609  0.00  0.00     0.209 HD
ENDBRANCH  38  41
ENDBRANCH  32  38
ENDBRANCH  29  32
ENDBRANCH  26  28
BRANCH  26  43
ATOM     43  CB  VAL d   1       5.736 -12.722  23.918  0.00  0.00    -0.033 C 
ATOM     44  H10 VAL d   1       6.263 -11.759  23.982  0.00  0.00     0.042 H 
BRANCH  43  45
ATOM     45  CG1 VAL d   1       4.881 -12.684  22.660  0.00  0.00    -0.071 C 
ATOM     46  H11 VAL d   1       4.124 -11.891  22.755  0.00  0.00     0.028 H 
ATOM     47  H12 VAL d   1       4.381 -13.655  22.527  0.00  0.00     0.028 H 
ATOM     48  H13 VAL d   1       5.520 -12.479  21.788  0.00  0.00     0.028 H 
ENDBRANCH  43  45
BRANCH  43  49
ATOM     49  CG2 VAL d   1       4.868 -12.838  25.167  0.00  0.00    -0.071 C 
ATOM     50  H14 VAL d   1       5.511 -12.863  26.059  0.00  0.00     0.028 H 
ATOM     51  H15 VAL d   1       4.274 -13.763  25.116  0.00  0.00     0.028 H 
ATOM     52  H16 VAL d   1       4.193 -11.972  25.226  0.00  0.00     0.028 H 
ENDBRANCH  43  49
ENDBRANCH  26  43
ENDBRANCH  23  26
ENDBRANCH  20  22
BRANCH  20  53
ATOM     53  CB  LEU d   1       7.693 -15.647  28.274  0.00  0.00    -0.035 C 
ATOM     54  H19 LEU d   1       8.310 -15.662  29.185  0.00  0.00     0.037 H 
ATOM     55  H20 LEU d   1       7.597 -16.669  27.879  0.00  0.00     0.037 H 
BRANCH  53  56
ATOM     56  CG  LEU d   1       6.301 -15.168  28.665  0.00  0.00    -0.059 C 
ATOM     57  H21 LEU d   1       5.733 -15.006  27.737  0.00  0.00     0.038 H 
BRANCH  56  58
ATOM     58  CD1 LEU d   1       5.583 -16.212  29.455  0.00  0.00    -0.073 C 
ATOM     59  H22 LEU d   1       4.582 -15.844  29.725  0.00  0.00     0.028 H 
ATOM     60  H23 LEU d   1       6.151 -16.435  30.370  0.00  0.00     0.028 H 
ATOM     61  H24 LEU d   1       5.487 -17.127  28.852  0.00  0.00     0.028 H 
ENDBRANCH  56  58
BRANCH  56  62
ATOM     62  CD2 LEU d   1       6.354 -13.840  29.402  0.00  0.00    -0.073 C 
ATOM     63  H25 LEU d   1       6.889 -13.101  28.788  0.00  0.00     0.028 H 
ATOM     64  H26 LEU d   1       6.881 -13.972  30.359  0.00  0.00     0.028 H 
ATOM     65  H27 LEU d   1       5.330 -13.486  29.593  0.00  0.00     0.028 H 
ENDBRANCH  56  62
ENDBRANCH  53  56
ENDBRANCH  20  53
ENDBRANCH  17  20
ENDBRANCH  13  16
ENDBRANCH  10  13
ENDBRANCH   7   9
BRANCH   7  66
ATOM     66  CB  LYS d   1      16.805 -14.235  27.960  0.00  0.00    -0.038 C 
ATOM     67  H33 LYS d   1      17.581 -13.469  28.105  0.00  0.00     0.036 H 
ATOM     68  H34 LYS d   1      16.826 -14.586  26.918  0.00  0.00     0.036 H 
BRANCH  66  69
ATOM     69  CG  LYS d   1      17.136 -15.422  28.866  0.00  0.00    -0.061 C 
ATOM     70  H35 LYS d   1      17.786 -16.119  28.316  0.00  0.00     0.033 H 
ATOM     71  H36 LYS d   1      16.200 -15.932  29.140  0.00  0.00     0.033 H 
BRANCH  69  72
ATOM     72  CD  LYS d   1      17.835 -14.995  30.114  0.00  0.00    -0.043 C 
ATOM     73  H37 LYS d   1      17.175 -14.326  30.686  0.00  0.00     0.035 H 
ATOM     74  H38 LYS d   1      18.757 -14.459  29.846  0.00  0.00     0.035 H 
BRANCH  72  75
ATOM     75  CE  LYS d   1      18.185 -16.185  30.961  0.00  0.00     0.080 C 
ATOM     76  H39 LYS d   1      18.745 -16.912  30.354  0.00  0.00     0.075 H 
ATOM     77  H40 LYS d   1      17.261 -16.652  31.332  0.00  0.00     0.075 H 
BRANCH  75  78
ATOM     78  NZ  LYS d   1      19.024 -15.758  32.121  0.00  0.00    -0.079 N 
ATOM     79  H41 LYS d   1      19.254 -16.562  32.683  0.00  0.00     0.274 HD
ATOM     80  H42 LYS d   1      18.512 -15.093  32.679  0.00  0.00     0.274 HD
ATOM     81  H43 LYS d   1      19.872 -15.331  31.783  0.00  0.00     0.274 HD
ENDBRANCH  75  78
ENDBRANCH  72  75
ENDBRANCH  69  72
ENDBRANCH  66  69
ENDBRANCH   7  66
ENDBRANCH   4   7
ENDBRANCH   1   3
BRANCH   1  82
ATOM     82  C   ARG d   1      16.835  -9.200  27.454  0.00  0.00     0.241 C 
ATOM     83  O   ARG d   1      17.251  -8.980  28.593  0.00  0.00    -0.271 OA
ATOM     84  N   LYS d   1      17.497  -8.835  26.356  0.00  0.00    -0.346 N 
ATOM     85  H57 LYS d   1      17.120  -9.092  25.466  0.00  0.00     0.163 HD
BRANCH  84  86
ATOM     86  CA  LYS d   1      18.746  -8.078  26.389  0.00  0.00     0.089 C 
ATOM     87  H58 LYS d   1      19.375  -8.453  27.209  0.00  0.00     0.087 H 
BRANCH  86  88
ATOM     88  C   LYS d   1      18.391  -6.623  26.658  0.00  0.00     0.241 C 
ATOM     89  O   LYS d   1      17.205  -6.272  26.601  0.00  0.00    -0.271 OA
ATOM     90  N   ARG d   1      19.392  -5.775  26.977  0.00  0.00    -0.346 N 
ATOM     91  H70 ARG d   1      20.323  -6.132  27.059  0.00  0.00     0.163 HD
BRANCH  90  92
ATOM     92  CA  ARG d   1      19.155  -4.348  27.207  0.00  0.00     0.089 C 
ATOM     93  H71 ARG d   1      18.319  -4.238  27.913  0.00  0.00     0.087 H 
BRANCH  92  94
ATOM     94  C   ARG d   1      18.764  -3.678  25.872  0.00  0.00     0.241 C 
ATOM     95  O   ARG d   1      19.475  -3.860  24.881  0.00  0.00    -0.271 OA
ATOM     96  N   HIS d   1      17.581  -3.007  25.830  0.00  0.00    -0.344 N 
ATOM     97  H83 HIS d   1      17.049  -2.981  26.677  0.00  0.00     0.163 HD
BRANCH  96  98
ATOM     98  CA  HIS d   1      17.001  -2.312  24.660  0.00  0.00     0.101 C 
ATOM     99  H84 HIS d   1      15.915  -2.258  24.823  0.00  0.00     0.090 H 
BRANCH  98 100
ATOM    100  C   HIS d   1      17.232  -3.038  23.317  0.00  0.00     0.197 C 
ATOM    101  O   HIS d   1      17.060  -4.282  23.209  0.00  0.00    -0.646 OA
ATOM    102  O   HIS d   1      17.599  -2.375  22.311  0.00  0.00    -0.646 OA
ENDBRANCH  98 100
BRANCH  98 103
ATOM    103  CB  HIS d   1      17.539  -0.877  24.552  0.00  0.00     0.003 C 
ATOM    104  H85 HIS d   1      17.119  -0.414  23.647  0.00  0.00     0.046 H 
ATOM    105  H86 HIS d   1      18.635  -0.920  24.468  0.00  0.00     0.046 H 
BRANCH 103 106
ATOM    106  CG  HIS d   1      17.187  -0.022  25.729  0.00  0.00     0.030 A 
ATOM    107  ND1 HIS d   1      15.913   0.486  25.896  0.00  0.00    -0.353 N 
ATOM    108  CE1 HIS d   1      15.947   1.176  27.024  0.00  0.00     0.063 A 
ATOM    109  H87 HIS d   1      15.104   0.355  25.272  0.00  0.00     0.166 HD
ATOM    110  NE2 HIS d   1      17.155   1.136  27.586  0.00  0.00    -0.254 NA
ATOM    111  H89 HIS d   1      15.095   1.710  27.441  0.00  0.00     0.143 H 
ATOM    112  CD2 HIS d   1      17.956   0.374  26.770  0.00  0.00     0.025 A 
ATOM    113  H88 HIS d   1      19.006   0.135  26.930  0.00  0.00     0.117 H 
ENDBRANCH 103 106
ENDBRANCH  98 103
ENDBRANCH  96  98
ENDBRANCH  92  94
BRANCH  92 114
ATOM    114  CB  ARG d   1      20.399  -3.684  27.825  0.00  0.00    -0.036 C 
ATOM    115  H72 ARG d   1      21.176  -3.599  27.051  0.00  0.00     0.036 H 
ATOM    116  H73 ARG d   1      20.767  -4.318  28.645  0.00  0.00     0.036 H 
BRANCH 114 117
ATOM    117  CG  ARG d   1      20.104  -2.297  28.374  0.00  0.00    -0.048 C 
ATOM    118  H74 ARG d   1      19.259  -2.373  29.074  0.00  0.00     0.035 H 
ATOM    119  H75 ARG d   1      19.826  -1.643  27.534  0.00  0.00     0.035 H 
BRANCH 117 120
ATOM    120  CD  ARG d   1      21.276  -1.666  29.105  0.00  0.00     0.009 C 
ATOM    121  H76 ARG d   1      21.029  -0.615  29.318  0.00  0.00     0.064 H 
ATOM    122  H77 ARG d   1      22.160  -1.710  28.451  0.00  0.00     0.064 H 
BRANCH 120 123
ATOM    123  NE  ARG d   1      21.600  -2.333  30.370  0.00  0.00    -0.227 N 
ATOM    124  CZ  ARG d   1      20.928  -2.179  31.510  0.00  0.00     0.665 C 
ATOM    125  NH1 ARG d   1      19.852  -1.404  31.556  0.00  0.00    -0.235 N 
ATOM    126  NH2 ARG d   1      21.308  -2.823  32.601  0.00  0.00    -0.235 N 
ATOM    127  H79 ARG d   1      19.337  -1.290  32.441  0.00  0.00     0.174 HD
ATOM    128  H80 ARG d   1      19.532  -0.917  30.707  0.00  0.00     0.174 HD
ATOM    129  H81 ARG d   1      22.142  -3.428  32.578  0.00  0.00     0.174 HD
ATOM    130  H82 ARG d   1      20.770  -2.720  33.474  0.00  0.00     0.174 HD
ATOM    131  H78 ARG d   1      22.410  -2.970  30.378  0.00  0.00     0.177 HD
ENDBRANCH 120 123
ENDBRANCH 117 120
ENDBRANCH 114 117
ENDBRANCH  92 114
ENDBRANCH  90  92
ENDBRANCH  86  88
BRANCH  86 132
ATOM    132  CB  LYS d   1      19.527  -8.234  25.064  0.00  0.00    -0.038 C 
ATOM    133  H59 LYS d   1      20.320  -7.472  25.045  0.00  0.00     0.036 H 
ATOM    134  H60 LYS d   1      18.827  -8.056  24.234  0.00  0.00     0.036 H 
BRANCH 132 135
ATOM    135  CG  LYS d   1      20.181  -9.603  24.847  0.00  0.00    -0.061 C 
ATOM    136  H61 LYS d   1      20.299  -9.773  23.767  0.00  0.00     0.033 H 
ATOM    137  H62 LYS d   1      19.528 -10.380  25.271  0.00  0.00     0.033 H 
BRANCH 135 138
ATOM    138  CD  LYS d   1      21.562  -9.696  25.517  0.00  0.00    -0.043 C 
ATOM    139  H63 LYS d   1      21.484  -9.339  26.555  0.00  0.00     0.035 H 
ATOM    140  H64 LYS d   1      22.274  -9.066  24.965  0.00  0.00     0.035 H 
BRANCH 138 141
ATOM    141  CE  LYS d   1      22.059 -11.115  25.520  0.00  0.00     0.080 C 
ATOM    142  H65 LYS d   1      22.247 -11.434  24.484  0.00  0.00     0.075 H 
ATOM    143  H66 LYS d   1      21.295 -11.765  25.971  0.00  0.00     0.075 H 
BRANCH 141 144
ATOM    144  NZ  LYS d   1      23.310 -11.225  26.297  0.00  0.00    -0.079 N 
ATOM    145  H67 LYS d   1      23.628 -12.181  26.288  0.00  0.00     0.274 HD
ATOM    146  H68 LYS d   1      23.142 -10.936  27.248  0.00  0.00     0.274 HD
ATOM    147  H69 LYS d   1      24.014 -10.633  25.885  0.00  0.00     0.274 HD
ENDBRANCH 141 144
ENDBRANCH 138 141
ENDBRANCH 135 138
ENDBRANCH 132 135
ENDBRANCH  86 132
ENDBRANCH  84  86
ENDBRANCH   1  82
BRANCH   1 148
ATOM    148  CB  ARG d   1      14.397  -8.988  27.809  0.00  0.00    -0.036 C 
ATOM    149  H46 ARG d   1      14.594  -7.962  27.464  0.00  0.00     0.036 H 
ATOM    150  H47 ARG d   1      14.444  -9.021  28.907  0.00  0.00     0.036 H 
BRANCH 148 151
ATOM    151  CG  ARG d   1      12.983  -9.356  27.392  0.00  0.00    -0.048 C 
ATOM    152  H48 ARG d   1      12.771 -10.395  27.685  0.00  0.00     0.035 H 
ATOM    153  H49 ARG d   1      12.883  -9.255  26.301  0.00  0.00     0.035 H 
BRANCH 151 154
ATOM    154  CD  ARG d   1      12.013  -8.434  28.073  0.00  0.00     0.009 C 
ATOM    155  H50 ARG d   1      10.992  -8.679  27.744  0.00  0.00     0.064 H 
ATOM    156  H51 ARG d   1      12.248  -7.396  27.795  0.00  0.00     0.064 H 
BRANCH 154 157
ATOM    157  NE  ARG d   1      12.091  -8.569  29.534  0.00  0.00    -0.227 N 
ATOM    158  CZ  ARG d   1      11.706  -7.641  30.401  0.00  0.00     0.665 C 
ATOM    159  NH1 ARG d   1      11.196  -6.492  29.972  0.00  0.00    -0.235 N 
ATOM    160  NH2 ARG d   1      11.825  -7.855  31.705  0.00  0.00    -0.235 N 
ATOM    161  H53 ARG d   1      10.899  -5.776  30.650  0.00  0.00     0.174 HD
ATOM    162  H54 ARG d   1      11.098  -6.317  28.962  0.00  0.00     0.174 HD
ATOM    163  H55 ARG d   1      12.219  -8.743  32.047  0.00  0.00     0.174 HD
ATOM    164  H56 ARG d   1      11.523  -7.133  32.375  0.00  0.00     0.174 HD
ATOM    165  H52 ARG d   1      12.472  -9.448  29.913  0.00  0.00     0.177 HD
ENDBRANCH 154 157
ENDBRANCH 151 154
ENDBRANCH 148 151
ENDBRANCH   1 148
TORSDOF 47
