REMARK  8 active torsions:
REMARK  status: ('A' for Active; 'I' for Inactive)
REMARK    1  A    between atoms: CAU_6  and  CAA_7 
REMARK    2  A    between atoms: NBD_9  and  CBC_10 
REMARK    3  A    between atoms: CBA_13  and  OAD_14 
REMARK    4  A    between atoms: CBB_15  and  CAN_16 
REMARK    5  A    between atoms: CAN_16  and  NAP_17 
REMARK    6  A    between atoms: NAP_17  and  CAT_18 
REMARK    7  A    between atoms: NAQ_20  and  CAV_21 
REMARK    8  A    between atoms: CAX_27  and  CBE_28 
ROOT
ATOM      1  CBC 74W d   1      15.266  -2.298   3.906  0.00  0.00     0.116 C 
ATOM      2  OAS 74W d   1      14.603  -3.488   4.392  0.00  0.00    -0.357 OA
ATOM      3  CAO 74W d   1      16.584  -2.392   4.622  0.00  0.00     0.002 C 
ATOM      4  CBA 74W d   1      16.930  -3.854   4.395  0.00  0.00     0.066 C 
ATOM      5  CBB 74W d   1      15.594  -4.495   4.054  0.00  0.00     0.081 C 
ATOM      6  H6  74W d   1      15.387  -2.350   2.814  0.00  0.00     0.118 H 
ATOM      7  H7  74W d   1      16.480  -2.163   5.693  0.00  0.00     0.043 H 
ATOM      8  H8  74W d   1      17.335  -1.724   4.175  0.00  0.00     0.043 H 
ATOM      9  H9  74W d   1      17.390  -4.303   5.287  0.00  0.00     0.087 H 
ATOM     10  H11 74W d   1      15.494  -4.778   2.996  0.00  0.00     0.089 H 
ENDROOT
BRANCH   5  11
ATOM     11  CAN 74W d   1      15.687  -5.724   4.939  0.00  0.00     0.021 C 
ATOM     12  H12 74W d   1      16.662  -5.734   5.449  0.00  0.00     0.068 H 
ATOM     13  H13 74W d   1      15.588  -6.628   4.320  0.00  0.00     0.068 H 
BRANCH  11  14
ATOM     14  NAP 74W d   1      14.632  -5.701   5.924  0.00  0.00    -0.364 N 
ATOM     15  H14 74W d   1      14.079  -4.873   6.012  0.00  0.00     0.162 HD
BRANCH  14  16
ATOM     16  CAT 74W d   1      14.363  -6.733   6.720  0.00  0.00     0.172 C 
ATOM     17  SAE 74W d   1      13.094  -6.476   7.821  0.00  0.00    -0.041 SA
ATOM     18  NAQ 74W d   1      14.993  -7.939   6.767  0.00  0.00    -0.333 N 
ATOM     19  H15 74W d   1      14.629  -8.542   7.477  0.00  0.00     0.168 HD
BRANCH  18  20
ATOM     20  CAV 74W d   1      16.012  -8.506   6.058  0.00  0.00     0.035 A 
ATOM     21  CAL 74W d   1      16.797  -7.875   5.069  0.00  0.00    -0.041 A 
ATOM     22  CAX 74W d   1      17.820  -8.591   4.403  0.00  0.00     0.071 A 
ATOM     23  H16 74W d   1      16.615  -6.836   4.818  0.00  0.00     0.088 H 
ATOM     24  CAW 74W d   1      18.059  -9.925   4.737  0.00  0.00     0.049 A 
ATOM     25  CAK 74W d   1      17.289 -10.546   5.716  0.00  0.00    -0.059 A 
ATOM     26 CL   74W d   1      19.322 -10.807   3.926  0.00  0.00    -0.083 Cl
ATOM     27  CAJ 74W d   1      16.280  -9.842   6.365  0.00  0.00    -0.056 A 
ATOM     28  H18 74W d   1      17.476 -11.582   5.974  0.00  0.00     0.086 H 
ATOM     29  H17 74W d   1      15.689 -10.341   7.125  0.00  0.00     0.087 H 
BRANCH  22  30
ATOM     30  CBE 74W d   1      18.710  -7.944   3.293  0.00  0.00     0.419 C 
ATOM     31  FAF 74W d   1      18.582  -6.618   3.313  0.00  0.00    -0.166 F 
ATOM     32  FAG 74W d   1      19.996  -8.285   3.444  0.00  0.00    -0.166 F 
ATOM     33  FAH 74W d   1      18.344  -8.384   2.088  0.00  0.00    -0.166 F 
ENDBRANCH  22  30
ENDBRANCH  18  20
ENDBRANCH  14  16
ENDBRANCH  11  14
ENDBRANCH   5  11
BRANCH   4  34
ATOM     34  OAD 74W d   1      17.779  -4.003   3.258  0.00  0.00    -0.393 OA
ATOM     35  H10 74W d   1      18.582  -3.516   3.398  0.00  0.00     0.210 HD
ENDBRANCH   4  34
BRANCH   1  36
ATOM     36  NBD 74W d   1      14.641  -1.010   4.254  0.00  0.00    -0.282 N 
ATOM     37  CAZ 74W d   1      14.603  -0.012   3.281  0.00  0.00     0.331 A 
ATOM     38  OAC 74W d   1      15.075  -0.227   2.164  0.00  0.00    -0.246 OA
ATOM     39  NAR 74W d   1      14.021   1.218   3.564  0.00  0.00    -0.275 N 
ATOM     40  CAY 74W d   1      13.481   1.454   4.827  0.00  0.00     0.256 A 
ATOM     41  H1  74W d   1      13.990   1.931   2.864  0.00  0.00     0.173 HD
ATOM     42  OAB 74W d   1      12.962   2.546   5.071  0.00  0.00    -0.267 OA
ATOM     43  CAU 74W d   1      13.523   0.454   5.801  0.00  0.00     0.022 A 
ATOM     44  CAM 74W d   1      14.104  -0.780   5.519  0.00  0.00    -0.002 A 
ATOM     45  H5  74W d   1      14.138  -1.558   6.280  0.00  0.00     0.113 H 
BRANCH  43  46
ATOM     46  CAA 74W d   1      12.932   0.714   7.187  0.00  0.00    -0.045 C 
ATOM     47  H2  74W d   1      13.057  -0.182   7.813  0.00  0.00     0.033 H 
ATOM     48  H3  74W d   1      11.861   0.948   7.091  0.00  0.00     0.033 H 
ATOM     49  H4  74W d   1      13.452   1.563   7.654  0.00  0.00     0.033 H 
ENDBRANCH  43  46
ENDBRANCH   1  36
TORSDOF 8
