REMARK  7 active torsions:
REMARK  status: ('A' for Active; 'I' for Inactive)
REMARK    1  A    between atoms: CAT_6  and  CAA_7 
REMARK    2  A    between atoms: NBC_9  and  CBA_10 
REMARK    3  A    between atoms: CAY_13  and  OAE_14 
REMARK    4  A    between atoms: CAZ_15  and  CAM_16 
REMARK    5  A    between atoms: CAM_16  and  NAO_17 
REMARK       I    between atoms: NAO_17  and  CAS_18 
REMARK       I    between atoms: CAS_18  and  NAP_20 
REMARK    6  A    between atoms: NAP_20  and  CAU_21 
REMARK    7  A    between atoms: CAV_26  and  NBB_27 
ROOT
ATOM      1  CBA WMJ d   1      16.374   5.129   1.997  0.00  0.00     0.116 C 
ATOM      2  OAR WMJ d   1      15.394   5.165   0.939  0.00  0.00    -0.357 OA
ATOM      3  CAN WMJ d   1      16.898   6.526   2.211  0.00  0.00     0.002 C 
ATOM      4  CAY WMJ d   1      15.816   7.389   1.594  0.00  0.00     0.066 C 
ATOM      5  CAZ WMJ d   1      15.273   6.517   0.471  0.00  0.00     0.081 C 
ATOM      6  H6  WMJ d   1      17.219   4.487   1.707  0.00  0.00     0.118 H 
ATOM      7  H7  WMJ d   1      17.860   6.671   1.699  0.00  0.00     0.043 H 
ATOM      8  H8  WMJ d   1      17.016   6.745   3.283  0.00  0.00     0.043 H 
ATOM      9  H9  WMJ d   1      16.213   8.344   1.219  0.00  0.00     0.087 H 
ATOM     10  H11 WMJ d   1      14.229   6.784   0.248  0.00  0.00     0.089 H 
ENDROOT
BRANCH   5  11
ATOM     11  CAM WMJ d   1      16.137   6.581  -0.817  0.00  0.00     0.023 C 
ATOM     12  H12 WMJ d   1      15.818   5.795  -1.517  0.00  0.00     0.068 H 
ATOM     13  H13 WMJ d   1      17.197   6.435  -0.560  0.00  0.00     0.068 H 
BRANCH  11  14
ATOM     14  NAO WMJ d   1      15.956   7.902  -1.440  0.00  0.00    -0.340 N 
ATOM     15  CAS WMJ d   1      15.132   8.059  -2.506  0.00  0.00     0.320 C 
ATOM     16  OAB WMJ d   1      14.484   7.119  -3.015  0.00  0.00    -0.247 OA
ATOM     17  NAP WMJ d   1      15.146   9.291  -3.031  0.00  0.00    -0.309 N 
ATOM     18  H15 WMJ d   1      15.746   9.961  -2.595  0.00  0.00     0.170 HD
ATOM     19  H14 WMJ d   1      16.446   8.693  -1.073  0.00  0.00     0.164 HD
BRANCH  17  20
ATOM     20  CAU WMJ d   1      14.417   9.721  -4.109  0.00  0.00     0.036 A 
ATOM     21  CAI WMJ d   1      14.752  10.965  -4.652  0.00  0.00    -0.055 A 
ATOM     22  CAK WMJ d   1      14.044  11.455  -5.762  0.00  0.00    -0.049 A 
ATOM     23  H16 WMJ d   1      15.555  11.549  -4.218  0.00  0.00     0.087 H 
ATOM     24  CAV WMJ d   1      12.983  10.709  -6.296  0.00  0.00     0.103 A 
ATOM     25  H17 WMJ d   1      14.317  12.406  -6.204  0.00  0.00     0.087 H 
ATOM     26  CAJ WMJ d   1      12.632   9.469  -5.752  0.00  0.00    -0.049 A 
ATOM     27  CAH WMJ d   1      13.375   8.975  -4.663  0.00  0.00    -0.055 A 
ATOM     28  H19 WMJ d   1      11.805   8.900  -6.161  0.00  0.00     0.087 H 
ATOM     29  H18 WMJ d   1      13.135   8.002  -4.249  0.00  0.00     0.087 H 
BRANCH  24  30
ATOM     30  NBB WMJ d   1      12.302  11.181  -7.357  0.00  0.00    -0.116 N 
ATOM     31  OAG WMJ d   1      10.965  10.864  -7.501  0.00  0.00    -0.532 OA
ATOM     32  OAF WMJ d   1      12.981  11.921  -8.297  0.00  0.00    -0.532 OA
ENDBRANCH  24  30
ENDBRANCH  17  20
ENDBRANCH  11  14
ENDBRANCH   5  11
BRANCH   4  33
ATOM     33  OAE WMJ d   1      14.804   7.608   2.546  0.00  0.00    -0.393 OA
ATOM     34  H10 WMJ d   1      14.123   8.149   2.164  0.00  0.00     0.210 HD
ENDBRANCH   4  33
BRANCH   1  35
ATOM     35  NBC WMJ d   1      15.679   4.506   3.185  0.00  0.00    -0.282 N 
ATOM     36  CAX WMJ d   1      16.462   3.987   4.204  0.00  0.00     0.331 A 
ATOM     37  OAD WMJ d   1      17.666   4.048   4.140  0.00  0.00    -0.246 OA
ATOM     38  NAQ WMJ d   1      15.886   3.338   5.280  0.00  0.00    -0.275 N 
ATOM     39  CAW WMJ d   1      14.511   3.262   5.391  0.00  0.00     0.256 A 
ATOM     40  H1  WMJ d   1      16.466   2.922   5.980  0.00  0.00     0.173 HD
ATOM     41  OAC WMJ d   1      14.056   2.658   6.351  0.00  0.00    -0.267 OA
ATOM     42  CAT WMJ d   1      13.701   3.796   4.374  0.00  0.00     0.022 A 
ATOM     43  CAL WMJ d   1      14.274   4.432   3.292  0.00  0.00    -0.002 A 
ATOM     44  H5  WMJ d   1      13.644   4.876   2.523  0.00  0.00     0.113 H 
BRANCH  42  45
ATOM     45  CAA WMJ d   1      12.168   3.733   4.452  0.00  0.00    -0.045 C 
ATOM     46  H2  WMJ d   1      11.736   4.206   3.558  0.00  0.00     0.033 H 
ATOM     47  H3  WMJ d   1      11.824   4.265   5.351  0.00  0.00     0.033 H 
ATOM     48  H4  WMJ d   1      11.846   2.682   4.503  0.00  0.00     0.033 H 
ENDBRANCH  42  45
ENDBRANCH   1  35
TORSDOF 7
