REMARK  3 active torsions:
REMARK  status: ('A' for Active; 'I' for Inactive)
REMARK    1  A    between atoms: C15_16  and  C1_1 
REMARK    2  A    between atoms: N1_10  and  C15_16 
REMARK    3  A    between atoms: C10_11  and  C14_15 
ROOT
ATOM      1  C7  8Y6 d   1      23.057  45.502  46.234  0.00  0.00     0.044 A 
ATOM      2  C8  8Y6 d   1      24.608  43.457  46.710  0.00  0.00     0.039 A 
ATOM      3  C9  8Y6 d   1      25.406  42.637  45.886  0.00  0.00     0.052 A 
ATOM      4  N1  8Y6 d   1      25.219  43.065  44.619  0.00  0.00    -0.335 N 
ATOM      5  C10 8Y6 d   1      24.351  44.139  44.565  0.00  0.00     0.125 A 
ATOM      6  C11 8Y6 d   1      23.931  44.411  45.889  0.00  0.00     0.029 A 
ATOM      7  C12 8Y6 d   1      26.201  41.457  47.825  0.00  0.00     0.131 A 
ATOM      8  C13 8Y6 d   1      26.203  41.638  46.432  0.00  0.00    -0.018 A 
ATOM      9  C16 8Y6 d   1      21.754  45.718  45.474  0.00  0.00     0.277 A 
ATOM     10  N2  8Y6 d   1      21.006  46.822  45.856  0.00  0.00    -0.226 NA
ATOM     11  C17 8Y6 d   1      21.363  47.680  46.869  0.00  0.00    -0.011 A 
ATOM     12  C18 8Y6 d   1      22.487  47.492  47.563  0.00  0.00    -0.018 A 
ATOM     13  C19 8Y6 d   1      23.366  46.388  47.228  0.00  0.00    -0.082 A 
ATOM     14  O2  8Y6 d   1      21.380  44.945  44.563  0.00  0.00    -0.265 OA
ATOM     15  F2  8Y6 d   1      27.008  40.527  48.340  0.00  0.00    -0.205 F 
ATOM     16  C22 8Y6 d   1      25.402  42.237  48.679  0.00  0.00     0.039 A 
ATOM     17  C23 8Y6 d   1      24.615  43.230  48.102  0.00  0.00     0.101 A 
ATOM     18  O5  8Y6 d   1      23.918  43.911  49.025  0.00  0.00    -0.321 OA
ATOM     19  C25 8Y6 d   1      25.147  42.319  50.074  0.00  0.00    -0.046 A 
ATOM     20  C24 8Y6 d   1      24.239  43.336  50.221  0.00  0.00     0.020 A 
ATOM     21  H3  8Y6 d   1      26.815  41.010  45.795  0.00  0.00     0.091 H 
ATOM     22  H6  8Y6 d   1      20.719  48.525  47.108  0.00  0.00     0.108 H 
ATOM     23  H7  8Y6 d   1      22.193  47.357  48.614  0.00  0.00     0.046 H 
ATOM     24  H8  8Y6 d   1      23.080  48.413  47.463  0.00  0.00     0.046 H 
ATOM     25  H9  8Y6 d   1      24.295  46.262  47.782  0.00  0.00     0.079 H 
ATOM     26  H12 8Y6 d   1      25.581  41.704  50.861  0.00  0.00     0.087 H 
ATOM     27  H13 8Y6 d   1      23.823  43.648  51.178  0.00  0.00     0.123 H 
ENDROOT
BRANCH   4  28
ATOM     28  C15 8Y6 d   1      25.956  42.508  43.502  0.00  0.00     0.027 C 
ATOM     29  H4  8Y6 d   1      26.274  41.481  43.734  0.00  0.00     0.072 H 
ATOM     30  H5  8Y6 d   1      25.327  42.502  42.600  0.00  0.00     0.072 H 
BRANCH  28  31
ATOM     31  C1  8Y6 d   1      27.176  43.396  43.283  0.00  0.00    -0.000 A 
ATOM     32  C2  8Y6 d   1      27.396  44.553  44.066  0.00  0.00    -0.055 A 
ATOM     33  C3  8Y6 d   1      28.545  45.349  43.854  0.00  0.00     0.061 A 
ATOM     34  H1  8Y6 d   1      26.681  44.831  44.832  0.00  0.00     0.086 H 
ATOM     35  C4  8Y6 d   1      29.507  44.988  42.884  0.00  0.00     0.076 A 
ATOM     36  C20 8Y6 d   1      28.784  46.586  44.645  0.00  0.00     0.259 A 
ATOM     37  C5  8Y6 d   1      29.267  43.851  42.093  0.00  0.00    -0.016 A 
ATOM     38  N4  8Y6 d   1      30.688  45.743  42.669  0.00  0.00    -0.243 NA
ATOM     39  C6  8Y6 d   1      28.106  43.098  42.289  0.00  0.00     0.126 A 
ATOM     40  H2  8Y6 d   1      29.982  43.559  41.332  0.00  0.00     0.091 H 
ATOM     41  F1  8Y6 d   1      27.881  42.043  41.499  0.00  0.00    -0.205 F 
ATOM     42  C21 8Y6 d   1      30.864  46.795  43.402  0.00  0.00     0.067 A 
ATOM     43  N3  8Y6 d   1      29.975  47.246  44.346  0.00  0.00    -0.317 N 
ATOM     44  H11 8Y6 d   1      31.782  47.363  43.260  0.00  0.00     0.143 H 
ATOM     45  H10 8Y6 d   1      30.192  48.087  44.842  0.00  0.00     0.169 HD
ATOM     46  O4  8Y6 d   1      27.975  46.986  45.477  0.00  0.00    -0.267 OA
ENDBRANCH  28  31
ENDBRANCH   4  28
BRANCH   5  47
ATOM     47  C14 8Y6 d   1      23.995  44.879  43.349  0.00  0.00     0.228 C 
ATOM     48  O1  8Y6 d   1      23.859  46.088  43.251  0.00  0.00    -0.643 OA
ATOM     49  O3  8Y6 d   1      23.810  44.066  42.285  0.00  0.00    -0.643 OA
ENDBRANCH   5  47
TORSDOF 3
