REMARK  19 active torsions:
REMARK  status: ('A' for Active; 'I' for Inactive)
REMARK    1  A    between atoms: CBE_1  and  CBG_3 
REMARK       I    between atoms: NBD_12  and  CBE_1 
REMARK    2  A    between atoms: CBG_3  and  CBH_4 
REMARK    3  A    between atoms: CAX_13  and  NBD_12 
REMARK    4  A    between atoms: CAV_14  and  CAX_13 
REMARK    5  A    between atoms: CAX_13  and  CAY_16 
REMARK       I    between atoms: N_21  and  CAV_14 
REMARK    6  A    between atoms: CAY_16  and  CAZ_17 
REMARK    7  A    between atoms: CAZ_17  and  CBA_18 
REMARK    8  A    between atoms: CBA_18  and  CBB_19 
REMARK    9  A    between atoms: CBB_19  and  NBC_20 
REMARK   10  A    between atoms: CA_22  and  N_21 
REMARK   11  A    between atoms: C_23  and  CA_22 
REMARK   12  A    between atoms: CA_22  and  CB_25 
REMARK       I    between atoms: NAL_41  and  C_23 
REMARK   13  A    between atoms: CB_25  and  CG_26 
REMARK   14  A    between atoms: CG_26  and  CD_27 
REMARK   15  A    between atoms: CD_27  and  CE_28 
REMARK   16  A    between atoms: CE_28  and  NZ_29 
REMARK   17  A    between atoms: CAB_31  and  NAC_32 
REMARK       I    between atoms: NAC_32  and  CAD_33 
REMARK       I    between atoms: CAD_33  and  NAE_34 
REMARK   18  A    between atoms: CAK_40  and  CAI_38 
REMARK   19  A    between atoms: CAK_40  and  NAL_41 
ROOT
ATOM      1  CA  EBN d   1      49.205 -24.763 -18.879  0.00  0.00     0.089 C 
ATOM      2  H20 EBN d   1      49.566 -23.728 -18.969  0.00  0.00     0.087 H 
ENDROOT
BRANCH   1   3
ATOM      3  N   EBN d   1      48.535 -25.148 -20.140  0.00  0.00    -0.346 N 
ATOM      4  CAV EBN d   1      48.670 -24.453 -21.302  0.00  0.00     0.241 C 
ATOM      5  OAW EBN d   1      49.326 -23.407 -21.435  0.00  0.00    -0.271 OA
ATOM      6  H19 EBN d   1      47.953 -25.961 -20.139  0.00  0.00     0.163 HD
BRANCH   4   7
ATOM      7  CAX EBN d   1      47.955 -25.090 -22.534  0.00  0.00     0.089 C 
ATOM      8  H7  EBN d   1      48.658 -25.009 -23.376  0.00  0.00     0.087 H 
BRANCH   7   9
ATOM      9  NBD EBN d   1      47.689 -26.515 -22.317  0.00  0.00    -0.348 N 
ATOM     10  CBE EBN d   1      48.455 -27.474 -22.856  0.00  0.00     0.222 C 
ATOM     11  OBF EBN d   1      49.453 -27.275 -23.553  0.00  0.00    -0.273 OA
ATOM     12  H6  EBN d   1      46.911 -26.780 -21.748  0.00  0.00     0.163 HD
BRANCH  10  13
ATOM     13  CBG EBN d   1      47.949 -28.891 -22.544  0.00  0.00     0.033 C 
ATOM     14  H1  EBN d   1      47.497 -29.314 -23.453  0.00  0.00     0.054 H 
ATOM     15  H2  EBN d   1      47.189 -28.829 -21.751  0.00  0.00     0.054 H 
BRANCH  13  16
ATOM     16  CBH EBN d   1      48.959 -29.724 -22.124  0.00  0.00    -0.048 A 
ATOM     17  CBI EBN d   1      49.600 -30.525 -23.056  0.00  0.00    -0.075 A 
ATOM     18  CBJ EBN d   1      50.611 -31.362 -22.645  0.00  0.00    -0.060 A 
ATOM     19  H3  EBN d   1      49.307 -30.492 -24.099  0.00  0.00     0.084 H 
ATOM     20  CBK EBN d   1      50.949 -31.380 -21.301  0.00  0.00     0.055 A 
ATOM     21  H4  EBN d   1      51.132 -31.993 -23.356  0.00  0.00     0.086 H 
ATOM     22 CLL  EBN d   1      52.181 -32.411 -20.779  0.00  0.00    -0.083 Cl
ATOM     23  CBM EBN d   1      50.302 -30.580 -20.364  0.00  0.00     0.056 A 
ATOM     24 CLN  EBN d   1      50.778 -30.636 -18.642  0.00  0.00    -0.083 Cl
ATOM     25  CBO EBN d   1      49.288 -29.741 -20.779  0.00  0.00    -0.054 A 
ATOM     26  H5  EBN d   1      48.762 -29.111 -20.070  0.00  0.00     0.087 H 
ENDBRANCH  13  16
ENDBRANCH  10  13
ENDBRANCH   7   9
BRANCH   7  27
ATOM     27  CAY EBN d   1      46.644 -24.381 -22.975  0.00  0.00    -0.038 C 
ATOM     28  H8  EBN d   1      46.602 -24.390 -24.074  0.00  0.00     0.036 H 
ATOM     29  H9  EBN d   1      46.680 -23.341 -22.618  0.00  0.00     0.036 H 
BRANCH  27  30
ATOM     30  CAZ EBN d   1      45.344 -25.031 -22.437  0.00  0.00    -0.061 C 
ATOM     31  H10 EBN d   1      44.767 -24.273 -21.887  0.00  0.00     0.033 H 
ATOM     32  H11 EBN d   1      45.611 -25.854 -21.757  0.00  0.00     0.033 H 
BRANCH  30  33
ATOM     33  CBA EBN d   1      44.468 -25.593 -23.587  0.00  0.00    -0.043 C 
ATOM     34  H12 EBN d   1      43.624 -26.145 -23.147  0.00  0.00     0.035 H 
ATOM     35  H13 EBN d   1      45.080 -26.279 -24.191  0.00  0.00     0.035 H 
BRANCH  33  36
ATOM     36  CBB EBN d   1      43.906 -24.488 -24.514  0.00  0.00     0.080 C 
ATOM     37  H14 EBN d   1      43.830 -24.888 -25.536  0.00  0.00     0.075 H 
ATOM     38  H15 EBN d   1      44.598 -23.633 -24.505  0.00  0.00     0.075 H 
BRANCH  36  39
ATOM     39  NBC EBN d   1      42.575 -24.026 -24.085  0.00  0.00    -0.079 N 
ATOM     40  H16 EBN d   1      42.249 -23.309 -24.715  0.00  0.00     0.274 HD
ATOM     41  H17 EBN d   1      42.634 -23.651 -23.151  0.00  0.00     0.274 HD
ATOM     42  H18 EBN d   1      41.931 -24.801 -24.096  0.00  0.00     0.274 HD
ENDBRANCH  36  39
ENDBRANCH  33  36
ENDBRANCH  30  33
ENDBRANCH  27  30
ENDBRANCH   7  27
ENDBRANCH   4   7
ENDBRANCH   1   3
BRANCH   1  43
ATOM     43  C   EBN d   1      50.426 -25.692 -18.736  0.00  0.00     0.240 C 
ATOM     44  O   EBN d   1      50.308 -26.853 -18.342  0.00  0.00    -0.271 OA
ATOM     45  NAL EBN d   1      51.584 -25.128 -19.148  0.00  0.00    -0.359 N 
ATOM     46  H49 EBN d   1      51.553 -24.160 -19.397  0.00  0.00     0.162 HD
BRANCH  45  47
ATOM     47  CAK EBN d   1      52.876 -25.800 -19.264  0.00  0.00    -0.001 C 
ATOM     48  H47 EBN d   1      53.712 -25.140 -18.988  0.00  0.00     0.064 H 
ATOM     49  H48 EBN d   1      52.920 -26.719 -18.661  0.00  0.00     0.064 H 
BRANCH  47  50
ATOM     50  CAI EBN d   1      52.848 -26.093 -20.745  0.00  0.00    -0.039 C 
ATOM     51  CAH EBN d   1      52.614 -27.553 -20.965  0.00  0.00    -0.058 C 
ATOM     52  CAG EBN d   1      52.391 -27.772 -22.455  0.00  0.00    -0.045 C 
ATOM     53  H42 EBN d   1      53.491 -28.127 -20.630  0.00  0.00     0.033 H 
ATOM     54  H43 EBN d   1      51.726 -27.878 -20.402  0.00  0.00     0.033 H 
ATOM     55  CAB EBN d   1      53.654 -27.364 -23.196  0.00  0.00     0.026 C 
ATOM     56  H40 EBN d   1      52.175 -28.834 -22.646  0.00  0.00     0.036 H 
ATOM     57  H41 EBN d   1      51.545 -27.158 -22.798  0.00  0.00     0.036 H 
ATOM     58  CAA EBN d   1      53.924 -25.902 -22.952  0.00  0.00    -0.045 C 
ATOM     59  H34 EBN d   1      54.484 -27.933 -22.752  0.00  0.00     0.073 H 
ATOM     60  CAJ EBN d   1      54.111 -25.692 -21.437  0.00  0.00    -0.058 C 
ATOM     61  H32 EBN d   1      53.074 -25.302 -23.309  0.00  0.00     0.036 H 
ATOM     62  H33 EBN d   1      54.837 -25.598 -23.485  0.00  0.00     0.036 H 
ATOM     63  H45 EBN d   1      54.326 -24.633 -21.233  0.00  0.00     0.033 H 
ATOM     64  H46 EBN d   1      54.945 -26.312 -21.076  0.00  0.00     0.033 H 
ATOM     65  H44 EBN d   1      52.016 -25.528 -21.191  0.00  0.00     0.042 H 
BRANCH  55  66
ATOM     66  NAC EBN d   1      53.651 -27.687 -24.647  0.00  0.00    -0.222 N 
ATOM     67  CAD EBN d   1      52.661 -28.149 -25.467  0.00  0.00     0.665 C 
ATOM     68  NAE EBN d   1      52.960 -28.453 -26.739  0.00  0.00    -0.235 N 
ATOM     69  NAF EBN d   1      51.392 -28.318 -25.054  0.00  0.00    -0.235 N 
ATOM     70  H36 EBN d   1      52.226 -28.803 -27.371  0.00  0.00     0.174 HD
ATOM     71  H37 EBN d   1      53.924 -28.337 -27.083  0.00  0.00     0.174 HD
ATOM     72  H38 EBN d   1      51.132 -28.093 -24.083  0.00  0.00     0.174 HD
ATOM     73  H39 EBN d   1      50.680 -28.672 -25.709  0.00  0.00     0.174 HD
ATOM     74  H35 EBN d   1      54.555 -27.536 -25.117  0.00  0.00     0.178 HD
ENDBRANCH  55  66
ENDBRANCH  47  50
ENDBRANCH  45  47
ENDBRANCH   1  43
BRANCH   1  75
ATOM     75  CB  EBN d   1      48.243 -24.806 -17.699  0.00  0.00    -0.038 C 
ATOM     76  H21 EBN d   1      48.787 -24.651 -16.755  0.00  0.00     0.036 H 
ATOM     77  H22 EBN d   1      47.719 -25.773 -17.666  0.00  0.00     0.036 H 
BRANCH  75  78
ATOM     78  CG  EBN d   1      47.249 -23.670 -17.933  0.00  0.00    -0.061 C 
ATOM     79  H23 EBN d   1      46.604 -23.922 -18.788  0.00  0.00     0.033 H 
ATOM     80  H24 EBN d   1      47.801 -22.744 -18.151  0.00  0.00     0.033 H 
BRANCH  78  81
ATOM     81  CD  EBN d   1      46.388 -23.462 -16.699  0.00  0.00    -0.043 C 
ATOM     82  H25 EBN d   1      47.004 -23.583 -15.796  0.00  0.00     0.035 H 
ATOM     83  H26 EBN d   1      45.574 -24.201 -16.689  0.00  0.00     0.035 H 
BRANCH  81  84
ATOM     84  CE  EBN d   1      45.802 -22.060 -16.731  0.00  0.00     0.080 C 
ATOM     85  H27 EBN d   1      44.781 -22.104 -17.137  0.00  0.00     0.075 H 
ATOM     86  H28 EBN d   1      46.425 -21.422 -17.375  0.00  0.00     0.075 H 
BRANCH  84  87
ATOM     87  NZ  EBN d   1      45.760 -21.486 -15.373  0.00  0.00    -0.079 N 
ATOM     88  H29 EBN d   1      45.369 -20.558 -15.413  0.00  0.00     0.274 HD
ATOM     89  H30 EBN d   1      46.695 -21.442 -14.998  0.00  0.00     0.274 HD
ATOM     90  H31 EBN d   1      45.187 -22.067 -14.780  0.00  0.00     0.274 HD
ENDBRANCH  84  87
ENDBRANCH  81  84
ENDBRANCH  78  81
ENDBRANCH  75  78
ENDBRANCH   1  75
TORSDOF 19
