REMARK  5 active torsions:
REMARK  status: ('A' for Active; 'I' for Inactive)
REMARK    1  A    between atoms: N_1  and  CA_2 
REMARK    2  A    between atoms: CA_2  and  C_3 
REMARK    3  A    between atoms: CA_2  and  CB_5 
REMARK    4  A    between atoms: CB_5  and  CG_6 
REMARK    5  A    between atoms: CZ_11  and  OH_12 
ROOT
ATOM      1  CG  TYR d   1      95.820 -39.452 -19.093  0.00  0.00    -0.056 A 
ATOM      2  CD1 TYR d   1      95.987 -38.109 -18.805  0.00  0.00    -0.074 A 
ATOM      3  CD2 TYR d   1      96.892 -40.257 -18.932  0.00  0.00    -0.074 A 
ATOM      4  CE1 TYR d   1      97.152 -37.619 -18.235  0.00  0.00    -0.051 A 
ATOM      5  CE2 TYR d   1      98.059 -39.796 -18.368  0.00  0.00    -0.051 A 
ATOM      6  CZ  TYR d   1      98.185 -38.484 -18.022  0.00  0.00     0.065 A 
ATOM      7  H7  TYR d   1      95.182 -37.419 -19.032  0.00  0.00     0.084 H 
ATOM      8  H8  TYR d   1      96.832 -41.290 -19.255  0.00  0.00     0.084 H 
ATOM      9  H9  TYR d   1      97.240 -36.573 -17.965  0.00  0.00     0.087 H 
ATOM     10  H10 TYR d   1      98.883 -40.480 -18.198  0.00  0.00     0.087 H 
ENDROOT
BRANCH   1  11
ATOM     11  CB  TYR d   1      94.560 -39.978 -19.806  0.00  0.00    -0.005 C 
ATOM     12  H5  TYR d   1      94.349 -39.304 -20.649  0.00  0.00     0.044 H 
ATOM     13  H6  TYR d   1      94.789 -40.984 -20.188  0.00  0.00     0.044 H 
BRANCH  11  14
ATOM     14  CA  TYR d   1      93.315 -40.078 -18.982  0.00  0.00     0.186 C 
ATOM     15  H4  TYR d   1      92.491 -40.483 -19.588  0.00  0.00     0.101 H 
BRANCH  14  16
ATOM     16  N   TYR d   1      92.952 -38.703 -18.469  0.00  0.00    -0.065 N 
ATOM     17  H1  TYR d   1      92.767 -38.092 -19.249  0.00  0.00     0.275 HD
ATOM     18  H2  TYR d   1      93.718 -38.334 -17.927  0.00  0.00     0.275 HD
ATOM     19  H3  TYR d   1      92.130 -38.767 -17.889  0.00  0.00     0.275 HD
ENDBRANCH  14  16
BRANCH  14  20
ATOM     20  C   TYR d   1      93.601 -41.020 -17.766  0.00  0.00     0.204 C 
ATOM     21  O   TYR d   1      93.815 -40.552 -16.650  0.00  0.00    -0.646 OA
ATOM     22  OXT TYR d   1      93.543 -42.244 -17.942  0.00  0.00    -0.646 OA
ENDBRANCH  14  20
ENDBRANCH  11  14
ENDBRANCH   1  11
BRANCH   6  23
ATOM     23  OH  TYR d   1      99.400 -38.093 -17.532  0.00  0.00    -0.361 OA
ATOM     24  H11 TYR d   1      99.374 -37.166 -17.326  0.00  0.00     0.217 HD
ENDBRANCH   6  23
TORSDOF 5
