REMARK WARNING: 32 MAX_TORS EXCEEDED!!!
REMARK  68 active torsions:
REMARK  status: ('A' for Active; 'I' for Inactive)
REMARK    1  A    between atoms: CA_2  and  N_1 
REMARK    2  A    between atoms: C_3  and  CA_2 
REMARK    3  A    between atoms: CA_2  and  CB_5 
REMARK       I    between atoms: N_6  and  C_3 
REMARK    4  A    between atoms: CA_7  and  N_6 
REMARK    5  A    between atoms: C_8  and  CA_7 
REMARK    6  A    between atoms: CA_7  and  CB_10 
REMARK       I    between atoms: N_14  and  C_8 
REMARK    7  A    between atoms: CB_10  and  CG1_11 
REMARK    8  A    between atoms: CB_10  and  CG2_12 
REMARK    9  A    between atoms: CG1_11  and  CD1_13 
REMARK   10  A    between atoms: CA_15  and  N_14 
REMARK   11  A    between atoms: C_16  and  CA_15 
REMARK   12  A    between atoms: CA_15  and  CB_18 
REMARK       I    between atoms: N_19  and  C_16 
REMARK   13  A    between atoms: CA_20  and  N_19 
REMARK   14  A    between atoms: C_21  and  CA_20 
REMARK   15  A    between atoms: CA_20  and  CB_23 
REMARK       I    between atoms: N_28  and  C_21 
REMARK   16  A    between atoms: CB_23  and  CG_24 
REMARK   17  A    between atoms: CG_24  and  CD_25 
REMARK       I    between atoms: CD_25  and  NE2_27 
REMARK   18  A    between atoms: CA_29  and  N_28 
REMARK   19  A    between atoms: C_30  and  CA_29 
REMARK   20  A    between atoms: CA_29  and  CB_32 
REMARK       I    between atoms: N_37  and  C_30 
REMARK   21  A    between atoms: CB_32  and  CG_33 
REMARK   22  A    between atoms: CG_33  and  CD_34 
REMARK   23  A    between atoms: CA_38  and  N_37 
REMARK   24  A    between atoms: C_39  and  CA_38 
REMARK   25  A    between atoms: CA_38  and  CB_41 
REMARK       I    between atoms: N_45  and  C_39 
REMARK   26  A    between atoms: CB_41  and  CG_42 
REMARK   27  A    between atoms: CG_42  and  CD1_43 
REMARK   28  A    between atoms: CG_42  and  CD2_44 
REMARK   29  A    between atoms: CA_46  and  N_45 
REMARK   30  A    between atoms: C_47  and  CA_46 
REMARK   31  A    between atoms: CA_46  and  CB_49 
REMARK       I    between atoms: N_57  and  C_47 
REMARK   32  A    between atoms: CB_49  and  CG_50 
REMARK   33  A    between atoms: CG_50  and  CD_51 
REMARK   34  A    between atoms: CD_51  and  NE_52 
REMARK       I    between atoms: NE_52  and  CZ_53 
REMARK       I    between atoms: CZ_53  and  NH1_54 
REMARK   35  A    between atoms: CA_59  and  N_57 
REMARK   36  A    between atoms: CA_59  and  CB1_64 
REMARK   37  A    between atoms: CA_66  and  CB_69 
REMARK   38  A    between atoms: CB_69  and  CG1_70 
REMARK   39  A    between atoms: CB_69  and  CG2_71 
REMARK   40  A    between atoms: CG1_70  and  CD1_72 
REMARK   41  A    between atoms: CA_78  and  CB_81 
REMARK   42  A    between atoms: CB_81  and  CG_82 
REMARK   43  A    between atoms: CA_88  and  C_85 
REMARK       I    between atoms: C_85  and  N_94 
REMARK   44  A    between atoms: CA_88  and  CB1_93 
REMARK   45  A    between atoms: N_94  and  CA_95 
REMARK   46  A    between atoms: CA_95  and  C_96 
REMARK   47  A    between atoms: CA_95  and  CB_98 
REMARK       I    between atoms: C_96  and  N_105 
REMARK   48  A    between atoms: CB_98  and  CG_99 
REMARK   49  A    between atoms: N_105  and  CA_106 
REMARK   50  A    between atoms: CA_106  and  C_107 
REMARK   51  A    between atoms: CA_106  and  CB_109 
REMARK       I    between atoms: C_107  and  N_113 
REMARK   52  A    between atoms: CB_109  and  CG_110 
REMARK       I    between atoms: CG_110  and  ND2_112 
REMARK   53  A    between atoms: N_113  and  CA_114 
REMARK   54  A    between atoms: CA_114  and  C_115 
REMARK   55  A    between atoms: CA_114  and  CB_117 
REMARK       I    between atoms: C_115  and  N_118 
REMARK   56  A    between atoms: N_118  and  CA_119 
REMARK   57  A    between atoms: CA_119  and  C_120 
REMARK   58  A    between atoms: CA_119  and  CB_122 
REMARK       I    between atoms: C_120  and  N_130 
REMARK   59  A    between atoms: CB_122  and  CG_123 
REMARK   60  A    between atoms: CZ_128  and  OH_129 
REMARK   61  A    between atoms: N_130  and  CA_131 
REMARK   62  A    between atoms: CA_131  and  C_132 
REMARK   63  A    between atoms: CA_131  and  CB_134 
REMARK       I    between atoms: C_132  and  N_142 
REMARK   64  A    between atoms: CB_134  and  CG_135 
REMARK   65  A    between atoms: CZ_140  and  OH_141 
REMARK   66  A    between atoms: N_142  and  CA_143 
REMARK   67  A    between atoms: CA_143  and  C_144 
REMARK   68  A    between atoms: CA_143  and  CB_146 
REMARK       I    between atoms: C_144  and  N_147 
ROOT
ATOM      1  N   ILE d   1       6.538   9.301  -6.117  0.00  0.00    -0.345 N 
ATOM      2  CA  ILE d   1       5.968   9.716  -7.391  0.00  0.00     0.092 C 
ATOM      3  C   ILE d   1       4.984   8.664  -7.934  0.00  0.00     0.241 C 
ATOM      4  O   ILE d   1       4.024   9.003  -8.602  0.00  0.00    -0.271 OA
ATOM      5  H   ILE d   1       7.508   8.991  -6.055  0.00  0.00     0.163 HD
ATOM      6  H   ILE d   1       5.395  10.623  -7.199  0.00  0.00     0.088 H 
ATOM      7  C   MK8 d   1       5.763   9.336  -5.036  0.00  0.00     0.246 C 
ATOM      8  O   MK8 d   1       4.580   9.653  -5.097  0.00  0.00    -0.271 OA
ATOM      9  CA  MK8 d   1       6.406   8.976  -3.700  0.00  0.00     0.110 C 
ATOM     10  CB  MK8 d   1       7.391  10.086  -3.340  0.00  0.00    -0.033 C 
ATOM     11  CD  MK8 d   1       6.732  12.322  -4.407  0.00  0.00    -0.050 C 
ATOM     12  CE  MK8 d   1       5.959  13.603  -4.183  0.00  0.00    -0.107 C 
ATOM     13  CG  MK8 d   1       6.704  11.443  -3.154  0.00  0.00    -0.059 C 
ATOM     14  N   MK8 d   1       1.797   9.631  -6.084  0.00  0.00    -0.342 N 
ATOM     15  CA  MK8 d   1       1.268  10.870  -6.660  0.00  0.00     0.110 C 
ATOM     16  CB  MK8 d   1       2.417  11.829  -6.953  0.00  0.00    -0.033 C 
ATOM     17  CD  MK8 d   1       4.282  13.247  -6.058  0.00  0.00    -0.050 C 
ATOM     18  CE  MK8 d   1       4.872  13.969  -4.869  0.00  0.00    -0.107 C 
ATOM     19  CG  MK8 d   1       3.038  12.435  -5.695  0.00  0.00    -0.059 C 
ATOM     20  H   MK8 d   1       8.105  10.180  -4.158  0.00  0.00     0.037 H 
ATOM     21  H   MK8 d   1       7.869   9.819  -2.397  0.00  0.00     0.037 H 
ATOM     22  H   MK8 d   1       7.768  12.572  -4.637  0.00  0.00     0.038 H 
ATOM     23  H   MK8 d   1       6.273  11.774  -5.230  0.00  0.00     0.038 H 
ATOM     24  H   MK8 d   1       6.315  14.277  -3.404  0.00  0.00     0.076 H 
ATOM     25  H   MK8 d   1       7.241  11.976  -2.369  0.00  0.00     0.033 H 
ATOM     26  H   MK8 d   1       5.659  11.249  -2.914  0.00  0.00     0.033 H 
ATOM     27  H   MK8 d   1       2.789   9.577  -5.852  0.00  0.00     0.163 HD
ATOM     28  H   MK8 d   1       2.017  12.649  -7.549  0.00  0.00     0.037 H 
ATOM     29  H   MK8 d   1       3.196  11.262  -7.463  0.00  0.00     0.037 H 
ATOM     30  H   MK8 d   1       5.035  12.556  -6.438  0.00  0.00     0.038 H 
ATOM     31  H   MK8 d   1       3.991  13.996  -6.794  0.00  0.00     0.038 H 
ATOM     32  H   MK8 d   1       4.363  14.874  -4.539  0.00  0.00     0.076 H 
ATOM     33  H   MK8 d   1       3.322  11.632  -5.015  0.00  0.00     0.033 H 
ATOM     34  H   MK8 d   1       2.310  13.092  -5.219  0.00  0.00     0.033 H 
ATOM     35  N   GLY d   1       5.219   7.395  -7.625  0.00  0.00    -0.351 N 
ATOM     36  CA  GLY d   1       4.268   6.357  -7.993  0.00  0.00     0.069 C 
ATOM     37  C   GLY d   1       2.921   6.611  -7.351  0.00  0.00     0.236 C 
ATOM     38  O   GLY d   1       1.866   6.445  -7.974  0.00  0.00    -0.272 OA
ATOM     39  H   GLY d   1       6.073   7.145  -7.126  0.00  0.00     0.163 HD
ATOM     40  H   GLY d   1       4.646   5.395  -7.648  0.00  0.00     0.078 H 
ATOM     41  H   GLY d   1       4.147   6.359  -9.076  0.00  0.00     0.078 H 
ATOM     42  N   ASP d   1       2.945   7.025  -6.089  0.00  0.00    -0.346 N 
ATOM     43  CA  ASP d   1       1.713   7.306  -5.365  0.00  0.00     0.098 C 
ATOM     44  C   ASP d   1       1.019   8.571  -5.854  0.00  0.00     0.242 C 
ATOM     45  O   ASP d   1      -0.202   8.570  -6.024  0.00  0.00    -0.271 OA
ATOM     46  H   ASP d   1       3.842   7.148  -5.619  0.00  0.00     0.163 HD
ATOM     47  H   ASP d   1       1.029   6.483  -5.572  0.00  0.00     0.088 H 
ENDROOT
BRANCH   9  48
ATOM     48  N   MK8 d   1       7.111   7.696  -3.788  0.00  0.00    -0.342 N 
ATOM     49  C   ARG d   1       6.534   6.582  -4.239  0.00  0.00     0.241 C 
ATOM     50  O   ARG d   1       5.357   6.536  -4.611  0.00  0.00    -0.271 OA
ATOM     51  H   MK8 d   1       8.086   7.655  -3.491  0.00  0.00     0.163 HD
BRANCH  49  52
ATOM     52  CA  ARG d   1       7.416   5.335  -4.301  0.00  0.00     0.089 C 
ATOM     53  H   ARG d   1       6.874   4.590  -4.883  0.00  0.00     0.087 H 
BRANCH  52  54
ATOM     54  N   ARG d   1       8.685   5.584  -4.972  0.00  0.00    -0.346 N 
ATOM     55  C   LEU d   1       8.756   6.011  -6.228  0.00  0.00     0.241 C 
ATOM     56  O   LEU d   1       7.769   6.173  -6.941  0.00  0.00    -0.271 OA
ATOM     57  H   ARG d   1       9.552   5.425  -4.458  0.00  0.00     0.163 HD
BRANCH  55  58
ATOM     58  CA  LEU d   1      10.166   6.289  -6.748  0.00  0.00     0.089 C 
ATOM     59  H   LEU d   1      10.075   6.883  -7.658  0.00  0.00     0.087 H 
BRANCH  58  60
ATOM     60  N   LEU d   1      10.947   7.036  -5.773  0.00  0.00    -0.346 N 
ATOM     61  C   GLU d   1      10.569   8.229  -5.332  0.00  0.00     0.241 C 
ATOM     62  O   GLU d   1       9.579   8.824  -5.771  0.00  0.00    -0.271 OA
ATOM     63  H   LEU d   1      11.812   6.630  -5.418  0.00  0.00     0.163 HD
BRANCH  61  64
ATOM     64  CA  GLU d   1      11.446   8.837  -4.240  0.00  0.00     0.090 C 
ATOM     65  H   GLU d   1      10.876   9.603  -3.715  0.00  0.00     0.087 H 
BRANCH  64  66
ATOM     66  N   GLU d   1      11.837   7.817  -3.268  0.00  0.00    -0.346 N 
ATOM     67  C   GLN d   1      10.958   7.298  -2.412  0.00  0.00     0.241 C 
ATOM     68  O   GLN d   1       9.775   7.638  -2.379  0.00  0.00    -0.271 OA
ATOM     69  H   GLU d   1      12.805   7.495  -3.245  0.00  0.00     0.163 HD
BRANCH  67  70
ATOM     70  CA  GLN d   1      11.486   6.247  -1.444  0.00  0.00     0.090 C 
ATOM     71  H   GLN d   1      10.645   5.630  -1.127  0.00  0.00     0.087 H 
BRANCH  70  72
ATOM     72  N   GLN d   1      12.455   5.363  -2.083  0.00  0.00    -0.346 N 
ATOM     73  C   ALA d   1      12.095   4.550  -3.071  0.00  0.00     0.240 C 
ATOM     74  O   ALA d   1      10.944   4.489  -3.502  0.00  0.00    -0.271 OA
ATOM     75  H   GLN d   1      13.425   5.369  -1.766  0.00  0.00     0.163 HD
BRANCH  73  76
ATOM     76  CA  ALA d   1      13.194   3.675  -3.656  0.00  0.00     0.086 C 
ATOM     77  H   ALA d   1      12.870   3.364  -4.649  0.00  0.00     0.086 H 
BRANCH  76  78
ATOM     78  N   ALA d   1      14.442   4.406  -3.794  0.00  0.00    -0.346 N 
ATOM     79  C   ILE d   1      14.582   5.406  -4.655  0.00  0.00     0.241 C 
ATOM     80  O   ILE d   1      13.652   5.854  -5.323  0.00  0.00    -0.271 OA
ATOM     81  H   ALA d   1      15.236   4.142  -3.211  0.00  0.00     0.163 HD
BRANCH  79  82
ATOM     82  CA  ILE d   1      15.980   6.004  -4.750  0.00  0.00     0.092 C 
ATOM     83  H   ILE d   1      15.919   6.970  -5.250  0.00  0.00     0.088 H 
BRANCH  82  84
ATOM     84  N   ILE d   1      16.553   6.248  -3.428  0.00  0.00    -0.346 N 
ATOM     85  C   TRP d   1      15.906   6.911  -2.473  0.00  0.00     0.248 C 
ATOM     86  O   TRP d   1      14.788   7.393  -2.625  0.00  0.00    -0.271 OA
ATOM     87  H   ILE d   1      17.489   5.895  -3.229  0.00  0.00     0.163 HD
BRANCH  85  88
ATOM     88  CA  TRP d   1      16.640   7.054  -1.145  0.00  0.00     0.172 C 
ATOM     89  H   TRP d   1      17.077   8.051  -1.095  0.00  0.00     0.098 H 
BRANCH  88  90
ATOM     90  N   TRP d   1      15.714   6.903  -0.030  0.00  0.00    -0.067 N 
ATOM     91  H   TRP d   1      14.973   7.599  -0.109  0.00  0.00     0.275 HD
ATOM     92  H   TRP d   1      15.308   5.968  -0.051  0.00  0.00     0.275 HD
ATOM     93  H   TRP d   1      16.216   7.037   0.848  0.00  0.00     0.275 HD
ENDBRANCH  88  90
BRANCH  88  94
ATOM     94  CB  TRP d   1      17.762   6.020  -1.049  0.00  0.00    -0.042 C 
ATOM     95  H   TRP d   1      17.338   5.018  -1.117  0.00  0.00     0.030 H 
ATOM     96  H   TRP d   1      18.467   6.174  -1.866  0.00  0.00     0.030 H 
ATOM     97  H   TRP d   1      18.278   6.133  -0.096  0.00  0.00     0.030 H 
ENDBRANCH  88  94
ENDBRANCH  85  88
ENDBRANCH  82  84
BRANCH  82  98
ATOM     98  CB  ILE d   1      16.878   5.042  -5.570  0.00  0.00    -0.030 C 
ATOM     99  H   ILE d   1      17.134   4.194  -4.935  0.00  0.00     0.043 H 
BRANCH  98 100
ATOM    100  CG1 ILE d   1      18.159   5.749  -5.998  0.00  0.00    -0.063 C 
ATOM    101  H   ILE d   1      18.650   6.108  -5.093  0.00  0.00     0.033 H 
ATOM    102  H   ILE d   1      17.876   6.542  -6.690  0.00  0.00     0.033 H 
BRANCH 100 103
ATOM    103  CD1 ILE d   1      19.146   4.848  -6.721  0.00  0.00    -0.076 C 
ATOM    104  H   ILE d   1      19.433   4.026  -6.065  0.00  0.00     0.027 H 
ATOM    105  H   ILE d   1      18.680   4.450  -7.622  0.00  0.00     0.027 H 
ATOM    106  H   ILE d   1      20.030   5.424  -6.993  0.00  0.00     0.027 H 
ENDBRANCH 100 103
ENDBRANCH  98 100
BRANCH  98 107
ATOM    107  CG2 ILE d   1      16.138   4.526  -6.797  0.00  0.00    -0.071 C 
ATOM    108  H   ILE d   1      15.243   3.989  -6.481  0.00  0.00     0.028 H 
ATOM    109  H   ILE d   1      15.854   5.367  -7.429  0.00  0.00     0.028 H 
ATOM    110  H   ILE d   1      16.789   3.853  -7.356  0.00  0.00     0.028 H 
ENDBRANCH  98 107
ENDBRANCH  82  98
ENDBRANCH  79  82
ENDBRANCH  76  78
BRANCH  76 111
ATOM    111  CB  ALA d   1      13.412   2.446  -2.791  0.00  0.00    -0.049 C 
ATOM    112  H   ALA d   1      14.158   1.803  -3.257  0.00  0.00     0.030 H 
ATOM    113  H   ALA d   1      13.761   2.754  -1.806  0.00  0.00     0.030 H 
ATOM    114  H   ALA d   1      12.473   1.902  -2.691  0.00  0.00     0.030 H 
ENDBRANCH  76 111
ENDBRANCH  73  76
ENDBRANCH  70  72
BRANCH  70 115
ATOM    115  CB  GLN d   1      12.097   6.923  -0.214  0.00  0.00    -0.030 C 
ATOM    116  H   GLN d   1      11.371   7.649   0.152  0.00  0.00     0.037 H 
ATOM    117  H   GLN d   1      13.044   7.365  -0.523  0.00  0.00     0.037 H 
BRANCH 115 118
ATOM    118  CG  GLN d   1      12.395   5.965   0.929  0.00  0.00     0.011 C 
ATOM    119  H   GLN d   1      12.691   6.557   1.795  0.00  0.00     0.047 H 
ATOM    120  H   GLN d   1      13.180   5.283   0.600  0.00  0.00     0.047 H 
BRANCH 118 121
ATOM    121  CD  GLN d   1      11.186   5.133   1.322  0.00  0.00     0.215 C 
ATOM    122  OE1 GLN d   1      11.293   3.922   1.526  0.00  0.00    -0.274 OA
ATOM    123  NE2 GLN d   1      10.028   5.779   1.429  0.00  0.00    -0.370 N 
ATOM    124  H   GLN d   1       9.183   5.271   1.689  0.00  0.00     0.159 HD
ATOM    125  H   GLN d   1       9.985   6.782   1.251  0.00  0.00     0.159 HD
ENDBRANCH 118 121
ENDBRANCH 115 118
ENDBRANCH  70 115
ENDBRANCH  67  70
ENDBRANCH  64  66
BRANCH  64 126
ATOM    126  CB  GLU d   1      12.680   9.482  -4.868  0.00  0.00    -0.029 C 
ATOM    127  H   GLU d   1      13.171   8.725  -5.480  0.00  0.00     0.037 H 
ATOM    128  H   GLU d   1      13.305   9.854  -4.056  0.00  0.00     0.037 H 
BRANCH 126 129
ATOM    129  CG  GLU d   1      12.352  10.661  -5.772  0.00  0.00     0.018 C 
ATOM    130  H   GLU d   1      11.469  10.402  -6.356  0.00  0.00     0.049 H 
ATOM    131  H   GLU d   1      13.223  10.858  -6.397  0.00  0.00     0.049 H 
BRANCH 129 132
ATOM    132  CD  GLU d   1      12.042  11.923  -4.991  0.00  0.00     0.172 C 
ATOM    133  OE1 GLU d   1      12.853  12.295  -4.117  0.00  0.00    -0.648 OA
ATOM    134  OE2 GLU d   1      10.988  12.542  -5.250  0.00  0.00    -0.648 OA
ENDBRANCH 129 132
ENDBRANCH 126 129
ENDBRANCH  64 126
ENDBRANCH  61  64
ENDBRANCH  58  60
BRANCH  58 135
ATOM    135  CB  LEU d   1      10.880   4.973  -7.049  0.00  0.00    -0.035 C 
ATOM    136  H   LEU d   1      10.662   4.329  -6.197  0.00  0.00     0.037 H 
ATOM    137  H   LEU d   1      11.917   5.248  -7.239  0.00  0.00     0.037 H 
BRANCH 135 138
ATOM    138  CG  LEU d   1      10.448   4.178  -8.271  0.00  0.00    -0.059 C 
ATOM    139  H   LEU d   1       9.414   3.855  -8.149  0.00  0.00     0.038 H 
BRANCH 138 140
ATOM    140  CD1 LEU d   1      10.518   5.056  -9.537  0.00  0.00    -0.073 C 
ATOM    141  H   LEU d   1       9.856   5.914  -9.419  0.00  0.00     0.028 H 
ATOM    142  H   LEU d   1      11.541   5.402  -9.682  0.00  0.00     0.028 H 
ATOM    143  H   LEU d   1      10.205   4.470 -10.402  0.00  0.00     0.028 H 
ENDBRANCH 138 140
BRANCH 138 144
ATOM    144  CD2 LEU d   1      11.334   2.954  -8.409  0.00  0.00    -0.073 C 
ATOM    145  H   LEU d   1      12.371   3.269  -8.525  0.00  0.00     0.028 H 
ATOM    146  H   LEU d   1      11.238   2.335  -7.517  0.00  0.00     0.028 H 
ATOM    147  H   LEU d   1      11.027   2.382  -9.284  0.00  0.00     0.028 H 
ENDBRANCH 138 144
ENDBRANCH 135 138
ENDBRANCH  58 135
ENDBRANCH  55  58
ENDBRANCH  52  54
BRANCH  52 148
ATOM    148  CB  ARG d   1       7.684   4.810  -2.886  0.00  0.00    -0.036 C 
ATOM    149  H   ARG d   1       8.176   5.606  -2.327  0.00  0.00     0.036 H 
ATOM    150  H   ARG d   1       8.290   3.909  -2.978  0.00  0.00     0.036 H 
BRANCH 148 151
ATOM    151  CG  ARG d   1       6.424   4.438  -2.137  0.00  0.00    -0.048 C 
ATOM    152  H   ARG d   1       6.216   3.384  -2.320  0.00  0.00     0.035 H 
ATOM    153  H   ARG d   1       5.616   5.079  -2.489  0.00  0.00     0.035 H 
BRANCH 151 154
ATOM    154  CD  ARG d   1       6.576   4.642  -0.626  0.00  0.00     0.009 C 
ATOM    155  H   ARG d   1       5.648   4.314  -0.158  0.00  0.00     0.064 H 
ATOM    156  H   ARG d   1       6.802   5.695  -0.460  0.00  0.00     0.064 H 
BRANCH 154 157
ATOM    157  NE  ARG d   1       7.661   3.865  -0.036  0.00  0.00    -0.227 N 
ATOM    158  CZ  ARG d   1       7.586   2.568   0.243  0.00  0.00     0.665 C 
ATOM    159  NH1 ARG d   1       6.484   1.885  -0.039  0.00  0.00    -0.235 N 
ATOM    160  NH2 ARG d   1       8.622   1.944   0.787  0.00  0.00    -0.235 N 
ATOM    161  H   ARG d   1       5.689   2.355  -0.472  0.00  0.00     0.174 HD
ATOM    162  H   ARG d   1       6.432   0.890   0.177  0.00  0.00     0.174 HD
ATOM    163  H   ARG d   1       9.478   2.460   0.992  0.00  0.00     0.174 HD
ATOM    164  H   ARG d   1       8.563   0.948   1.001  0.00  0.00     0.174 HD
ATOM    165  H   ARG d   1       8.534   4.349   0.176  0.00  0.00     0.177 HD
ENDBRANCH 154 157
ENDBRANCH 151 154
ENDBRANCH 148 151
ENDBRANCH  52 148
ENDBRANCH  49  52
ENDBRANCH   9  48
BRANCH   9 166
ATOM    166  CB1 MK8 d   1       5.338   8.886  -2.608  0.00  0.00    -0.044 C 
ATOM    167  H   MK8 d   1       4.834   9.848  -2.515  0.00  0.00     0.031 H 
ATOM    168  H   MK8 d   1       4.612   8.118  -2.874  0.00  0.00     0.031 H 
ATOM    169  H   MK8 d   1       5.810   8.629  -1.660  0.00  0.00     0.031 H 
ENDBRANCH   9 166
BRANCH   2 170
ATOM    170  CB  ILE d   1       7.038  10.124  -8.428  0.00  0.00    -0.030 C 
ATOM    171  H   ILE d   1       6.514  10.303  -9.367  0.00  0.00     0.043 H 
BRANCH 170 172
ATOM    172  CG1 ILE d   1       8.069   9.022  -8.668  0.00  0.00    -0.063 C 
ATOM    173  H   ILE d   1       7.534   8.126  -8.982  0.00  0.00     0.033 H 
ATOM    174  H   ILE d   1       8.626   8.877  -7.742  0.00  0.00     0.033 H 
BRANCH 172 175
ATOM    175  CD1 ILE d   1       9.084   9.386  -9.782  0.00  0.00    -0.076 C 
ATOM    176  H   ILE d   1       8.550   9.555 -10.717  0.00  0.00     0.027 H 
ATOM    177  H   ILE d   1       9.621  10.292  -9.501  0.00  0.00     0.027 H 
ATOM    178  H   ILE d   1       9.792   8.567  -9.909  0.00  0.00     0.027 H 
ENDBRANCH 172 175
ENDBRANCH 170 172
BRANCH 170 179
ATOM    179  CG2 ILE d   1       7.759  11.396  -7.973  0.00  0.00    -0.071 C 
ATOM    180  H   ILE d   1       7.036  12.205  -7.869  0.00  0.00     0.028 H 
ATOM    181  H   ILE d   1       8.243  11.214  -7.013  0.00  0.00     0.028 H 
ATOM    182  H   ILE d   1       8.510  11.671  -8.714  0.00  0.00     0.028 H 
ENDBRANCH 170 179
ENDBRANCH   2 170
BRANCH  43 183
ATOM    183  CB  ASP d   1       1.965   7.354  -3.859  0.00  0.00     0.043 C 
ATOM    184  H   ASP d   1       1.068   7.744  -3.377  0.00  0.00     0.052 H 
ATOM    185  H   ASP d   1       2.835   7.985  -3.681  0.00  0.00     0.052 H 
BRANCH 183 186
ATOM    186  CG  ASP d   1       2.252   5.981  -3.282  0.00  0.00     0.175 C 
ATOM    187  OD1 ASP d   1       2.011   4.983  -3.992  0.00  0.00    -0.648 OA
ATOM    188  OD2 ASP d   1       2.707   5.890  -2.124  0.00  0.00    -0.648 OA
ENDBRANCH 183 186
ENDBRANCH  43 183
BRANCH  15 189
ATOM    189  C   MK8 d   1       0.554  10.543  -7.972  0.00  0.00     0.246 C 
ATOM    190  O   MK8 d   1      -0.569  10.987  -8.208  0.00  0.00    -0.271 OA
ATOM    191  N   PHE d   1       1.205   9.732  -8.799  0.00  0.00    -0.345 N 
ATOM    192  H   PHE d   1       2.105   9.357  -8.498  0.00  0.00     0.163 HD
BRANCH 191 193
ATOM    193  CA  PHE d   1       0.701   9.347 -10.119  0.00  0.00     0.093 C 
ATOM    194  H   PHE d   1       0.459  10.235 -10.703  0.00  0.00     0.088 H 
BRANCH 193 195
ATOM    195  C   PHE d   1      -0.569   8.511  -9.973  0.00  0.00     0.241 C 
ATOM    196  O   PHE d   1      -1.570   8.730 -10.672  0.00  0.00    -0.271 OA
ATOM    197  N   ASN d   1      -0.531   7.555  -9.051  0.00  0.00    -0.346 N 
ATOM    198  H   ASN d   1       0.324   7.413  -8.513  0.00  0.00     0.163 HD
BRANCH 197 199
ATOM    199  CA  ASN d   1      -1.682   6.708  -8.794  0.00  0.00     0.097 C 
ATOM    200  H   ASN d   1      -1.924   6.207  -9.732  0.00  0.00     0.088 H 
BRANCH 199 201
ATOM    201  C   ASN d   1      -2.901   7.516  -8.360  0.00  0.00     0.241 C 
ATOM    202  O   ASN d   1      -4.030   7.245  -8.785  0.00  0.00    -0.271 OA
ATOM    203  N   ALA d   1      -2.681   8.503  -7.498  0.00  0.00    -0.346 N 
ATOM    204  H   ALA d   1      -1.729   8.716  -7.200  0.00  0.00     0.163 HD
BRANCH 203 205
ATOM    205  CA  ALA d   1      -3.802   9.286  -6.974  0.00  0.00     0.086 C 
ATOM    206  H   ALA d   1      -4.532   8.596  -6.551  0.00  0.00     0.086 H 
BRANCH 205 207
ATOM    207  C   ALA d   1      -4.470  10.076  -8.094  0.00  0.00     0.240 C 
ATOM    208  O   ALA d   1      -5.681  10.258  -8.101  0.00  0.00    -0.271 OA
ATOM    209  N   TYR d   1      -3.679  10.521  -9.057  0.00  0.00    -0.346 N 
ATOM    210  H   TYR d   1      -2.688  10.280  -9.052  0.00  0.00     0.163 HD
BRANCH 209 211
ATOM    211  CA  TYR d   1      -4.220  11.357 -10.129  0.00  0.00     0.093 C 
ATOM    212  H   TYR d   1      -4.787  12.159  -9.657  0.00  0.00     0.088 H 
BRANCH 211 213
ATOM    213  C   TYR d   1      -5.185  10.583 -11.032  0.00  0.00     0.241 C 
ATOM    214  O   TYR d   1      -6.257  11.080 -11.375  0.00  0.00    -0.271 OA
ATOM    215  N   TYR d   1      -4.806   9.363 -11.404  0.00  0.00    -0.346 N 
ATOM    216  H   TYR d   1      -3.936   8.979 -11.036  0.00  0.00     0.163 HD
BRANCH 215 217
ATOM    217  CA  TYR d   1      -5.607   8.556 -12.329  0.00  0.00     0.093 C 
ATOM    218  H   TYR d   1      -6.264   9.274 -12.819  0.00  0.00     0.088 H 
BRANCH 217 219
ATOM    219  C   TYR d   1      -6.531   7.533 -11.690  0.00  0.00     0.241 C 
ATOM    220  O   TYR d   1      -7.611   7.257 -12.216  0.00  0.00    -0.271 OA
ATOM    221  N   ALA d   1      -6.106   6.957 -10.569  0.00  0.00    -0.346 N 
ATOM    222  H   ALA d   1      -5.241   7.280 -10.136  0.00  0.00     0.163 HD
BRANCH 221 223
ATOM    223  CA  ALA d   1      -6.858   5.868  -9.947  0.00  0.00     0.086 C 
ATOM    224  H   ALA d   1      -7.653   5.600 -10.643  0.00  0.00     0.086 H 
BRANCH 223 225
ATOM    225  C   ALA d   1      -7.542   6.275  -8.646  0.00  0.00     0.237 C 
ATOM    226  O   ALA d   1      -7.138   7.234  -7.991  0.00  0.00    -0.271 OA
ATOM    227  N   NH2 d   1      -8.585   5.538  -8.277  0.00  0.00    -0.368 N 
ATOM    228  H   NH2 d   1      -9.087   5.759  -7.417  0.00  0.00     0.159 HD
ATOM    229  H   NH2 d   1      -8.883   4.751  -8.854  0.00  0.00     0.159 HD
ENDBRANCH 223 225
BRANCH 223 230
ATOM    230  CB  ALA d   1      -5.949   4.664  -9.716  0.00  0.00    -0.049 C 
ATOM    231  H   ALA d   1      -5.550   4.323 -10.671  0.00  0.00     0.030 H 
ATOM    232  H   ALA d   1      -5.127   4.951  -9.060  0.00  0.00     0.030 H 
ATOM    233  H   ALA d   1      -6.522   3.861  -9.252  0.00  0.00     0.030 H 
ENDBRANCH 223 230
ENDBRANCH 221 223
ENDBRANCH 217 219
BRANCH 217 234
ATOM    234  CB  TYR d   1      -4.690   7.844 -13.322  0.00  0.00    -0.014 C 
ATOM    235  H   TYR d   1      -5.267   7.070 -13.829  0.00  0.00     0.043 H 
ATOM    236  H   TYR d   1      -3.848   7.424 -12.772  0.00  0.00     0.043 H 
BRANCH 234 237
ATOM    237  CG  TYR d   1      -4.153   8.789 -14.359  0.00  0.00    -0.056 A 
ATOM    238  CD1 TYR d   1      -4.998   9.350 -15.308  0.00  0.00    -0.074 A 
ATOM    239  CE1 TYR d   1      -4.526  10.231 -16.260  0.00  0.00    -0.051 A 
ATOM    240  H   TYR d   1      -6.056   9.089 -15.301  0.00  0.00     0.084 H 
ATOM    241  CZ  TYR d   1      -3.192  10.561 -16.281  0.00  0.00     0.065 A 
ATOM    242  H   TYR d   1      -5.208  10.663 -16.992  0.00  0.00     0.087 H 
ATOM    243  CE2 TYR d   1      -2.327  10.033 -15.347  0.00  0.00    -0.051 A 
ATOM    244  CD2 TYR d   1      -2.811   9.143 -14.383  0.00  0.00    -0.074 A 
ATOM    245  H   TYR d   1      -1.272  10.307 -15.360  0.00  0.00     0.087 H 
ATOM    246  H   TYR d   1      -2.128   8.724 -13.644  0.00  0.00     0.084 H 
BRANCH 241 247
ATOM    247  OH  TYR d   1      -2.742  11.442 -17.238  0.00  0.00    -0.361 OA
ATOM    248  H   TYR d   1      -2.066  11.016 -17.771  0.00  0.00     0.217 HD
ENDBRANCH 241 247
ENDBRANCH 234 237
ENDBRANCH 217 234
ENDBRANCH 215 217
ENDBRANCH 211 213
BRANCH 211 249
ATOM    249  CB  TYR d   1      -3.092  11.966 -10.956  0.00  0.00    -0.014 C 
ATOM    250  H   TYR d   1      -2.610  11.151 -11.496  0.00  0.00     0.043 H 
ATOM    251  H   TYR d   1      -2.432  12.491 -10.266  0.00  0.00     0.043 H 
BRANCH 249 252
ATOM    252  CG  TYR d   1      -3.558  12.971 -11.983  0.00  0.00    -0.056 A 
ATOM    253  CD1 TYR d   1      -3.658  14.320 -11.666  0.00  0.00    -0.074 A 
ATOM    254  CE1 TYR d   1      -4.075  15.243 -12.602  0.00  0.00    -0.051 A 
ATOM    255  H   TYR d   1      -3.403  14.655 -10.661  0.00  0.00     0.084 H 
ATOM    256  CZ  TYR d   1      -4.399  14.817 -13.872  0.00  0.00     0.065 A 
ATOM    257  H   TYR d   1      -4.148  16.299 -12.340  0.00  0.00     0.087 H 
ATOM    258  CE2 TYR d   1      -4.313  13.488 -14.210  0.00  0.00    -0.051 A 
ATOM    259  CD2 TYR d   1      -3.888  12.572 -13.270  0.00  0.00    -0.074 A 
ATOM    260  H   TYR d   1      -4.579  13.159 -15.215  0.00  0.00     0.087 H 
ATOM    261  H   TYR d   1      -3.810  11.520 -13.543  0.00  0.00     0.084 H 
BRANCH 256 262
ATOM    262  OH  TYR d   1      -4.812  15.728 -14.815  0.00  0.00    -0.361 OA
ATOM    263  H   TYR d   1      -4.819  16.607 -14.428  0.00  0.00     0.217 HD
ENDBRANCH 256 262
ENDBRANCH 249 252
ENDBRANCH 211 249
ENDBRANCH 209 211
ENDBRANCH 205 207
BRANCH 205 264
ATOM    264  CB  ALA d   1      -3.335  10.223  -5.873  0.00  0.00    -0.049 C 
ATOM    265  H   ALA d   1      -2.902   9.639  -5.061  0.00  0.00     0.030 H 
ATOM    266  H   ALA d   1      -2.584  10.905  -6.272  0.00  0.00     0.030 H 
ATOM    267  H   ALA d   1      -4.185  10.794  -5.499  0.00  0.00     0.030 H 
ENDBRANCH 205 264
ENDBRANCH 203 205
ENDBRANCH 199 201
BRANCH 199 268
ATOM    268  CB  ASN d   1      -1.353   5.661  -7.723  0.00  0.00     0.036 C 
ATOM    269  H   ASN d   1      -1.212   6.181  -6.776  0.00  0.00     0.051 H 
ATOM    270  H   ASN d   1      -0.459   5.124  -8.041  0.00  0.00     0.051 H 
BRANCH 268 271
ATOM    271  CG  ASN d   1      -2.460   4.656  -7.541  0.00  0.00     0.217 C 
ATOM    272  OD1 ASN d   1      -2.769   3.893  -8.459  0.00  0.00    -0.274 OA
ATOM    273  ND2 ASN d   1      -3.054   4.620  -6.340  0.00  0.00    -0.370 N 
ATOM    274  H   ASN d   1      -3.794   3.942  -6.157  0.00  0.00     0.159 HD
ATOM    275  H   ASN d   1      -2.766   5.271  -5.609  0.00  0.00     0.159 HD
ENDBRANCH 268 271
ENDBRANCH 199 268
ENDBRANCH 197 199
ENDBRANCH 193 195
BRANCH 193 276
ATOM    276  CB  PHE d   1       1.791   8.529 -10.824  0.00  0.00    -0.014 C 
ATOM    277  H   PHE d   1       1.837   7.564 -10.319  0.00  0.00     0.043 H 
ATOM    278  H   PHE d   1       2.708   9.117 -10.775  0.00  0.00     0.043 H 
BRANCH 276 279
ATOM    279  CG  PHE d   1       1.531   8.247 -12.282  0.00  0.00    -0.056 A 
ATOM    280  CD1 PHE d   1       1.411   9.280 -13.195  0.00  0.00    -0.077 A 
ATOM    281  CE1 PHE d   1       1.219   9.007 -14.551  0.00  0.00    -0.082 A 
ATOM    282  H   PHE d   1       1.467  10.314 -12.853  0.00  0.00     0.084 H 
ATOM    283  CZ  PHE d   1       1.146   7.705 -14.994  0.00  0.00    -0.083 A 
ATOM    284  H   PHE d   1       1.127   9.828 -15.262  0.00  0.00     0.083 H 
ATOM    285  CE2 PHE d   1       1.287   6.671 -14.103  0.00  0.00    -0.082 A 
ATOM    286  H   PHE d   1       0.977   7.496 -16.050  0.00  0.00     0.083 H 
ATOM    287  CD2 PHE d   1       1.481   6.944 -12.746  0.00  0.00    -0.077 A 
ATOM    288  H   PHE d   1       1.248   5.639 -14.453  0.00  0.00     0.083 H 
ATOM    289  H   PHE d   1       1.595   6.119 -12.043  0.00  0.00     0.084 H 
ENDBRANCH 276 279
ENDBRANCH 193 276
ENDBRANCH 191 193
ENDBRANCH  15 189
BRANCH  15 290
ATOM    290  CB1 MK8 d   1       0.280  11.519  -5.697  0.00  0.00    -0.044 C 
ATOM    291  H   MK8 d   1      -0.108  12.436  -6.140  0.00  0.00     0.031 H 
ATOM    292  H   MK8 d   1      -0.543  10.831  -5.504  0.00  0.00     0.031 H 
ATOM    293  H   MK8 d   1       0.787  11.753  -4.761  0.00  0.00     0.031 H 
ENDBRANCH  15 290
TORSDOF 68
