REMARK  6 active torsions:
REMARK  status: ('A' for Active; 'I' for Inactive)
REMARK    1  A    between atoms: C4_4  and  N9_9 
REMARK       I    between atoms: N9_9  and  C10_10 
REMARK       I    between atoms: C10_10  and  N12_12 
REMARK    2  A    between atoms: N12_12  and  C13_13 
REMARK    3  A    between atoms: C16_16  and  O21_21 
REMARK    4  A    between atoms: C18_18  and  O19_19 
REMARK    5  A    between atoms: O19_19  and  C20_20 
REMARK    6  A    between atoms: O21_21  and  C22_22 
ROOT
ATOM      1  C1  A42 d   1      -8.218   9.121 -16.584  0.00  0.00     0.153 A 
ATOM      2  N2  A42 d   1      -8.496  10.445 -16.874  0.00  0.00    -0.245 NA
ATOM      3  C3  A42 d   1      -7.589  11.170 -17.627  0.00  0.00     0.048 A 
ATOM      4  C4  A42 d   1      -6.368  10.579 -18.114  0.00  0.00     0.148 A 
ATOM      5  N5  A42 d   1      -6.085   9.232 -17.819  0.00  0.00    -0.239 NA
ATOM      6  C6  A42 d   1      -7.004   8.503 -17.058  0.00  0.00     0.043 A 
ATOM      7  C7  A42 d   1      -9.141   8.395 -15.824  0.00  0.00     0.121 C 
ATOM      8  N8  A42 d   1      -9.950   7.805 -15.233  0.00  0.00    -0.190 NA
ATOM      9  H1  A42 d   1      -7.802  12.208 -17.856  0.00  0.00     0.120 H 
ATOM     10  H2  A42 d   1      -6.802   7.464 -16.822  0.00  0.00     0.119 H 
ENDROOT
BRANCH   4  11
ATOM     11  N9  A42 d   1      -5.461  11.317 -18.864  0.00  0.00    -0.292 N 
ATOM     12  C10 A42 d   1      -4.290  10.998 -19.503  0.00  0.00     0.326 C 
ATOM     13  O11 A42 d   1      -3.893  11.746 -20.394  0.00  0.00    -0.247 OA
ATOM     14  N12 A42 d   1      -3.665   9.793 -19.174  0.00  0.00    -0.306 N 
ATOM     15  H4  A42 d   1      -4.281   9.085 -18.829  0.00  0.00     0.171 HD
ATOM     16  H3  A42 d   1      -5.714  12.280 -18.957  0.00  0.00     0.172 HD
BRANCH  14  17
ATOM     17  C13 A42 d   1      -2.307   9.407 -19.247  0.00  0.00     0.071 A 
ATOM     18  C14 A42 d   1      -1.325  10.114 -20.085  0.00  0.00    -0.031 A 
ATOM     19  C15 A42 d   1       0.046   9.702 -20.145  0.00  0.00     0.069 A 
ATOM     20  H5  A42 d   1      -1.647  10.967 -20.671  0.00  0.00     0.089 H 
ATOM     21  C16 A42 d   1       0.526   8.564 -19.386  0.00  0.00     0.092 A 
ATOM     22 CL1  A42 d   1       1.121  10.620 -21.170  0.00  0.00    -0.081 Cl
ATOM     23  C17 A42 d   1      -0.438   7.867 -18.558  0.00  0.00    -0.015 A 
ATOM     24  C18 A42 d   1      -1.837   8.259 -18.475  0.00  0.00     0.097 A 
ATOM     25  H6  A42 d   1      -0.102   7.017 -17.975  0.00  0.00     0.092 H 
BRANCH  21  26
ATOM     26  O21 A42 d   1       1.895   8.197 -19.479  0.00  0.00    -0.354 OA
BRANCH  26  27
ATOM     27  C22 A42 d   1       2.222   7.015 -20.213  0.00  0.00     0.010 C 
ATOM     28  H10 A42 d   1       3.311   6.863 -20.196  0.00  0.00     0.066 H 
ATOM     29  H11 A42 d   1       1.883   7.124 -21.254  0.00  0.00     0.066 H 
ATOM     30  H12 A42 d   1       1.723   6.149 -19.754  0.00  0.00     0.066 H 
ENDBRANCH  26  27
ENDBRANCH  21  26
BRANCH  24  31
ATOM     31  O19 A42 d   1      -2.568   7.417 -17.602  0.00  0.00    -0.354 OA
BRANCH  31  32
ATOM     32  C20 A42 d   1      -3.529   6.478 -18.080  0.00  0.00     0.010 C 
ATOM     33  H7  A42 d   1      -3.969   5.938 -17.229  0.00  0.00     0.066 H 
ATOM     34  H8  A42 d   1      -3.038   5.761 -18.755  0.00  0.00     0.066 H 
ATOM     35  H9  A42 d   1      -4.322   7.010 -18.625  0.00  0.00     0.066 H 
ENDBRANCH  31  32
ENDBRANCH  24  31
ENDBRANCH  14  17
ENDBRANCH   4  11
TORSDOF 6
