REMARK  10 active torsions:
REMARK  status: ('A' for Active; 'I' for Inactive)
REMARK    1  A    between atoms: C7_2  and  C8_3 
REMARK       I    between atoms: C7_2  and  N6_13 
REMARK    2  A    between atoms: C8_3  and  C9_4 
REMARK    3  A    between atoms: C9_4  and  C10_5 
REMARK    4  A    between atoms: C9_4  and  N9_12 
REMARK    5  A    between atoms: C10_5  and  C11_6 
REMARK    6  A    between atoms: C11_6  and  N12_7 
REMARK       I    between atoms: N12_7  and  C14_8 
REMARK    7  A    between atoms: N12_7  and  C13_11 
REMARK       I    between atoms: C14_8  and  N15_9 
REMARK    8  A    between atoms: N6_13  and  C4'_14 
REMARK    9  A    between atoms: C5'_17  and  C6'_18 
REMARK   10  A    between atoms: C1'_22  and  N1_23 
ROOT
ATOM      1  O7  BLO d   1      22.343  32.462 106.153  0.00  0.00    -0.274 OA
ATOM      2  C7  BLO d   1      22.135  33.663 106.043  0.00  0.00     0.220 C 
ATOM      3  N6  BLO d   1      23.050  34.518 105.615  0.00  0.00    -0.350 N 
ATOM      4  H18 BLO d   1      22.793  35.482 105.543  0.00  0.00     0.163 HD
ENDROOT
BRANCH   2   5
ATOM      5  C8  BLO d   1      20.811  34.320 106.388  0.00  0.00     0.035 C 
ATOM      6  H1  BLO d   1      20.768  35.298 105.886  0.00  0.00     0.050 H 
ATOM      7  H2  BLO d   1      20.769  34.465 107.478  0.00  0.00     0.050 H 
BRANCH   5   8
ATOM      8  C9  BLO d   1      19.600  33.511 105.965  0.00  0.00     0.109 C 
ATOM      9  H3  BLO d   1      19.681  33.208 104.911  0.00  0.00     0.084 H 
BRANCH   8  10
ATOM     10  C10 BLO d   1      18.365  34.380 106.179  0.00  0.00    -0.023 C 
ATOM     11  H4  BLO d   1      18.666  35.307 106.690  0.00  0.00     0.038 H 
ATOM     12  H5  BLO d   1      17.648  33.831 106.807  0.00  0.00     0.038 H 
BRANCH  10  13
ATOM     13  C11 BLO d   1      17.689  34.741 104.859  0.00  0.00     0.013 C 
ATOM     14  H6  BLO d   1      17.115  33.876 104.497  0.00  0.00     0.065 H 
ATOM     15  H7  BLO d   1      18.458  35.007 104.118  0.00  0.00     0.065 H 
BRANCH  13  16
ATOM     16  N12 BLO d   1      16.779  35.884 105.045  0.00  0.00    -0.223 N 
ATOM     17  C14 BLO d   1      15.502  35.736 105.658  0.00  0.00     0.667 C 
ATOM     18  N15 BLO d   1      15.038  34.538 106.018  0.00  0.00    -0.235 N 
ATOM     19  N14 BLO d   1      14.745  36.813 105.893  0.00  0.00    -0.235 N 
ATOM     20  H8  BLO d   1      14.111  34.456 106.460  0.00  0.00     0.174 HD
ATOM     21  H9  BLO d   1      15.607  33.695 105.854  0.00  0.00     0.174 HD
ATOM     22  H10 BLO d   1      15.082  37.748 105.624  0.00  0.00     0.174 HD
ATOM     23  H11 BLO d   1      13.825  36.707 106.343  0.00  0.00     0.174 HD
BRANCH  16  24
ATOM     24  C13 BLO d   1      17.237  37.218 104.630  0.00  0.00    -0.002 C 
ATOM     25  H12 BLO d   1      16.448  37.956 104.834  0.00  0.00     0.057 H 
ATOM     26  H13 BLO d   1      17.462  37.210 103.553  0.00  0.00     0.057 H 
ATOM     27  H14 BLO d   1      18.144  37.486 105.192  0.00  0.00     0.057 H 
ENDBRANCH  16  24
ENDBRANCH  13  16
ENDBRANCH  10  13
ENDBRANCH   8  10
BRANCH   8  28
ATOM     28  N9  BLO d   1      19.521  32.347 106.822  0.00  0.00    -0.074 N 
ATOM     29  H15 BLO d   1      20.336  31.771 106.682  0.00  0.00     0.274 HD
ATOM     30  H16 BLO d   1      18.693  31.818 106.595  0.00  0.00     0.274 HD
ATOM     31  H17 BLO d   1      19.479  32.641 107.785  0.00  0.00     0.274 HD
ENDBRANCH   8  28
ENDBRANCH   5   8
ENDBRANCH   2   5
BRANCH   3  32
ATOM     32  C4' BLO d   1      24.414  34.144 105.241  0.00  0.00     0.063 C 
ATOM     33  C3' BLO d   1      24.799  34.558 103.820  0.00  0.00    -0.078 C 
ATOM     34  C2' BLO d   1      25.849  35.252 103.575  0.00  0.00    -0.058 C 
ATOM     35  H20 BLO d   1      24.162  34.254 102.991  0.00  0.00     0.080 H 
ATOM     36  C1' BLO d   1      26.871  35.150 104.358  0.00  0.00     0.132 C 
ATOM     37  H21 BLO d   1      25.879  35.920 102.716  0.00  0.00     0.083 H 
ATOM     38  O5' BLO d   1      26.692  34.828 105.719  0.00  0.00    -0.344 OA
ATOM     39  H23 BLO d   1      26.969  36.235 104.510  0.00  0.00     0.125 H 
ATOM     40  C5' BLO d   1      25.342  34.944 106.167  0.00  0.00     0.147 C 
ATOM     41  H22 BLO d   1      25.025  35.997 106.150  0.00  0.00     0.104 H 
ATOM     42  H19 BLO d   1      24.553  33.060 105.367  0.00  0.00     0.083 H 
BRANCH  36  43
ATOM     43  N1  BLO d   1      28.129  34.971 103.895  0.00  0.00    -0.279 N 
ATOM     44  C6  BLO d   1      28.276  33.658 103.648  0.00  0.00    -0.009 A 
ATOM     45  C5  BLO d   1      29.459  33.167 103.140  0.00  0.00    -0.016 A 
ATOM     46  H24 BLO d   1      27.452  32.976 103.851  0.00  0.00     0.112 H 
ATOM     47  C4  BLO d   1      30.447  34.099 102.888  0.00  0.00     0.184 A 
ATOM     48  H25 BLO d   1      29.607  32.105 102.948  0.00  0.00     0.092 H 
ATOM     49  O1  BLO d   1      31.577  33.691 102.320  0.00  0.00    -0.172 OA
ATOM     50  N3  BLO d   1      30.304  35.409 103.195  0.00  0.00    -0.286 N 
ATOM     51  C2  BLO d   1      29.121  35.868 103.678  0.00  0.00     0.330 A 
ATOM     52  H26 BLO d   1      31.070  36.039 103.066  0.00  0.00     0.172 HD
ATOM     53  O2  BLO d   1      29.019  37.101 103.885  0.00  0.00    -0.246 OA
ENDBRANCH  36  43
BRANCH  40  54
ATOM     54  C6' BLO d   1      25.365  34.453 107.586  0.00  0.00     0.205 C 
ATOM     55  O3  BLO d   1      24.682  35.088 108.412  0.00  0.00    -0.646 OA
ATOM     56  O4  BLO d   1      26.070  33.472 107.892  0.00  0.00    -0.646 OA
ENDBRANCH  40  54
ENDBRANCH   3  32
TORSDOF 10
