REMARK  12 active torsions:
REMARK  status: ('A' for Active; 'I' for Inactive)
REMARK    1  A    between atoms: C9_2  and  C4_3 
REMARK       I    between atoms: C9_2  and  N3_14 
REMARK    2  A    between atoms: C4_3  and  C5_4 
REMARK    3  A    between atoms: C4_3  and  N2_8 
REMARK    4  A    between atoms: C5_4  and  C7_5 
REMARK    5  A    between atoms: C5_4  and  C6_7 
REMARK    6  A    between atoms: C7_5  and  C8_6 
REMARK       I    between atoms: N2_8  and  C3_9 
REMARK    7  A    between atoms: C3_9  and  C1_11 
REMARK    8  A    between atoms: C1_11  and  C2_12 
REMARK    9  A    between atoms: C1_11  and  N1_13 
REMARK   10  A    between atoms: C10_18  and  B_19 
REMARK   11  A    between atoms: B_19  and  O4_20 
REMARK   12  A    between atoms: B_19  and  O3_21 
ROOT
ATOM      1  C4  AIO d   1      -6.832  44.616  65.231  0.00  0.00     0.092 C 
ATOM      2  H1  AIO d   1      -7.198  44.411  64.214  0.00  0.00     0.088 H 
ENDROOT
BRANCH   1   3
ATOM      3  C9  AIO d   1      -7.378  43.572  66.181  0.00  0.00     0.242 C 
ATOM      4  O2  AIO d   1      -7.194  43.721  67.390  0.00  0.00    -0.271 OA
ATOM      5  N3  AIO d   1      -8.023  42.516  65.713  0.00  0.00    -0.356 N 
ATOM      6  C13 AIO d   1      -8.353  42.171  64.318  0.00  0.00    -0.003 C 
ATOM      7  C10 AIO d   1      -8.531  41.523  66.658  0.00  0.00    -0.030 C 
ATOM      8  C12 AIO d   1      -9.064  40.839  64.395  0.00  0.00    -0.049 C 
ATOM      9  H19 AIO d   1      -7.437  42.085  63.715  0.00  0.00     0.064 H 
ATOM     10  H20 AIO d   1      -9.011  42.934  63.877  0.00  0.00     0.064 H 
ATOM     11  C11 AIO d   1      -9.536  40.693  65.840  0.00  0.00    -0.054 C 
ATOM     12  H21 AIO d   1      -8.374  40.023  64.135  0.00  0.00     0.035 H 
ATOM     13  H22 AIO d   1      -9.924  40.825  63.709  0.00  0.00     0.035 H 
ATOM     14  H23 AIO d   1      -9.514  39.638  66.152  0.00  0.00     0.034 H 
ATOM     15  H24 AIO d   1     -10.555  41.089  65.958  0.00  0.00     0.034 H 
ATOM     16  H25 AIO d   1      -9.031  42.013  67.506  0.00  0.00     0.053 H 
BRANCH   7  17
ATOM     17  B   AIO d   1      -7.251  40.678  67.164  0.00  0.00     0.117 B 
BRANCH  17  18
ATOM     18  O4  AIO d   1      -6.409  41.248  68.307  0.00  0.00     0.000 OA
ATOM     19  H27 AIO d   1      -5.990  40.536  68.776  0.00  0.00     0.000 HD
ATOM     20  H28 AIO d   1      -5.990  40.536  68.776  0.00  0.00     0.000 HD
ENDBRANCH  17  18
BRANCH  17  21
ATOM     21  O3  AIO d   1      -6.456  39.867  66.128  0.00  0.00     0.000 OA
ATOM     22  H29 AIO d   1      -5.794  40.422  65.733  0.00  0.00     0.000 HD
ATOM     23  H30 AIO d   1      -5.794  40.422  65.733  0.00  0.00     0.000 HD
ENDBRANCH  17  21
ENDBRANCH   7  17
ENDBRANCH   1   3
BRANCH   1  24
ATOM     24  C5  AIO d   1      -5.290  44.608  65.247  0.00  0.00    -0.030 C 
ATOM     25  H2  AIO d   1      -4.986  44.910  66.260  0.00  0.00     0.043 H 
BRANCH  24  26
ATOM     26  C7  AIO d   1      -4.674  45.604  64.259  0.00  0.00    -0.063 C 
ATOM     27  H3  AIO d   1      -3.580  45.569  64.371  0.00  0.00     0.033 H 
ATOM     28  H4  AIO d   1      -5.037  46.611  64.513  0.00  0.00     0.033 H 
BRANCH  26  29
ATOM     29  C8  AIO d   1      -5.012  45.330  62.809  0.00  0.00    -0.076 C 
ATOM     30  H5  AIO d   1      -4.532  46.087  62.171  0.00  0.00     0.027 H 
ATOM     31  H6  AIO d   1      -6.103  45.373  62.672  0.00  0.00     0.027 H 
ATOM     32  H7  AIO d   1      -4.646  44.331  62.530  0.00  0.00     0.027 H 
ENDBRANCH  26  29
ENDBRANCH  24  26
BRANCH  24  33
ATOM     33  C6  AIO d   1      -4.679  43.235  64.973  0.00  0.00    -0.071 C 
ATOM     34  H8  AIO d   1      -5.105  42.498  65.670  0.00  0.00     0.028 H 
ATOM     35  H9  AIO d   1      -3.589  43.284  65.112  0.00  0.00     0.028 H 
ATOM     36  H10 AIO d   1      -4.903  42.934  63.939  0.00  0.00     0.028 H 
ENDBRANCH  24  33
ENDBRANCH   1  24
BRANCH   1  37
ATOM     37  N2  AIO d   1      -7.259  45.949  65.660  0.00  0.00    -0.346 N 
ATOM     38  C3  AIO d   1      -8.510  46.360  65.475  0.00  0.00     0.248 C 
ATOM     39  O1  AIO d   1      -9.384  45.624  65.047  0.00  0.00    -0.271 OA
ATOM     40  H11 AIO d   1      -6.600  46.560  66.099  0.00  0.00     0.163 HD
BRANCH  38  41
ATOM     41  C1  AIO d   1      -8.842  47.785  65.884  0.00  0.00     0.172 C 
ATOM     42  H12 AIO d   1      -7.982  48.443  65.691  0.00  0.00     0.098 H 
BRANCH  41  43
ATOM     43  C2  AIO d   1      -9.167  47.754  67.379  0.00  0.00    -0.042 C 
ATOM     44  H13 AIO d   1      -9.415  48.770  67.721  0.00  0.00     0.030 H 
ATOM     45  H14 AIO d   1      -8.295  47.382  67.936  0.00  0.00     0.030 H 
ATOM     46  H15 AIO d   1     -10.025  47.088  67.554  0.00  0.00     0.030 H 
ENDBRANCH  41  43
BRANCH  41  47
ATOM     47  N1  AIO d   1     -10.004  48.274  65.159  0.00  0.00    -0.067 N 
ATOM     48  H16 AIO d   1      -9.799  48.298  64.172  0.00  0.00     0.275 HD
ATOM     49  H17 AIO d   1     -10.232  49.203  65.477  0.00  0.00     0.275 HD
ATOM     50  H18 AIO d   1     -10.786  47.660  65.325  0.00  0.00     0.275 HD
ENDBRANCH  41  47
ENDBRANCH  38  41
ENDBRANCH   1  37
TORSDOF 12
