REMARK  3 active torsions:
REMARK  status: ('A' for Active; 'I' for Inactive)
REMARK    1  A    between atoms: C6_2  and  C19_20 
REMARK    2  A    between atoms: C22_9  and  O23_21 
REMARK    3  A    between atoms: C1_11  and  O26_23 
ROOT
ATOM      1  C4  DC8 d   1      78.260  40.834  69.843  0.00  0.00     0.076 A 
ATOM      2  C6  DC8 d   1      77.114  38.723  70.070  0.00  0.00     0.074 C 
ATOM      3  C8  DC8 d   1      76.601  38.826  68.606  0.00  0.00    -0.011 C 
ATOM      4  C10 DC8 d   1      75.270  39.655  68.464  0.00  0.00     0.003 C 
ATOM      5  C15 DC8 d   1      77.571  39.604  67.679  0.00  0.00    -0.014 C 
ATOM      6  C17 DC8 d   1      78.385  40.691  68.431  0.00  0.00    -0.017 A 
ATOM      7  C1  DC8 d   1      80.024  42.565  68.398  0.00  0.00     0.066 A 
ATOM      8  C2  DC8 d   1      79.884  42.700  69.797  0.00  0.00    -0.048 A 
ATOM      9  C3  DC8 d   1      79.018  41.847  70.511  0.00  0.00    -0.048 A 
ATOM     10  O5  DC8 d   1      77.420  40.030  70.630  0.00  0.00    -0.340 OA
ATOM     11  C11 DC8 d   1      75.350  40.415  67.118  0.00  0.00     0.244 C 
ATOM     12  F12 DC8 d   1      74.295  40.006  66.283  0.00  0.00    -0.206 F 
ATOM     13  F13 DC8 d   1      75.252  41.802  67.313  0.00  0.00    -0.206 F 
ATOM     14  C14 DC8 d   1      76.704  40.104  66.495  0.00  0.00     0.004 C 
ATOM     15  C18 DC8 d   1      79.284  41.563  67.707  0.00  0.00    -0.042 A 
ATOM     16  H1  DC8 d   1      78.057  38.158  70.029  0.00  0.00     0.092 H 
ATOM     17  H2  DC8 d   1      76.451  37.804  68.226  0.00  0.00     0.045 H 
ATOM     18  H3  DC8 d   1      75.179  40.369  69.296  0.00  0.00     0.042 H 
ATOM     19  H4  DC8 d   1      74.402  38.979  68.465  0.00  0.00     0.042 H 
ATOM     20  H5  DC8 d   1      78.307  38.893  67.276  0.00  0.00     0.048 H 
ATOM     21  H9  DC8 d   1      80.445  43.463  70.324  0.00  0.00     0.087 H 
ATOM     22  H10 DC8 d   1      78.925  41.961  71.585  0.00  0.00     0.087 H 
ATOM     23  H11 DC8 d   1      76.608  39.323  65.726  0.00  0.00     0.043 H 
ATOM     24  H12 DC8 d   1      77.142  41.008  66.047  0.00  0.00     0.043 H 
ATOM     25  H13 DC8 d   1      79.395  41.453  66.634  0.00  0.00     0.088 H 
ENDROOT
BRANCH   2  26
ATOM     26  C19 DC8 d   1      76.145  37.926  71.044  0.00  0.00    -0.028 A 
ATOM     27  C20 DC8 d   1      75.394  36.788  70.601  0.00  0.00    -0.072 A 
ATOM     28  C21 DC8 d   1      74.545  36.076  71.499  0.00  0.00    -0.050 A 
ATOM     29  H6  DC8 d   1      75.472  36.464  69.569  0.00  0.00     0.084 H 
ATOM     30  C22 DC8 d   1      74.434  36.490  72.847  0.00  0.00     0.065 A 
ATOM     31  H7  DC8 d   1      73.984  35.217  71.148  0.00  0.00     0.087 H 
ATOM     32  C24 DC8 d   1      75.166  37.616  73.303  0.00  0.00    -0.050 A 
ATOM     33  C25 DC8 d   1      76.011  38.325  72.415  0.00  0.00    -0.072 A 
ATOM     34  H8  DC8 d   1      75.078  37.935  74.335  0.00  0.00     0.087 H 
ATOM     35  H15 DC8 d   1      76.566  39.183  72.777  0.00  0.00     0.084 H 
BRANCH  30  36
ATOM     36  O23 DC8 d   1      73.613  35.807  73.713  0.00  0.00    -0.361 OA
ATOM     37  H14 DC8 d   1      74.128  35.469  74.436  0.00  0.00     0.217 HD
ENDBRANCH  30  36
ENDBRANCH   2  26
BRANCH   7  38
ATOM     38  O26 DC8 d   1      80.868  43.434  67.721  0.00  0.00    -0.361 OA
ATOM     39  H16 DC8 d   1      80.366  43.932  67.087  0.00  0.00     0.217 HD
ENDBRANCH   7  38
TORSDOF 3
