REMARK  9 active torsions:
REMARK  status: ('A' for Active; 'I' for Inactive)
REMARK    1  A    between atoms: O3A_8  and  PB_1 
REMARK    2  A    between atoms: PA_5  and  O3A_8 
REMARK    3  A    between atoms: PA_5  and  O5'_9 
REMARK    4  A    between atoms: O5'_9  and  C5'_10 
REMARK    5  A    between atoms: C5'_10  and  C4'_11 
REMARK    6  A    between atoms: C3'_13  and  O3'_14 
REMARK    7  A    between atoms: C2'_15  and  O2'_16 
REMARK    8  A    between atoms: C1'_17  and  N9_18 
REMARK    9  A    between atoms: C6_22  and  N6_23 
ROOT
ATOM      1  C4' ADP d   1      39.583  10.024  21.212  0.00  0.00     0.089 C 
ATOM      2  O4' ADP d   1      39.882  10.679  22.462  0.00  0.00    -0.353 OA
ATOM      3  C3' ADP d   1      40.198  10.769  20.042  0.00  0.00     0.091 C 
ATOM      4  C2' ADP d   1      41.037  11.883  20.658  0.00  0.00     0.105 C 
ATOM      5  C1' ADP d   1      40.834  11.742  22.202  0.00  0.00     0.139 C 
ATOM      6  H3  ADP d   1      38.490   9.998  21.094  0.00  0.00     0.090 H 
ATOM      7  H4  ADP d   1      40.857  10.091  19.480  0.00  0.00     0.091 H 
ATOM      8  H6  ADP d   1      42.099  11.738  20.409  0.00  0.00     0.093 H 
ATOM      9  H8  ADP d   1      40.418  12.687  22.582  0.00  0.00     0.122 H 
ENDROOT
BRANCH   5  10
ATOM     10  N9  ADP d   1      42.104  11.481  22.918  0.00  0.00    -0.294 N 
ATOM     11  C8  ADP d   1      42.498  10.309  23.494  0.00  0.00     0.071 A 
ATOM     12  N7  ADP d   1      43.666  10.441  24.049  0.00  0.00    -0.236 NA
ATOM     13  H9  ADP d   1      41.914   9.389  23.489  0.00  0.00     0.144 H 
ATOM     14  C5  ADP d   1      44.099  11.699  23.868  0.00  0.00     0.149 A 
ATOM     15  C6  ADP d   1      45.267  12.430  24.241  0.00  0.00     0.155 A 
ATOM     16  C4  ADP d   1      43.100  12.386  23.134  0.00  0.00     0.167 A 
ATOM     17  N1  ADP d   1      45.366  13.730  23.872  0.00  0.00    -0.222 NA
ATOM     18  C2  ADP d   1      44.394  14.329  23.174  0.00  0.00     0.091 A 
ATOM     19  N3  ADP d   1      43.286  13.675  22.813  0.00  0.00    -0.222 NA
ATOM     20  H12 ADP d   1      44.508  15.370  22.895  0.00  0.00     0.146 H 
BRANCH  15  21
ATOM     21  N6  ADP d   1      46.276  11.822  24.967  0.00  0.00    -0.382 N 
ATOM     22  H10 ADP d   1      47.115  12.358  25.231  0.00  0.00     0.157 HD
ATOM     23  H11 ADP d   1      46.188  10.834  25.243  0.00  0.00     0.157 HD
ENDBRANCH  15  21
ENDBRANCH   5  10
BRANCH   4  24
ATOM     24  O2' ADP d   1      40.613  13.186  20.154  0.00  0.00    -0.388 OA
ATOM     25  H7  ADP d   1      39.701  13.329  20.377  0.00  0.00     0.210 HD
ENDBRANCH   4  24
BRANCH   1  26
ATOM     26  C5' ADP d   1      40.118   8.614  21.142  0.00  0.00     0.058 C 
ATOM     27  H1  ADP d   1      39.790   8.150  20.200  0.00  0.00     0.079 H 
ATOM     28  H2  ADP d   1      41.217   8.643  21.174  0.00  0.00     0.079 H 
BRANCH  26  29
ATOM     29  O5' ADP d   1      39.651   7.856  22.210  0.00  0.00    -0.287 OA
BRANCH  29  30
ATOM     30  PA  ADP d   1      40.226   6.370  21.990  0.00  0.00     0.418 P 
ATOM     31  O1A ADP d   1      41.692   6.312  21.860  0.00  0.00    -0.624 OA
ATOM     32  O2A ADP d   1      39.589   5.724  20.662  0.00  0.00    -0.624 OA
BRANCH  30  33
ATOM     33  O3A ADP d   1      39.663   5.575  23.296  0.00  0.00    -0.173 OA
BRANCH  33  34
ATOM     34  PB  ADP d   1      40.080   4.040  23.340  0.00  0.00     0.431 P 
ATOM     35  O1B ADP d   1      41.555   3.880  23.413  0.00  0.00    -0.616 OA
ATOM     36  O2B ADP d   1      39.405   3.483  24.667  0.00  0.00    -0.616 OA
ATOM     37  O3B ADP d   1      39.486   3.259  22.038  0.00  0.00    -0.616 OA
ENDBRANCH  33  34
ENDBRANCH  30  33
ENDBRANCH  29  30
ENDBRANCH  26  29
ENDBRANCH   1  26
BRANCH   3  38
ATOM     38  O3' ADP d   1      39.188  11.253  19.143  0.00  0.00    -0.390 OA
ATOM     39  H5  ADP d   1      38.609  11.845  19.608  0.00  0.00     0.210 HD
ENDBRANCH   3  38
TORSDOF 9
