REMARK  18 active torsions:
REMARK  status: ('A' for Active; 'I' for Inactive)
REMARK    1  A    between atoms: CAW_23  and  CAA_1 
REMARK    2  A    between atoms: CAW_23  and  CAB_2 
REMARK    3  A    between atoms: CAX_24  and  CAC_3 
REMARK    4  A    between atoms: CAX_24  and  CAD_4 
REMARK    5  A    between atoms: CAY_25  and  CAE_5 
REMARK    6  A    between atoms: CAZ_26  and  CAF_6 
REMARK    7  A    between atoms: CAM_13  and  CAW_23 
REMARK    8  A    between atoms: CAN_14  and  CAX_24 
REMARK    9  A    between atoms: CAS_19  and  CAO_15 
REMARK   10  A    between atoms: CAT_20  and  CAP_16 
REMARK   11  A    between atoms: CAU_21  and  CAQ_17 
REMARK   12  A    between atoms: CAV_22  and  CAR_18 
REMARK   13  A    between atoms: CBA_27  and  CAS_19 
REMARK   14  A    between atoms: CBA_27  and  CAT_20 
REMARK   15  A    between atoms: CAY_25  and  CAU_21 
REMARK   16  A    between atoms: CAZ_26  and  CAV_22 
REMARK   17  A    between atoms: CBA_27  and  PBB_28 
REMARK   18  A    between atoms: CBA_27  and  PBC_29 
ROOT
ATOM      1  CBA 749 d   1      28.974  46.022   6.339  0.00  0.00     0.192 C 
ENDROOT
BRANCH   1   2
ATOM      2  CAS 749 d   1      29.426  45.493   7.703  0.00  0.00    -0.017 C 
ATOM      3  H25 749 d   1      29.455  44.396   7.633  0.00  0.00     0.042 H 
ATOM      4  H26 749 d   1      30.442  45.876   7.881  0.00  0.00     0.042 H 
BRANCH   2   5
ATOM      5  CAO 749 d   1      28.664  45.814   8.820  0.00  0.00    -0.099 C 
ATOM      6  CAY 749 d   1      29.189  46.291  10.017  0.00  0.00    -0.084 C 
ATOM      7  H21 749 d   1      27.585  45.684   8.754  0.00  0.00     0.077 H 
BRANCH   6   8
ATOM      8  CAE 749 d   1      30.690  46.557  10.150  0.00  0.00    -0.055 C 
ATOM      9  H13 749 d   1      31.193  46.300   9.206  0.00  0.00     0.033 H 
ATOM     10  H14 749 d   1      31.101  45.941  10.964  0.00  0.00     0.033 H 
ATOM     11  H15 749 d   1      30.855  47.621  10.376  0.00  0.00     0.033 H 
ENDBRANCH   6   8
BRANCH   6  12
ATOM     12  CAU 749 d   1      28.289  46.580  11.219  0.00  0.00    -0.030 C 
ATOM     13  H29 749 d   1      28.558  47.550  11.663  0.00  0.00     0.045 H 
ATOM     14  H30 749 d   1      27.236  46.602  10.900  0.00  0.00     0.045 H 
BRANCH  12  15
ATOM     15  CAQ 749 d   1      28.498  45.463  12.245  0.00  0.00    -0.102 C 
ATOM     16  CAM 749 d   1      27.771  45.665  13.413  0.00  0.00    -0.103 C 
ATOM     17  H19 749 d   1      27.317  46.646  13.543  0.00  0.00     0.076 H 
ATOM     18  H23 749 d   1      29.146  44.604  12.078  0.00  0.00     0.076 H 
BRANCH  16  19
ATOM     19  CAW 749 d   1      27.565  44.742  14.432  0.00  0.00    -0.045 C 
ATOM     20  H33 749 d   1      26.652  44.389  13.930  0.00  0.00     0.044 H 
BRANCH  19  21
ATOM     21  CAA 749 d   1      28.161  43.336  14.343  0.00  0.00    -0.070 C 
ATOM     22  H1  749 d   1      27.886  42.764  15.241  0.00  0.00     0.028 H 
ATOM     23  H2  749 d   1      29.257  43.406  14.274  0.00  0.00     0.028 H 
ATOM     24  H3  749 d   1      27.769  42.828  13.450  0.00  0.00     0.028 H 
ENDBRANCH  19  21
BRANCH  19  25
ATOM     25  CAB 749 d   1      26.744  45.140  15.661  0.00  0.00    -0.070 C 
ATOM     26  H4  749 d   1      26.399  46.179  15.551  0.00  0.00     0.028 H 
ATOM     27  H5  749 d   1      27.369  45.055  16.562  0.00  0.00     0.028 H 
ATOM     28  H6  749 d   1      25.874  44.473  15.753  0.00  0.00     0.028 H 
ENDBRANCH  19  25
ENDBRANCH  16  19
ENDBRANCH  12  15
ENDBRANCH   6  12
ENDBRANCH   2   5
ENDBRANCH   1   2
BRANCH   1  29
ATOM     29  CAT 749 d   1      29.258  47.522   6.220  0.00  0.00    -0.017 C 
ATOM     30  H27 749 d   1      28.984  47.854   5.208  0.00  0.00     0.042 H 
ATOM     31  H28 749 d   1      28.645  48.057   6.960  0.00  0.00     0.042 H 
BRANCH  29  32
ATOM     32  CAP 749 d   1      30.596  47.828   6.443  0.00  0.00    -0.099 C 
ATOM     33  CAZ 749 d   1      31.103  48.669   7.428  0.00  0.00    -0.084 C 
ATOM     34  H22 749 d   1      31.321  47.361   5.778  0.00  0.00     0.077 H 
BRANCH  33  35
ATOM     35  CAF 749 d   1      30.164  49.382   8.403  0.00  0.00    -0.055 C 
ATOM     36  H16 749 d   1      29.123  49.103   8.180  0.00  0.00     0.033 H 
ATOM     37  H17 749 d   1      30.283  50.470   8.297  0.00  0.00     0.033 H 
ATOM     38  H18 749 d   1      30.411  49.085   9.433  0.00  0.00     0.033 H 
ENDBRANCH  33  35
BRANCH  33  39
ATOM     39  CAV 749 d   1      32.615  48.884   7.520  0.00  0.00    -0.030 C 
ATOM     40  H31 749 d   1      33.064  48.029   8.046  0.00  0.00     0.045 H 
ATOM     41  H32 749 d   1      33.028  48.946   6.502  0.00  0.00     0.045 H 
BRANCH  39  42
ATOM     42  CAR 749 d   1      32.965  50.169   8.275  0.00  0.00    -0.102 C 
ATOM     43  CAN 749 d   1      34.320  50.453   8.137  0.00  0.00    -0.103 C 
ATOM     44  H20 749 d   1      34.830  49.987   7.295  0.00  0.00     0.076 H 
ATOM     45  H24 749 d   1      32.256  50.773   8.839  0.00  0.00     0.076 H 
BRANCH  43  46
ATOM     46  CAX 749 d   1      35.094  51.267   8.956  0.00  0.00    -0.045 C 
ATOM     47  H34 749 d   1      34.843  52.138   8.332  0.00  0.00     0.044 H 
BRANCH  46  48
ATOM     48  CAC 749 d   1      36.580  51.470   8.648  0.00  0.00    -0.070 C 
ATOM     49  H7  749 d   1      37.022  52.140   9.400  0.00  0.00     0.028 H 
ATOM     50  H8  749 d   1      36.690  51.917   7.649  0.00  0.00     0.028 H 
ATOM     51  H9  749 d   1      37.096  50.499   8.674  0.00  0.00     0.028 H 
ENDBRANCH  46  48
BRANCH  46  52
ATOM     52  CAD 749 d   1      34.461  51.950  10.170  0.00  0.00    -0.070 C 
ATOM     53  H10 749 d   1      33.395  51.686  10.225  0.00  0.00     0.028 H 
ATOM     54  H11 749 d   1      34.564  53.041  10.072  0.00  0.00     0.028 H 
ATOM     55  H12 749 d   1      34.969  51.614  11.086  0.00  0.00     0.028 H 
ENDBRANCH  46  52
ENDBRANCH  43  46
ENDBRANCH  39  42
ENDBRANCH  33  39
ENDBRANCH  29  32
ENDBRANCH   1  29
BRANCH   1  56
ATOM     56  PBB 749 d   1      27.148  45.810   6.026  0.00  0.00     0.283 P 
ATOM     57  OAG 749 d   1      26.599  44.569   6.615  0.00  0.00    -0.639 OA
ATOM     58  OAI 749 d   1      26.426  47.158   6.523  0.00  0.00    -0.639 OA
ATOM     59  OAJ 749 d   1      27.011  45.830   4.423  0.00  0.00    -0.639 OA
ENDBRANCH   1  56
BRANCH   1  60
ATOM     60  PBC 749 d   1      29.908  45.019   5.076  0.00  0.00     0.283 P 
ATOM     61  OAH 749 d   1      31.367  45.094   5.302  0.00  0.00    -0.639 OA
ATOM     62  OAK 749 d   1      29.361  43.515   5.216  0.00  0.00    -0.639 OA
ATOM     63  OAL 749 d   1      29.468  45.558   3.624  0.00  0.00    -0.639 OA
ENDBRANCH   1  60
TORSDOF 18
