REMARK  16 active torsions:
REMARK  status: ('A' for Active; 'I' for Inactive)
REMARK    1  A    between atoms: CAA_1  and  CAM_2 
REMARK    2  A    between atoms: CAM_2  and  CAS_3 
REMARK    3  A    between atoms: CAS_3  and  CAU_4 
REMARK    4  A    between atoms: CAU_4  and  CAO_5 
REMARK    5  A    between atoms: CAO_5  and  CAI_6 
REMARK    6  A    between atoms: CAK_7  and  CAQ_8 
REMARK    7  A    between atoms: CAQ_8  and  CAW_9 
REMARK    8  A    between atoms: CAW_9  and  PAX_10 
REMARK    9  A    between atoms: CAW_9  and  PAY_14 
REMARK   10  A    between atoms: CAW_9  and  CAR_18 
REMARK   11  A    between atoms: CAR_18  and  CAL_19 
REMARK   12  A    between atoms: CAJ_20  and  CAP_21 
REMARK   13  A    between atoms: CAP_21  and  CAV_22 
REMARK   14  A    between atoms: CAV_22  and  CAT_23 
REMARK   15  A    between atoms: CAT_23  and  CAN_24 
REMARK   16  A    between atoms: CAN_24  and  CAB_25 
ROOT
ATOM      1  CAW SC0 d   1      28.929  46.177   6.491  0.00  0.00     0.192 C 
ENDROOT
BRANCH   1   2
ATOM      2  CAQ SC0 d   1      29.723  47.471   6.284  0.00  0.00    -0.018 C 
ATOM      3  H14 SC0 d   1      30.743  47.206   5.970  0.00  0.00     0.042 H 
ATOM      4  H15 SC0 d   1      29.235  48.054   5.489  0.00  0.00     0.042 H 
BRANCH   2   5
ATOM      5  CAK SC0 d   1      29.807  48.266   7.424  0.00  0.00    -0.105 C 
ATOM      6  CAI SC0 d   1      31.042  48.755   7.829  0.00  0.00    -0.106 C 
ATOM      7  H12 SC0 d   1      31.936  48.517   7.254  0.00  0.00     0.076 H 
ATOM      8  H13 SC0 d   1      28.910  48.503   7.994  0.00  0.00     0.076 H 
BRANCH   6   9
ATOM      9  CAO SC0 d   1      31.141  49.549   8.969  0.00  0.00    -0.050 C 
ATOM     10  H10 SC0 d   1      30.143  49.944   9.210  0.00  0.00     0.038 H 
ATOM     11  H11 SC0 d   1      31.500  48.926   9.801  0.00  0.00     0.038 H 
BRANCH   9  12
ATOM     12  CAU SC0 d   1      32.103  50.727   8.790  0.00  0.00    -0.062 C 
ATOM     13  H8  SC0 d   1      31.812  51.284   7.887  0.00  0.00     0.033 H 
ATOM     14  H9  SC0 d   1      32.021  51.384   9.669  0.00  0.00     0.033 H 
BRANCH  12  15
ATOM     15  CAS SC0 d   1      33.563  50.287   8.643  0.00  0.00    -0.065 C 
ATOM     16  H6  SC0 d   1      33.845  49.680   9.516  0.00  0.00     0.033 H 
ATOM     17  H7  SC0 d   1      33.666  49.685   7.728  0.00  0.00     0.033 H 
BRANCH  15  18
ATOM     18  CAM SC0 d   1      34.497  51.497   8.553  0.00  0.00    -0.069 C 
ATOM     19  H4  SC0 d   1      34.267  52.058   7.635  0.00  0.00     0.032 H 
ATOM     20  H5  SC0 d   1      34.332  52.142   9.429  0.00  0.00     0.032 H 
BRANCH  18  21
ATOM     21  CAA SC0 d   1      35.968  51.069   8.520  0.00  0.00    -0.077 C 
ATOM     22  H1  SC0 d   1      36.608  51.961   8.455  0.00  0.00     0.027 H 
ATOM     23  H2  SC0 d   1      36.144  50.428   7.644  0.00  0.00     0.027 H 
ATOM     24  H3  SC0 d   1      36.208  50.511   9.437  0.00  0.00     0.027 H 
ENDBRANCH  18  21
ENDBRANCH  15  18
ENDBRANCH  12  15
ENDBRANCH   9  12
ENDBRANCH   6   9
ENDBRANCH   2   5
ENDBRANCH   1   2
BRANCH   1  25
ATOM     25  PAX SC0 d   1      29.461  44.906   5.237  0.00  0.00     0.283 P 
ATOM     26  OAE SC0 d   1      30.957  44.451   5.609  0.00  0.00    -0.639 OA
ATOM     27  OAF SC0 d   1      28.527  43.616   5.483  0.00  0.00    -0.639 OA
ATOM     28  OAC SC0 d   1      29.350  45.428   3.856  0.00  0.00    -0.639 OA
ENDBRANCH   1  25
BRANCH   1  29
ATOM     29  PAY SC0 d   1      27.115  46.461   6.173  0.00  0.00     0.283 P 
ATOM     30  OAG SC0 d   1      26.336  45.162   6.712  0.00  0.00    -0.639 OA
ATOM     31  OAH SC0 d   1      26.688  47.723   7.074  0.00  0.00    -0.639 OA
ATOM     32  OAD SC0 d   1      26.866  46.726   4.739  0.00  0.00    -0.639 OA
ENDBRANCH   1  29
BRANCH   1  33
ATOM     33  CAR SC0 d   1      29.244  45.519   7.839  0.00  0.00    -0.018 C 
ATOM     34  H16 SC0 d   1      30.302  45.715   8.069  0.00  0.00     0.042 H 
ATOM     35  H17 SC0 d   1      29.087  44.436   7.728  0.00  0.00     0.042 H 
BRANCH  33  36
ATOM     36  CAL SC0 d   1      28.490  45.946   8.923  0.00  0.00    -0.105 C 
ATOM     37  CAJ SC0 d   1      29.124  46.002  10.161  0.00  0.00    -0.106 C 
ATOM     38  H19 SC0 d   1      30.179  45.741  10.225  0.00  0.00     0.076 H 
ATOM     39  H18 SC0 d   1      27.444  46.226   8.810  0.00  0.00     0.076 H 
BRANCH  37  40
ATOM     40  CAP SC0 d   1      28.454  46.380  11.317  0.00  0.00    -0.050 C 
ATOM     41  H20 SC0 d   1      27.472  46.804  11.060  0.00  0.00     0.038 H 
ATOM     42  H21 SC0 d   1      29.044  47.129  11.865  0.00  0.00     0.038 H 
BRANCH  40  43
ATOM     43  CAV SC0 d   1      28.273  45.125  12.177  0.00  0.00    -0.062 C 
ATOM     44  H22 SC0 d   1      29.251  44.631  12.277  0.00  0.00     0.033 H 
ATOM     45  H23 SC0 d   1      27.573  44.451  11.662  0.00  0.00     0.033 H 
BRANCH  43  46
ATOM     46  CAT SC0 d   1      27.729  45.401  13.581  0.00  0.00    -0.065 C 
ATOM     47  H24 SC0 d   1      26.727  45.848  13.502  0.00  0.00     0.033 H 
ATOM     48  H25 SC0 d   1      28.401  46.098  14.102  0.00  0.00     0.033 H 
BRANCH  46  49
ATOM     49  CAN SC0 d   1      27.641  44.095  14.373  0.00  0.00    -0.069 C 
ATOM     50  H26 SC0 d   1      28.648  43.660  14.459  0.00  0.00     0.032 H 
ATOM     51  H27 SC0 d   1      26.983  43.395  13.837  0.00  0.00     0.032 H 
BRANCH  49  52
ATOM     52  CAB SC0 d   1      27.079  44.332  15.777  0.00  0.00    -0.077 C 
ATOM     53  H28 SC0 d   1      27.029  43.376  16.318  0.00  0.00     0.027 H 
ATOM     54  H29 SC0 d   1      26.070  44.763  15.700  0.00  0.00     0.027 H 
ATOM     55  H30 SC0 d   1      27.734  45.028  16.322  0.00  0.00     0.027 H 
ENDBRANCH  49  52
ENDBRANCH  46  49
ENDBRANCH  43  46
ENDBRANCH  40  43
ENDBRANCH  37  40
ENDBRANCH  33  36
ENDBRANCH   1  33
TORSDOF 16
