REMARK  9 active torsions:
REMARK  status: ('A' for Active; 'I' for Inactive)
REMARK    1  A    between atoms: CAA_1  and  CAI_2 
REMARK    2  A    between atoms: CAI_2  and  CAJ_3 
REMARK    3  A    between atoms: CAJ_3  and  CAK_4 
REMARK    4  A    between atoms: CAK_4  and  CAL_5 
REMARK    5  A    between atoms: CAL_5  and  CAM_6 
REMARK    6  A    between atoms: CAM_6  and  CAN_7 
REMARK    7  A    between atoms: CAN_7  and  PAO_8 
REMARK    8  A    between atoms: CAN_7  and  PAP_12 
REMARK    9  A    between atoms: CAN_7  and  OAD_16 
ROOT
ATOM      1  CAL 028 d   1      28.740  47.240   8.988  0.00  0.00    -0.061 C 
ATOM      2  H10 028 d   1      28.019  48.070   9.030  0.00  0.00     0.033 H 
ATOM      3  H11 028 d   1      28.207  46.285   9.100  0.00  0.00     0.033 H 
ENDROOT
BRANCH   1   4
ATOM      4  CAK 028 d   1      29.729  47.389  10.142  0.00  0.00    -0.065 C 
ATOM      5  H8  028 d   1      30.415  46.529  10.149  0.00  0.00     0.033 H 
ATOM      6  H9  028 d   1      30.305  48.317  10.012  0.00  0.00     0.033 H 
BRANCH   4   7
ATOM      7  CAJ 028 d   1      28.970  47.444  11.468  0.00  0.00    -0.065 C 
ATOM      8  H6  028 d   1      29.694  47.478  12.296  0.00  0.00     0.033 H 
ATOM      9  H7  028 d   1      28.346  48.350  11.489  0.00  0.00     0.033 H 
BRANCH   7  10
ATOM     10  CAI 028 d   1      28.075  46.216  11.636  0.00  0.00    -0.069 C 
ATOM     11  H4  028 d   1      27.316  46.209  10.840  0.00  0.00     0.032 H 
ATOM     12  H5  028 d   1      28.690  45.306  11.564  0.00  0.00     0.032 H 
BRANCH  10  13
ATOM     13  CAA 028 d   1      27.379  46.249  12.998  0.00  0.00    -0.077 C 
ATOM     14  H1  028 d   1      26.739  45.361  13.104  0.00  0.00     0.027 H 
ATOM     15  H2  028 d   1      26.762  47.156  13.072  0.00  0.00     0.027 H 
ATOM     16  H3  028 d   1      28.136  46.254  13.796  0.00  0.00     0.027 H 
ENDBRANCH  10  13
ENDBRANCH   7  10
ENDBRANCH   4   7
ENDBRANCH   1   4
BRANCH   1  17
ATOM     17  CAM 028 d   1      29.436  47.260   7.625  0.00  0.00    -0.010 C 
ATOM     18  H12 028 d   1      30.319  46.604   7.642  0.00  0.00     0.039 H 
ATOM     19  H13 028 d   1      29.746  48.285   7.374  0.00  0.00     0.039 H 
BRANCH  17  20
ATOM     20  CAN 028 d   1      28.424  46.752   6.598  0.00  0.00     0.285 C 
BRANCH  20  21
ATOM     21  PAO 028 d   1      27.276  48.084   5.967  0.00  0.00     0.310 P 
ATOM     22  OAE 028 d   1      27.636  48.423   4.436  0.00  0.00    -0.637 OA
ATOM     23  OAF 028 d   1      25.855  47.331   5.939  0.00  0.00    -0.637 OA
ATOM     24  OAB 028 d   1      27.250  49.301   6.810  0.00  0.00    -0.637 OA
ENDBRANCH  20  21
BRANCH  20  25
ATOM     25  PAP 028 d   1      29.271  45.856   5.207  0.00  0.00     0.310 P 
ATOM     26  OAG 028 d   1      30.714  45.359   5.723  0.00  0.00    -0.637 OA
ATOM     27  OAH 028 d   1      28.323  44.559   5.111  0.00  0.00    -0.637 OA
ATOM     28  OAC 028 d   1      29.351  46.630   3.951  0.00  0.00    -0.637 OA
ENDBRANCH  20  25
BRANCH  20  29
ATOM     29  OAD 028 d   1      27.648  45.720   7.215  0.00  0.00    -0.365 OA
ATOM     30  H14 028 d   1      27.049  45.351   6.577  0.00  0.00     0.212 HD
ENDBRANCH  20  29
ENDBRANCH  17  20
ENDBRANCH   1  17
TORSDOF 9
