REMARK  30 active torsions:
REMARK  status: ('A' for Active; 'I' for Inactive)
REMARK    1  A    between atoms: N_1  and  CA_2 
REMARK    2  A    between atoms: CA_2  and  C_3 
REMARK    3  A    between atoms: CA_2  and  CB_5 
REMARK       I    between atoms: C_3  and  N_6 
REMARK    4  A    between atoms: N_6  and  CA_7 
REMARK    5  A    between atoms: CA_7  and  C_8 
REMARK    6  A    between atoms: CA_7  and  CB_10 
REMARK       I    between atoms: C_8  and  N_11 
REMARK    7  A    between atoms: N_11  and  CA_12 
REMARK    8  A    between atoms: CA_12  and  C_13 
REMARK    9  A    between atoms: CA_12  and  CB_15 
REMARK       I    between atoms: C_13  and  N_16 
REMARK   10  A    between atoms: N_16  and  CA_17 
REMARK   11  A    between atoms: CA_17  and  C_18 
REMARK   12  A    between atoms: CA_17  and  CB_20 
REMARK       I    between atoms: C_18  and  N_21 
REMARK   13  A    between atoms: N_21  and  CA_22 
REMARK   14  A    between atoms: CA_22  and  C_23 
REMARK   15  A    between atoms: CA_22  and  CB_25 
REMARK       I    between atoms: C_23  and  N_26 
REMARK   16  A    between atoms: N_26  and  CA_27 
REMARK   17  A    between atoms: CA_27  and  C_28 
REMARK   18  A    between atoms: CA_27  and  CB_30 
REMARK       I    between atoms: C_28  and  N_31 
REMARK   19  A    between atoms: N_31  and  CA_32 
REMARK   20  A    between atoms: CA_32  and  C_33 
REMARK   21  A    between atoms: CA_32  and  CB_35 
REMARK       I    between atoms: C_33  and  N_36 
REMARK   22  A    between atoms: N_36  and  CA_37 
REMARK   23  A    between atoms: CA_37  and  C_38 
REMARK   24  A    between atoms: CA_37  and  CB_40 
REMARK       I    between atoms: C_38  and  N_41 
REMARK   25  A    between atoms: N_41  and  CA_42 
REMARK   26  A    between atoms: CA_42  and  C_43 
REMARK   27  A    between atoms: CA_42  and  CB_45 
REMARK       I    between atoms: C_43  and  N_46 
REMARK   28  A    between atoms: N_46  and  CA_47 
REMARK   29  A    between atoms: CA_47  and  C_48 
REMARK   30  A    between atoms: CA_47  and  CB_50 
ROOT
ATOM      1  C   UNK d   1      25.455 -32.553 -38.032  0.00  0.00     0.240 C 
ATOM      2  O   UNK d   1      26.186 -31.684 -37.555  0.00  0.00    -0.271 OA
ATOM      3  N   UNK d   1      24.140 -32.401 -38.184  0.00  0.00    -0.346 N 
ATOM      4  H28 UNK d   1      23.600 -33.193 -38.469  0.00  0.00     0.163 HD
ENDROOT
BRANCH   1   5
ATOM      5  CA  UNK d   1      26.037 -33.883 -38.510  0.00  0.00     0.086 C 
ATOM      6  H24 UNK d   1      25.279 -34.395 -39.121  0.00  0.00     0.086 H 
BRANCH   5   7
ATOM      7  N   UNK d   1      27.202 -33.610 -39.347  0.00  0.00    -0.346 N 
ATOM      8  C   UNK d   1      27.270 -34.039 -40.602  0.00  0.00     0.240 C 
ATOM      9  O   UNK d   1      26.438 -34.792 -41.090  0.00  0.00    -0.271 OA
ATOM     10  H23 UNK d   1      27.966 -33.088 -38.967  0.00  0.00     0.163 HD
BRANCH   8  11
ATOM     11  CA  UNK d   1      28.454 -33.563 -41.427  0.00  0.00     0.086 C 
ATOM     12  H19 UNK d   1      29.145 -33.034 -40.754  0.00  0.00     0.086 H 
BRANCH  11  13
ATOM     13  N   UNK d   1      29.192 -34.685 -42.034  0.00  0.00    -0.346 N 
ATOM     14  C   UNK d   1      30.091 -35.395 -41.349  0.00  0.00     0.240 C 
ATOM     15  O   UNK d   1      30.353 -35.169 -40.175  0.00  0.00    -0.271 OA
ATOM     16  H18 UNK d   1      29.014 -34.922 -42.989  0.00  0.00     0.163 HD
BRANCH  14  17
ATOM     17  CA  UNK d   1      30.817 -36.526 -42.084  0.00  0.00     0.086 C 
ATOM     18  H14 UNK d   1      31.239 -36.114 -43.013  0.00  0.00     0.086 H 
BRANCH  17  19
ATOM     19  N   UNK d   1      31.918 -37.061 -41.279  0.00  0.00    -0.346 N 
ATOM     20  C   UNK d   1      33.077 -36.419 -41.123  0.00  0.00     0.240 C 
ATOM     21  O   UNK d   1      33.317 -35.330 -41.646  0.00  0.00    -0.271 OA
ATOM     22  H13 UNK d   1      31.796 -37.945 -40.827  0.00  0.00     0.163 HD
BRANCH  20  23
ATOM     23  CA  UNK d   1      34.135 -37.096 -40.238  0.00  0.00     0.086 C 
ATOM     24  H9  UNK d   1      35.003 -37.296 -40.883  0.00  0.00     0.086 H 
BRANCH  23  25
ATOM     25  N   UNK d   1      34.610 -36.230 -39.144  0.00  0.00    -0.346 N 
ATOM     26  C   UNK d   1      33.805 -35.609 -38.275  0.00  0.00     0.248 C 
ATOM     27  O   UNK d   1      32.579 -35.740 -38.271  0.00  0.00    -0.271 OA
ATOM     28  H8  UNK d   1      35.596 -36.099 -39.045  0.00  0.00     0.163 HD
BRANCH  26  29
ATOM     29  CA  UNK d   1      34.487 -34.712 -37.231  0.00  0.00     0.172 C 
ATOM     30  H4  UNK d   1      34.441 -35.240 -36.267  0.00  0.00     0.098 H 
BRANCH  29  31
ATOM     31  N   UNK d   1      35.931 -34.460 -37.532  0.00  0.00    -0.067 N 
ATOM     32  H1  UNK d   1      36.325 -33.868 -36.817  0.00  0.00     0.275 HD
ATOM     33  H2  UNK d   1      36.013 -34.005 -38.428  0.00  0.00     0.275 HD
ATOM     34  H3  UNK d   1      36.428 -35.337 -37.554  0.00  0.00     0.275 HD
ENDBRANCH  29  31
BRANCH  29  35
ATOM     35  CB  UNK d   1      33.731 -33.383 -37.073  0.00  0.00    -0.042 C 
ATOM     36  H5  UNK d   1      32.673 -33.587 -36.852  0.00  0.00     0.030 H 
ATOM     37  H6  UNK d   1      33.806 -32.805 -38.006  0.00  0.00     0.030 H 
ATOM     38  H7  UNK d   1      34.173 -32.806 -36.248  0.00  0.00     0.030 H 
ENDBRANCH  29  35
ENDBRANCH  26  29
ENDBRANCH  23  25
BRANCH  23  39
ATOM     39  CB  UNK d   1      33.649 -38.459 -39.704  0.00  0.00    -0.049 C 
ATOM     40  H10 UNK d   1      33.302 -39.079 -40.544  0.00  0.00     0.030 H 
ATOM     41  H11 UNK d   1      32.821 -38.302 -38.998  0.00  0.00     0.030 H 
ATOM     42  H12 UNK d   1      34.478 -38.968 -39.190  0.00  0.00     0.030 H 
ENDBRANCH  23  39
ENDBRANCH  20  23
ENDBRANCH  17  19
BRANCH  17  43
ATOM     43  CB  UNK d   1      29.850 -37.642 -42.453  0.00  0.00    -0.049 C 
ATOM     44  H15 UNK d   1      29.028 -37.230 -43.057  0.00  0.00     0.030 H 
ATOM     45  H16 UNK d   1      29.442 -38.092 -41.536  0.00  0.00     0.030 H 
ATOM     46  H17 UNK d   1      30.381 -38.411 -43.033  0.00  0.00     0.030 H 
ENDBRANCH  17  43
ENDBRANCH  14  17
ENDBRANCH  11  13
BRANCH  11  47
ATOM     47  CB  UNK d   1      27.979 -32.577 -42.488  0.00  0.00    -0.049 C 
ATOM     48  H20 UNK d   1      27.433 -31.753 -42.005  0.00  0.00     0.030 H 
ATOM     49  H21 UNK d   1      27.313 -33.093 -43.196  0.00  0.00     0.030 H 
ATOM     50  H22 UNK d   1      28.848 -32.174 -43.029  0.00  0.00     0.030 H 
ENDBRANCH  11  47
ENDBRANCH   8  11
ENDBRANCH   5   7
BRANCH   5  51
ATOM     51  CB  UNK d   1      26.397 -34.803 -37.336  0.00  0.00    -0.049 C 
ATOM     52  H25 UNK d   1      25.500 -34.988 -36.727  0.00  0.00     0.030 H 
ATOM     53  H26 UNK d   1      27.168 -34.322 -36.716  0.00  0.00     0.030 H 
ATOM     54  H27 UNK d   1      26.781 -35.758 -37.723  0.00  0.00     0.030 H 
ENDBRANCH   5  51
ENDBRANCH   1   5
BRANCH   3  55
ATOM     55  CA  UNK d   1      23.447 -31.131 -37.954  0.00  0.00     0.086 C 
ATOM     56  H29 UNK d   1      23.852 -30.407 -38.676  0.00  0.00     0.086 H 
BRANCH  55  57
ATOM     57  C   UNK d   1      23.677 -30.523 -36.539  0.00  0.00     0.240 C 
ATOM     58  O   UNK d   1      23.815 -29.306 -36.375  0.00  0.00    -0.271 OA
ATOM     59  N   UNK d   1      23.730 -31.393 -35.535  0.00  0.00    -0.346 N 
ATOM     60  H33 UNK d   1      23.557 -32.356 -35.744  0.00  0.00     0.163 HD
BRANCH  59  61
ATOM     61  CA  UNK d   1      24.023 -31.040 -34.148  0.00  0.00     0.086 C 
ATOM     62  H34 UNK d   1      24.575 -30.090 -34.109  0.00  0.00     0.086 H 
BRANCH  61  63
ATOM     63  C   UNK d   1      24.904 -32.178 -33.578  0.00  0.00     0.240 C 
ATOM     64  O   UNK d   1      25.444 -32.970 -34.354  0.00  0.00    -0.271 OA
ATOM     65  N   UNK d   1      25.071 -32.263 -32.257  0.00  0.00    -0.346 N 
ATOM     66  H38 UNK d   1      24.613 -31.604 -31.661  0.00  0.00     0.163 HD
BRANCH  65  67
ATOM     67  CA  UNK d   1      25.921 -33.313 -31.659  0.00  0.00     0.086 C 
ATOM     68  H39 UNK d   1      25.796 -34.224 -32.263  0.00  0.00     0.086 H 
BRANCH  67  69
ATOM     69  C   UNK d   1      25.513 -33.647 -30.226  0.00  0.00     0.240 C 
ATOM     70  O   UNK d   1      25.173 -32.748 -29.451  0.00  0.00    -0.271 OA
ATOM     71  N   UNK d   1      25.550 -34.934 -29.867  0.00  0.00    -0.348 N 
ATOM     72  H43 UNK d   1      25.796 -35.630 -30.542  0.00  0.00     0.163 HD
BRANCH  71  73
ATOM     73  CA  UNK d   1      25.233 -35.335 -28.493  0.00  0.00     0.073 C 
ATOM     74  H44 UNK d   1      24.197 -35.036 -28.274  0.00  0.00     0.085 H 
BRANCH  73  75
ATOM     75  C   UNK d   1      26.172 -34.622 -27.482  0.00  0.00     0.174 C 
ATOM     76  O   UNK d   1      26.653 -35.301 -26.409  0.00  0.00    -0.175 OA
ATOM     77  N   UNK d   1      26.428 -33.250 -27.852  0.00  0.00    -0.356 N 
ATOM     78  H48 UNK d   1      26.004 -32.892 -28.684  0.00  0.00     0.162 HD
BRANCH  77  79
ATOM     79  CA  UNK d   1      27.289 -32.351 -27.056  0.00  0.00     0.092 C 
ATOM     80  H49 UNK d   1      27.517 -31.437 -27.625  0.00  0.00     0.088 H 
BRANCH  79  81
ATOM     81  C   UNK d   1      28.764 -33.166 -26.616  0.00  0.00     0.196 C 
ATOM     82  O   UNK d   1      29.578 -32.515 -25.786  0.00  0.00    -0.646 OA
ATOM     83  OXT UNK d   1      29.209 -34.261 -27.185  0.00  0.00    -0.646 OA
ENDBRANCH  79  81
BRANCH  79  84
ATOM     84  CB  UNK d   1      26.427 -31.971 -25.606  0.00  0.00    -0.048 C 
ATOM     85  H50 UNK d   1      27.036 -31.300 -24.982  0.00  0.00     0.030 H 
ATOM     86  H51 UNK d   1      26.216 -32.897 -25.051  0.00  0.00     0.030 H 
ATOM     87  H52 UNK d   1      25.480 -31.474 -25.862  0.00  0.00     0.030 H 
ENDBRANCH  79  84
ENDBRANCH  77  79
ENDBRANCH  73  75
BRANCH  73  88
ATOM     88  CB  UNK d   1      25.341 -36.868 -28.346  0.00  0.00    -0.050 C 
ATOM     89  H45 UNK d   1      25.101 -37.155 -27.312  0.00  0.00     0.030 H 
ATOM     90  H46 UNK d   1      26.365 -37.188 -28.587  0.00  0.00     0.030 H 
ATOM     91  H47 UNK d   1      24.634 -37.353 -29.035  0.00  0.00     0.030 H 
ENDBRANCH  73  88
ENDBRANCH  71  73
ENDBRANCH  67  69
BRANCH  67  92
ATOM     92  CB  UNK d   1      27.398 -32.917 -31.704  0.00  0.00    -0.049 C 
ATOM     93  H40 UNK d   1      28.006 -33.715 -31.253  0.00  0.00     0.030 H 
ATOM     94  H41 UNK d   1      27.544 -31.983 -31.142  0.00  0.00     0.030 H 
ATOM     95  H42 UNK d   1      27.706 -32.768 -32.749  0.00  0.00     0.030 H 
ENDBRANCH  67  92
ENDBRANCH  65  67
ENDBRANCH  61  63
BRANCH  61  96
ATOM     96  CB  UNK d   1      22.724 -30.891 -33.372  0.00  0.00    -0.049 C 
ATOM     97  H35 UNK d   1      22.949 -30.625 -32.328  0.00  0.00     0.030 H 
ATOM     98  H36 UNK d   1      22.171 -31.841 -33.397  0.00  0.00     0.030 H 
ATOM     99  H37 UNK d   1      22.113 -30.099 -33.829  0.00  0.00     0.030 H 
ENDBRANCH  61  96
ENDBRANCH  59  61
ENDBRANCH  55  57
BRANCH  55 100
ATOM    100  CB  UNK d   1      21.965 -31.308 -38.263  0.00  0.00    -0.049 C 
ATOM    101  H30 UNK d   1      21.439 -30.357 -38.092  0.00  0.00     0.030 H 
ATOM    102  H31 UNK d   1      21.544 -32.083 -37.606  0.00  0.00     0.030 H 
ATOM    103  H32 UNK d   1      21.843 -31.611 -39.313  0.00  0.00     0.030 H 
ENDBRANCH  55 100
ENDBRANCH   3  55
TORSDOF 30
