REMARK WARNING: 32 MAX_TORS EXCEEDED!!!
REMARK  52 active torsions:
REMARK  status: ('A' for Active; 'I' for Inactive)
REMARK    1  A    between atoms: CA_2  and  N_1 
REMARK    2  A    between atoms: CA_2  and  CB_5 
REMARK    3  A    between atoms: C_3  and  CA_2 
REMARK       I    between atoms: N_7  and  C_3 
REMARK    4  A    between atoms: CB_5  and  CG_6 
REMARK    5  A    between atoms: CA_8  and  N_7 
REMARK    6  A    between atoms: CA_8  and  CB_11 
REMARK    7  A    between atoms: C_9  and  CA_8 
REMARK       I    between atoms: N_14  and  C_9 
REMARK    8  A    between atoms: CB_11  and  CG2_13 
REMARK    9  A    between atoms: CB_11  and  OG1_12 
REMARK   10  A    between atoms: CA_15  and  N_14 
REMARK   11  A    between atoms: CA_15  and  CB_18 
REMARK   12  A    between atoms: C_16  and  CA_15 
REMARK       I    between atoms: N_25  and  C_16 
REMARK   13  A    between atoms: CB_18  and  CG_19 
REMARK   14  A    between atoms: CA_26  and  N_25 
REMARK   15  A    between atoms: CA_26  and  CB_29 
REMARK   16  A    between atoms: C_27  and  CA_26 
REMARK       I    between atoms: N_31  and  C_27 
REMARK   17  A    between atoms: CB_29  and  OG_30 
REMARK   18  A    between atoms: CA_32  and  N_31 
REMARK   19  A    between atoms: CA_32  and  CB_35 
REMARK   20  A    between atoms: C_33  and  CA_32 
REMARK       I    between atoms: N_39  and  C_33 
REMARK   21  A    between atoms: CB_35  and  CG_36 
REMARK   22  A    between atoms: CA_40  and  N_39 
REMARK   23  A    between atoms: CA_40  and  CB_43 
REMARK   24  A    between atoms: C_41  and  CA_40 
REMARK       I    between atoms: N_47  and  C_41 
REMARK   25  A    between atoms: CB_43  and  CG_44 
REMARK   26  A    between atoms: CG_44  and  CD1_45 
REMARK   27  A    between atoms: CG_44  and  CD2_46 
REMARK   28  A    between atoms: CA_48  and  N_47 
REMARK   29  A    between atoms: CA_48  and  CB_51 
REMARK   30  A    between atoms: C_49  and  CA_48 
REMARK       I    between atoms: N_61  and  C_49 
REMARK   31  A    between atoms: CB_51  and  CG_52 
REMARK   32  A    between atoms: CA_62  and  N_61 
REMARK   33  A    between atoms: CA_62  and  CB_65 
REMARK   34  A    between atoms: C_63  and  CA_62 
REMARK       I    between atoms: N_70  and  C_63 
REMARK   35  A    between atoms: CB_65  and  CG_66 
REMARK   36  A    between atoms: CG_66  and  CD_67 
REMARK   37  A    between atoms: CD_67  and  CE_68 
REMARK   38  A    between atoms: CE_68  and  NZ_69 
REMARK   39  A    between atoms: CA_71  and  N_70 
REMARK   40  A    between atoms: CA_71  and  CB_74 
REMARK   41  A    between atoms: C_72  and  CA_71 
REMARK       I    between atoms: N_78  and  C_72 
REMARK   42  A    between atoms: CB_74  and  CG_75 
REMARK   43  A    between atoms: CG_75  and  CD1_76 
REMARK   44  A    between atoms: CG_75  and  CD2_77 
REMARK   45  A    between atoms: CA_79  and  N_78 
REMARK   46  A    between atoms: CA_79  and  CB_82 
REMARK   47  A    between atoms: C_80  and  CA_79 
REMARK       I    between atoms: C_80  and  N_86 
REMARK   48  A    between atoms: CB_82  and  CG_83 
REMARK   49  A    between atoms: CG_83  and  CD1_84 
REMARK   50  A    between atoms: CG_83  and  CD2_85 
REMARK   51  A    between atoms: CA_87  and  C_88 
REMARK   52  A    between atoms: C_88  and  O1_93 
ROOT
ATOM      1  CA  TRP d   1      17.908   8.638  42.106  0.00  0.00     0.093 C 
ATOM      2  H47 TRP d   1      18.944   8.399  42.390  0.00  0.00     0.088 H 
ENDROOT
BRANCH   1   3
ATOM      3  N   TRP d   1      17.343   9.401  43.223  0.00  0.00    -0.346 N 
ATOM      4  C   LEU d   1      17.894  10.547  43.601  0.00  0.00     0.241 C 
ATOM      5  O   LEU d   1      18.881  11.007  43.036  0.00  0.00    -0.271 OA
ATOM      6  H46 TRP d   1      16.537   9.055  43.703  0.00  0.00     0.163 HD
BRANCH   4   7
ATOM      7  CA  LEU d   1      17.250  11.307  44.781  0.00  0.00     0.089 C 
ATOM      8  H36 LEU d   1      17.635  12.337  44.746  0.00  0.00     0.087 H 
BRANCH   7   9
ATOM      9  N   LEU d   1      15.789  11.394  44.726  0.00  0.00    -0.346 N 
ATOM     10  C   ASP d   1      15.120  11.919  43.701  0.00  0.00     0.241 C 
ATOM     11  O   ASP d   1      15.660  12.488  42.764  0.00  0.00    -0.271 OA
ATOM     12  H35 LEU d   1      15.265  11.040  45.501  0.00  0.00     0.163 HD
BRANCH  10  13
ATOM     13  CA  ASP d   1      13.600  11.777  43.752  0.00  0.00     0.098 C 
ATOM     14  H32 ASP d   1      13.170  12.108  42.795  0.00  0.00     0.088 H 
BRANCH  13  15
ATOM     15  N   ASP d   1      13.261  10.362  43.963  0.00  0.00    -0.345 N 
ATOM     16  C   SER d   1      13.519   9.419  43.045  0.00  0.00     0.243 C 
ATOM     17  O   SER d   1      13.950   9.676  41.915  0.00  0.00    -0.271 OA
ATOM     18  H31 ASP d   1      12.823  10.093  44.821  0.00  0.00     0.163 HD
BRANCH  16  19
ATOM     19  CA  SER d   1      13.269   7.957  43.461  0.00  0.00     0.109 C 
ATOM     20  H27 SER d   1      14.071   7.366  42.994  0.00  0.00     0.090 H 
BRANCH  19  21
ATOM     21  N   SER d   1      13.381   7.729  44.899  0.00  0.00    -0.344 N 
ATOM     22  C   PHE d   1      14.582   7.755  45.479  0.00  0.00     0.241 C 
ATOM     23  O   PHE d   1      15.599   8.022  44.856  0.00  0.00    -0.271 OA
ATOM     24  H26 SER d   1      12.562   7.554  45.446  0.00  0.00     0.163 HD
BRANCH  22  25
ATOM     25  CA  PHE d   1      14.673   7.411  46.973  0.00  0.00     0.093 C 
ATOM     26  H18 PHE d   1      15.618   7.825  47.355  0.00  0.00     0.088 H 
BRANCH  25  27
ATOM     27  N   PHE d   1      13.598   8.023  47.738  0.00  0.00    -0.346 N 
ATOM     28  C   THR d   1      13.371   9.338  47.674  0.00  0.00     0.243 C 
ATOM     29  O   THR d   1      14.036  10.124  46.977  0.00  0.00    -0.271 OA
ATOM     30  H17 PHE d   1      13.020   7.451  48.320  0.00  0.00     0.163 HD
BRANCH  28  31
ATOM     31  CA  THR d   1      12.228   9.861  48.514  0.00  0.00     0.113 C 
ATOM     32  H11 THR d   1      12.196   9.320  49.471  0.00  0.00     0.091 H 
BRANCH  31  33
ATOM     33  N   THR d   1      12.489  11.270  48.773  0.00  0.00    -0.344 N 
ATOM     34  C   GLU d   1      13.111  11.675  49.875  0.00  0.00     0.249 C 
ATOM     35  O   GLU d   1      13.559  10.897  50.727  0.00  0.00    -0.271 OA
ATOM     36  H10 THR d   1      12.192  11.951  48.104  0.00  0.00     0.163 HD
BRANCH  34  37
ATOM     37  CA  GLU d   1      13.233  13.188  50.047  0.00  0.00     0.175 C 
ATOM     38  H4  GLU d   1      12.354  13.650  49.575  0.00  0.00     0.099 H 
BRANCH  37  39
ATOM     39  N   GLU d   1      13.236  13.587  51.491  0.00  0.00    -0.067 N 
ATOM     40  H1  GLU d   1      13.318  14.589  51.562  0.00  0.00     0.275 HD
ATOM     41  H2  GLU d   1      14.016  13.152  51.958  0.00  0.00     0.275 HD
ATOM     42  H3  GLU d   1      12.376  13.288  51.924  0.00  0.00     0.275 HD
ENDBRANCH  37  39
BRANCH  37  43
ATOM     43  CB  GLU d   1      14.481  13.712  49.331  0.00  0.00    -0.034 C 
ATOM     44  H5  GLU d   1      14.757  12.992  48.547  0.00  0.00     0.036 H 
ATOM     45  H6  GLU d   1      15.296  13.784  50.066  0.00  0.00     0.036 H 
BRANCH  43  46
ATOM     46  CG  GLU d   1      14.298  15.090  48.677  0.00  0.00    -0.074 C 
ATOM     47  H7  GLU d   1      15.236  15.391  48.187  0.00  0.00     0.027 H 
ATOM     48  H8  GLU d   1      14.033  15.829  49.447  0.00  0.00     0.027 H 
ATOM     49  H9  GLU d   1      13.494  15.037  47.928  0.00  0.00     0.027 H 
ENDBRANCH  43  46
ENDBRANCH  37  43
ENDBRANCH  34  37
ENDBRANCH  31  33
BRANCH  31  50
ATOM     50  CB  THR d   1      10.889   9.630  47.773  0.00  0.00     0.060 C 
ATOM     51  H12 THR d   1      10.729   8.547  47.663  0.00  0.00     0.086 H 
BRANCH  50  52
ATOM     52  CG2 THR d   1       9.726  10.217  48.554  0.00  0.00    -0.050 C 
ATOM     53  H14 THR d   1       8.789  10.039  48.006  0.00  0.00     0.031 H 
ATOM     54  H15 THR d   1       9.877  11.299  48.679  0.00  0.00     0.031 H 
ATOM     55  H16 THR d   1       9.669   9.738  49.542  0.00  0.00     0.031 H 
ENDBRANCH  50  52
BRANCH  50  56
ATOM     56  OG1 THR d   1      10.945  10.226  46.473  0.00  0.00    -0.393 OA
ATOM     57  H13 THR d   1      10.134  10.051  46.011  0.00  0.00     0.210 HD
ENDBRANCH  50  56
ENDBRANCH  31  50
ENDBRANCH  28  31
ENDBRANCH  25  27
BRANCH  25  58
ATOM     58  CB  PHE d   1      14.731   5.888  47.147  0.00  0.00    -0.014 C 
ATOM     59  H19 PHE d   1      13.706   5.491  47.111  0.00  0.00     0.043 H 
ATOM     60  H20 PHE d   1      15.177   5.663  48.127  0.00  0.00     0.043 H 
BRANCH  58  61
ATOM     61  CG  PHE d   1      15.544   5.214  46.084  0.00  0.00    -0.056 A 
ATOM     62  CD1 PHE d   1      16.918   5.093  46.225  0.00  0.00    -0.077 A 
ATOM     63  CE1 PHE d   1      17.677   4.520  45.226  0.00  0.00    -0.082 A 
ATOM     64  H21 PHE d   1      17.399   5.452  47.128  0.00  0.00     0.084 H 
ATOM     65  CZ  PHE d   1      17.052   4.065  44.050  0.00  0.00    -0.083 A 
ATOM     66  H23 PHE d   1      18.750   4.421  45.346  0.00  0.00     0.083 H 
ATOM     67  CE2 PHE d   1      15.688   4.206  43.895  0.00  0.00    -0.082 A 
ATOM     68  H25 PHE d   1      17.642   3.604  43.266  0.00  0.00     0.083 H 
ATOM     69  CD2 PHE d   1      14.945   4.776  44.905  0.00  0.00    -0.077 A 
ATOM     70  H24 PHE d   1      15.205   3.870  42.985  0.00  0.00     0.083 H 
ATOM     71  H22 PHE d   1      13.874   4.886  44.780  0.00  0.00     0.084 H 
ENDBRANCH  58  61
ENDBRANCH  25  58
ENDBRANCH  22  25
ENDBRANCH  19  21
BRANCH  19  72
ATOM     72  CB  SER d   1      11.953   7.416  42.904  0.00  0.00     0.044 C 
ATOM     73  H28 SER d   1      11.936   6.324  43.033  0.00  0.00     0.077 H 
ATOM     74  H29 SER d   1      11.895   7.659  41.833  0.00  0.00     0.077 H 
BRANCH  72  75
ATOM     75  OG  SER d   1      10.836   7.966  43.554  0.00  0.00    -0.398 OA
ATOM     76  H30 SER d   1      10.874   7.755  44.480  0.00  0.00     0.209 HD
ENDBRANCH  72  75
ENDBRANCH  19  72
ENDBRANCH  16  19
ENDBRANCH  13  15
BRANCH  13  77
ATOM     77  CB  ASP d   1      13.045  12.666  44.881  0.00  0.00     0.043 C 
ATOM     78  H33 ASP d   1      13.547  13.643  44.834  0.00  0.00     0.052 H 
ATOM     79  H34 ASP d   1      13.268  12.185  45.845  0.00  0.00     0.052 H 
BRANCH  77  80
ATOM     80  CG  ASP d   1      11.539  12.891  44.789  0.00  0.00     0.175 C 
ATOM     81  OD1 ASP d   1      10.912  13.090  45.869  0.00  0.00    -0.648 OA
ATOM     82  OD2 ASP d   1      10.990  12.879  43.651  0.00  0.00    -0.648 OA
ENDBRANCH  77  80
ENDBRANCH  13  77
ENDBRANCH  10  13
ENDBRANCH   7   9
BRANCH   7  83
ATOM     83  CB  LEU d   1      17.684  10.687  46.115  0.00  0.00    -0.035 C 
ATOM     84  H37 LEU d   1      18.784  10.670  46.132  0.00  0.00     0.037 H 
ATOM     85  H38 LEU d   1      17.300   9.656  46.144  0.00  0.00     0.037 H 
BRANCH  83  86
ATOM     86  CG  LEU d   1      17.213  11.391  47.383  0.00  0.00    -0.059 C 
ATOM     87  H39 LEU d   1      16.191  11.757  47.206  0.00  0.00     0.038 H 
BRANCH  86  88
ATOM     88  CD1 LEU d   1      17.166  10.447  48.553  0.00  0.00    -0.073 C 
ATOM     89  H40 LEU d   1      16.823  10.988  49.447  0.00  0.00     0.028 H 
ATOM     90  H41 LEU d   1      18.171  10.038  48.735  0.00  0.00     0.028 H 
ATOM     91  H42 LEU d   1      16.470   9.624  48.333  0.00  0.00     0.028 H 
ENDBRANCH  86  88
BRANCH  86  92
ATOM     92  CD2 LEU d   1      18.100  12.597  47.686  0.00  0.00    -0.073 C 
ATOM     93  H43 LEU d   1      18.116  13.269  46.815  0.00  0.00     0.028 H 
ATOM     94  H44 LEU d   1      19.122  12.255  47.904  0.00  0.00     0.028 H 
ATOM     95  H45 LEU d   1      17.701  13.136  48.558  0.00  0.00     0.028 H 
ENDBRANCH  86  92
ENDBRANCH  83  86
ENDBRANCH   7  83
ENDBRANCH   4   7
ENDBRANCH   1   3
BRANCH   1  96
ATOM     96  CB  TRP d   1      17.181   7.309  41.885  0.00  0.00    -0.012 C 
ATOM     97  H48 TRP d   1      16.180   7.514  41.477  0.00  0.00     0.044 H 
ATOM     98  H49 TRP d   1      17.084   6.791  42.850  0.00  0.00     0.044 H 
BRANCH  96  99
ATOM     99  CG  TRP d   1      17.919   6.428  40.936  0.00  0.00    -0.028 A 
ATOM    100  CD1 TRP d   1      17.659   6.236  39.600  0.00  0.00    -0.015 A 
ATOM    101  NE1 TRP d   1      18.571   5.354  39.055  0.00  0.00    -0.365 N 
ATOM    102  H50 TRP d   1      16.849   6.712  39.050  0.00  0.00     0.112 H 
ATOM    103  CE2 TRP d   1      19.455   4.984  40.036  0.00  0.00     0.042 A 
ATOM    104  H51 TRP d   1      18.585   5.029  38.078  0.00  0.00     0.165 HD
ATOM    105  CD2 TRP d   1      19.074   5.646  41.233  0.00  0.00    -0.002 A 
ATOM    106  CZ2 TRP d   1      20.542   4.128  39.980  0.00  0.00    -0.056 A 
ATOM    107  CE3 TRP d   1      19.821   5.428  42.397  0.00  0.00    -0.070 A 
ATOM    108  CZ3 TRP d   1      20.892   4.584  42.335  0.00  0.00    -0.082 A 
ATOM    109  H52 TRP d   1      19.555   5.918  43.326  0.00  0.00     0.084 H 
ATOM    110  CH2 TRP d   1      21.246   3.937  41.132  0.00  0.00    -0.081 A 
ATOM    111  H54 TRP d   1      21.482   4.407  43.227  0.00  0.00     0.083 H 
ATOM    112  H55 TRP d   1      22.101   3.270  41.123  0.00  0.00     0.083 H 
ATOM    113  H53 TRP d   1      20.822   3.630  39.059  0.00  0.00     0.086 H 
ENDBRANCH  96  99
ENDBRANCH   1  96
BRANCH   1 114
ATOM    114  C   TRP d   1      17.979   9.410  40.781  0.00  0.00     0.241 C 
ATOM    115  O   TRP d   1      19.025   9.465  40.159  0.00  0.00    -0.271 OA
ATOM    116  N   LYS d   1      16.867   9.997  40.349  0.00  0.00    -0.346 N 
ATOM    117  H56 LYS d   1      16.043   9.957  40.914  0.00  0.00     0.163 HD
BRANCH 116 118
ATOM    118  CA  LYS d   1      16.820  10.706  39.057  0.00  0.00     0.089 C 
ATOM    119  H57 LYS d   1      17.238  10.022  38.304  0.00  0.00     0.087 H 
BRANCH 118 120
ATOM    120  CB  LYS d   1      15.368  10.999  38.644  0.00  0.00    -0.038 C 
ATOM    121  H58 LYS d   1      14.821  10.045  38.633  0.00  0.00     0.036 H 
ATOM    122  H59 LYS d   1      15.384  11.424  37.630  0.00  0.00     0.036 H 
BRANCH 120 123
ATOM    123  CG  LYS d   1      14.612  11.959  39.538  0.00  0.00    -0.061 C 
ATOM    124  H60 LYS d   1      15.141  12.923  39.567  0.00  0.00     0.033 H 
ATOM    125  H61 LYS d   1      14.554  11.542  40.554  0.00  0.00     0.033 H 
BRANCH 123 126
ATOM    126  CD  LYS d   1      13.200  12.172  38.997  0.00  0.00    -0.043 C 
ATOM    127  H62 LYS d   1      12.660  11.214  39.031  0.00  0.00     0.035 H 
ATOM    128  H63 LYS d   1      13.268  12.518  37.955  0.00  0.00     0.035 H 
BRANCH 126 129
ATOM    129  CE  LYS d   1      12.420  13.206  39.808  0.00  0.00     0.080 C 
ATOM    130  H64 LYS d   1      12.921  14.181  39.721  0.00  0.00     0.075 H 
ATOM    131  H65 LYS d   1      12.403  12.895  40.863  0.00  0.00     0.075 H 
BRANCH 129 132
ATOM    132  NZ  LYS d   1      11.012  13.337  39.316  0.00  0.00    -0.079 N 
ATOM    133  H66 LYS d   1      10.525  14.024  39.870  0.00  0.00     0.274 HD
ATOM    134  H67 LYS d   1      10.544  12.448  39.397  0.00  0.00     0.274 HD
ATOM    135  H68 LYS d   1      11.019  13.627  38.351  0.00  0.00     0.274 HD
ENDBRANCH 129 132
ENDBRANCH 126 129
ENDBRANCH 123 126
ENDBRANCH 120 123
ENDBRANCH 118 120
BRANCH 118 136
ATOM    136  C   LYS d   1      17.687  11.974  39.028  0.00  0.00     0.241 C 
ATOM    137  O   LYS d   1      17.862  12.598  37.982  0.00  0.00    -0.271 OA
ATOM    138  N   LEU d   1      18.233  12.320  40.191  0.00  0.00    -0.346 N 
ATOM    139  H69 LEU d   1      18.047  11.741  40.985  0.00  0.00     0.163 HD
BRANCH 138 140
ATOM    140  CA  LEU d   1      19.080  13.480  40.384  0.00  0.00     0.089 C 
ATOM    141  H70 LEU d   1      18.852  14.251  39.633  0.00  0.00     0.087 H 
BRANCH 140 142
ATOM    142  CB  LEU d   1      18.806  14.028  41.790  0.00  0.00    -0.035 C 
ATOM    143  H71 LEU d   1      19.578  13.579  42.432  0.00  0.00     0.037 H 
ATOM    144  H72 LEU d   1      17.819  13.630  42.070  0.00  0.00     0.037 H 
BRANCH 142 145
ATOM    145  CG  LEU d   1      18.769  15.508  42.177  0.00  0.00    -0.059 C 
ATOM    146  H73 LEU d   1      19.776  15.926  42.032  0.00  0.00     0.038 H 
BRANCH 145 147
ATOM    147  CD1 LEU d   1      17.797  16.315  41.317  0.00  0.00    -0.073 C 
ATOM    148  H74 LEU d   1      17.811  17.367  41.637  0.00  0.00     0.028 H 
ATOM    149  H75 LEU d   1      16.781  15.910  41.433  0.00  0.00     0.028 H 
ATOM    150  H76 LEU d   1      18.100  16.249  40.261  0.00  0.00     0.028 H 
ENDBRANCH 145 147
BRANCH 145 151
ATOM    151  CD2 LEU d   1      18.401  15.626  43.656  0.00  0.00    -0.073 C 
ATOM    152  H77 LEU d   1      19.110  15.040  44.258  0.00  0.00     0.028 H 
ATOM    153  H78 LEU d   1      17.382  15.242  43.812  0.00  0.00     0.028 H 
ATOM    154  H79 LEU d   1      18.445  16.682  43.962  0.00  0.00     0.028 H 
ENDBRANCH 145 151
ENDBRANCH 142 145
ENDBRANCH 140 142
BRANCH 140 155
ATOM    155  C   LEU d   1      20.546  13.029  40.238  0.00  0.00     0.241 C 
ATOM    156  O   LEU d   1      21.395  13.357  41.073  0.00  0.00    -0.271 OA
ATOM    157  N   LEU d   1      20.824  12.267  39.176  0.00  0.00    -0.346 N 
ATOM    158  H80 LEU d   1      20.112  12.138  38.486  0.00  0.00     0.163 HD
BRANCH 157 159
ATOM    159  CA  LEU d   1      22.118  11.611  38.971  0.00  0.00     0.090 C 
ATOM    160  H81 LEU d   1      22.833  12.061  39.676  0.00  0.00     0.087 H 
BRANCH 159 161
ATOM    161  CB  LEU d   1      22.019  10.104  39.271  0.00  0.00    -0.035 C 
ATOM    162  H82 LEU d   1      22.645   9.601  38.519  0.00  0.00     0.037 H 
ATOM    163  H83 LEU d   1      20.965   9.830  39.114  0.00  0.00     0.037 H 
BRANCH 161 164
ATOM    164  CG  LEU d   1      22.417   9.507  40.623  0.00  0.00    -0.059 C 
ATOM    165  H84 LEU d   1      21.687   9.833  41.378  0.00  0.00     0.038 H 
BRANCH 164 166
ATOM    166  CD1 LEU d   1      22.384   7.994  40.530  0.00  0.00    -0.073 C 
ATOM    167  H85 LEU d   1      22.669   7.561  41.500  0.00  0.00     0.028 H 
ATOM    168  H86 LEU d   1      23.090   7.659  39.757  0.00  0.00     0.028 H 
ATOM    169  H87 LEU d   1      21.368   7.665  40.266  0.00  0.00     0.028 H 
ENDBRANCH 164 166
BRANCH 164 170
ATOM    170  CD2 LEU d   1      23.795   9.971  41.058  0.00  0.00    -0.073 C 
ATOM    171  H88 LEU d   1      23.809  11.069  41.123  0.00  0.00     0.028 H 
ATOM    172  H89 LEU d   1      24.543   9.637  40.324  0.00  0.00     0.028 H 
ATOM    173  H90 LEU d   1      24.032   9.543  42.043  0.00  0.00     0.028 H 
ENDBRANCH 164 170
ENDBRANCH 161 164
ENDBRANCH 159 161
BRANCH 159 174
ATOM    174  C   LEU d   1      22.678  11.790  37.547  0.00  0.00     0.243 C 
ATOM    175  O   LEU d   1      21.925  11.705  36.572  0.00  0.00    -0.271 OA
ATOM    176  N   PRO d   1      24.006  12.039  37.435  0.00  0.00    -0.336 N 
ATOM    177  CA  PRO d   1      24.744  12.123  36.164  0.00  0.00     0.095 C 
ATOM    178  CD  PRO d   1      24.885  12.311  38.593  0.00  0.00    -0.001 C 
ATOM    179  CB  PRO d   1      26.103  12.689  36.593  0.00  0.00    -0.035 C 
ATOM    180  H91 PRO d   1      24.228  12.812  35.479  0.00  0.00     0.089 H 
ATOM    181  CG  PRO d   1      26.264  12.230  38.015  0.00  0.00    -0.048 C 
ATOM    182  H92 PRO d   1      26.103  13.787  36.536  0.00  0.00     0.036 H 
ATOM    183  H93 PRO d   1      26.909  12.289  35.961  0.00  0.00     0.036 H 
ATOM    184  H94 PRO d   1      26.640  11.197  38.050  0.00  0.00     0.035 H 
ATOM    185  H95 PRO d   1      26.954  12.890  38.561  0.00  0.00     0.035 H 
ATOM    186  H96 PRO d   1      24.744  11.555  39.379  0.00  0.00     0.064 H 
ATOM    187  H97 PRO d   1      24.691  13.311  39.007  0.00  0.00     0.064 H 
BRANCH 177 188
ATOM    188  C   PRO d   1      24.956  10.781  35.441  0.00  0.00     0.163 C 
ATOM    189  O   PRO d   1      24.593   9.711  35.957  0.00  0.00    -0.648 OA
BRANCH 188 190
ATOM    190  O1  PRO d   1      25.537  10.767  34.245  0.00  0.00    -0.775 OA
ATOM    191  H98 PRO d   1      26.330  10.245  34.285  0.00  0.00     0.167 HD
ENDBRANCH 188 190
ENDBRANCH 177 188
ENDBRANCH 159 174
ENDBRANCH 157 159
ENDBRANCH 140 155
ENDBRANCH 138 140
ENDBRANCH 118 136
ENDBRANCH 116 118
ENDBRANCH   1 114
TORSDOF 52
