REMARK WARNING: 32 MAX_TORS EXCEEDED!!!
REMARK  53 active torsions:
REMARK  status: ('A' for Active; 'I' for Inactive)
REMARK    1  A    between atoms: CA_2  and  N_1 
REMARK    2  A    between atoms: CA_2  and  CB_5 
REMARK    3  A    between atoms: C_3  and  CA_2 
REMARK       I    between atoms: N_10  and  C_3 
REMARK    4  A    between atoms: CB_5  and  CG_6 
REMARK    5  A    between atoms: CG_6  and  CD_7 
REMARK    6  A    between atoms: CA_11  and  N_10 
REMARK    7  A    between atoms: CA_11  and  CB_14 
REMARK    8  A    between atoms: C_12  and  CA_11 
REMARK       I    between atoms: N_17  and  C_12 
REMARK    9  A    between atoms: CB_14  and  CG2_16 
REMARK   10  A    between atoms: CB_14  and  OG1_15 
REMARK   11  A    between atoms: CA_18  and  N_17 
REMARK   12  A    between atoms: CA_18  and  CB_21 
REMARK   13  A    between atoms: C_19  and  CA_18 
REMARK       I    between atoms: N_28  and  C_19 
REMARK   14  A    between atoms: CB_21  and  CG_22 
REMARK   15  A    between atoms: CA_29  and  N_28 
REMARK   16  A    between atoms: CA_29  and  CB_32 
REMARK   17  A    between atoms: C_30  and  CA_29 
REMARK       I    between atoms: N_34  and  C_30 
REMARK   18  A    between atoms: CB_32  and  OG_33 
REMARK   19  A    between atoms: CA_35  and  N_34 
REMARK   20  A    between atoms: CA_35  and  CB_38 
REMARK   21  A    between atoms: C_36  and  CA_35 
REMARK       I    between atoms: N_42  and  C_36 
REMARK   22  A    between atoms: CB_38  and  CG_39 
REMARK   23  A    between atoms: CA_43  and  N_42 
REMARK   24  A    between atoms: CA_43  and  CB_46 
REMARK   25  A    between atoms: C_44  and  CA_43 
REMARK       I    between atoms: N_50  and  C_44 
REMARK   26  A    between atoms: CB_46  and  CG_47 
REMARK   27  A    between atoms: CG_47  and  CD1_48 
REMARK   28  A    between atoms: CG_47  and  CD2_49 
REMARK   29  A    between atoms: CA_51  and  N_50 
REMARK   30  A    between atoms: CA_51  and  CB_54 
REMARK   31  A    between atoms: C_52  and  CA_51 
REMARK       I    between atoms: N_64  and  C_52 
REMARK   32  A    between atoms: CB_54  and  CG_55 
REMARK   33  A    between atoms: CA_65  and  N_64 
REMARK   34  A    between atoms: CA_65  and  CB_68 
REMARK   35  A    between atoms: C_66  and  CA_65 
REMARK       I    between atoms: N_73  and  C_66 
REMARK   36  A    between atoms: CB_68  and  CG_69 
REMARK   37  A    between atoms: CG_69  and  CD_70 
REMARK   38  A    between atoms: CD_70  and  CE_71 
REMARK   39  A    between atoms: CE_71  and  NZ_72 
REMARK   40  A    between atoms: CA_74  and  N_73 
REMARK   41  A    between atoms: CA_74  and  CB_77 
REMARK   42  A    between atoms: C_75  and  CA_74 
REMARK       I    between atoms: N_81  and  C_75 
REMARK   43  A    between atoms: CB_77  and  CG_78 
REMARK   44  A    between atoms: CG_78  and  CD1_79 
REMARK   45  A    between atoms: CG_78  and  CD2_80 
REMARK   46  A    between atoms: CA_82  and  N_81 
REMARK   47  A    between atoms: CA_82  and  CB_85 
REMARK   48  A    between atoms: C_83  and  CA_82 
REMARK       I    between atoms: C_83  and  N_89 
REMARK   49  A    between atoms: CB_85  and  CG_86 
REMARK   50  A    between atoms: CG_86  and  CD1_87 
REMARK   51  A    between atoms: CG_86  and  CD2_88 
REMARK   52  A    between atoms: CA_90  and  C_91 
REMARK   53  A    between atoms: C_91  and  O1_96 
ROOT
ATOM      1  CA  TRP d   1       0.415  -3.498  42.211  0.00  0.00     0.093 C 
ATOM      2  H46 TRP d   1      -0.635  -3.247  42.420  0.00  0.00     0.088 H 
ENDROOT
BRANCH   1   3
ATOM      3  N   TRP d   1       0.922  -4.255  43.355  0.00  0.00    -0.346 N 
ATOM      4  C   LEU d   1       0.402  -5.425  43.726  0.00  0.00     0.241 C 
ATOM      5  O   LEU d   1      -0.542  -5.960  43.139  0.00  0.00    -0.271 OA
ATOM      6  H45 TRP d   1       1.688  -3.881  43.879  0.00  0.00     0.163 HD
BRANCH   4   7
ATOM      7  CA  LEU d   1       1.043  -6.113  44.937  0.00  0.00     0.089 C 
ATOM      8  H35 LEU d   1       0.672  -7.149  44.947  0.00  0.00     0.087 H 
BRANCH   7   9
ATOM      9  N   LEU d   1       2.507  -6.185  44.894  0.00  0.00    -0.346 N 
ATOM     10  C   ASP d   1       3.197  -6.756  43.907  0.00  0.00     0.241 C 
ATOM     11  O   ASP d   1       2.679  -7.281  42.923  0.00  0.00    -0.271 OA
ATOM     12  H34 LEU d   1       3.019  -5.781  45.652  0.00  0.00     0.163 HD
BRANCH  10  13
ATOM     13  CA  ASP d   1       4.718  -6.708  44.053  0.00  0.00     0.098 C 
ATOM     14  H31 ASP d   1       5.185  -7.088  43.133  0.00  0.00     0.088 H 
BRANCH  13  15
ATOM     15  N   ASP d   1       5.139  -5.317  44.257  0.00  0.00    -0.345 N 
ATOM     16  C   SER d   1       4.915  -4.365  43.349  0.00  0.00     0.243 C 
ATOM     17  O   SER d   1       4.455  -4.605  42.238  0.00  0.00    -0.271 OA
ATOM     18  H30 ASP d   1       5.610  -5.074  45.105  0.00  0.00     0.163 HD
BRANCH  16  19
ATOM     19  CA  SER d   1       5.254  -2.915  43.743  0.00  0.00     0.109 C 
ATOM     20  H26 SER d   1       4.646  -2.250  43.112  0.00  0.00     0.090 H 
BRANCH  19  21
ATOM     21  N   SER d   1       4.933  -2.637  45.132  0.00  0.00    -0.344 N 
ATOM     22  C   PHE d   1       3.696  -2.643  45.617  0.00  0.00     0.241 C 
ATOM     23  O   PHE d   1       2.690  -2.862  44.931  0.00  0.00    -0.271 OA
ATOM     24  H25 SER d   1       5.685  -2.430  45.758  0.00  0.00     0.163 HD
BRANCH  22  25
ATOM     25  CA  PHE d   1       3.578  -2.310  47.110  0.00  0.00     0.093 C 
ATOM     26  H17 PHE d   1       2.621  -2.714  47.471  0.00  0.00     0.088 H 
BRANCH  25  27
ATOM     27  N   PHE d   1       4.643  -2.946  47.901  0.00  0.00    -0.346 N 
ATOM     28  C   THR d   1       4.826  -4.271  47.861  0.00  0.00     0.243 C 
ATOM     29  O   THR d   1       4.130  -5.011  47.164  0.00  0.00    -0.271 OA
ATOM     30  H16 PHE d   1       5.237  -2.382  48.475  0.00  0.00     0.163 HD
BRANCH  28  31
ATOM     31  CA  THR d   1       5.936  -4.880  48.745  0.00  0.00     0.113 C 
ATOM     32  H10 THR d   1       6.100  -4.212  49.603  0.00  0.00     0.091 H 
BRANCH  31  33
ATOM     33  N   THR d   1       5.504  -6.195  49.236  0.00  0.00    -0.344 N 
ATOM     34  C   GLU d   1       4.819  -6.367  50.358  0.00  0.00     0.249 C 
ATOM     35  O   GLU d   1       4.536  -5.445  51.119  0.00  0.00    -0.271 OA
ATOM     36  H9  THR d   1       5.739  -7.003  48.696  0.00  0.00     0.163 HD
BRANCH  34  37
ATOM     37  CA  GLU d   1       4.384  -7.799  50.678  0.00  0.00     0.176 C 
ATOM     38  H4  GLU d   1       3.703  -7.753  51.540  0.00  0.00     0.099 H 
BRANCH  37  39
ATOM     39  N   GLU d   1       3.641  -8.425  49.545  0.00  0.00    -0.066 N 
ATOM     40  H1  GLU d   1       3.374  -9.364  49.796  0.00  0.00     0.275 HD
ATOM     41  H2  GLU d   1       4.232  -8.451  48.729  0.00  0.00     0.275 HD
ATOM     42  H3  GLU d   1       2.815  -7.883  49.344  0.00  0.00     0.275 HD
ENDBRANCH  37  39
BRANCH  37  43
ATOM     43  CB  GLU d   1       5.584  -8.668  51.072  0.00  0.00    -0.021 C 
ATOM     44  H5  GLU d   1       6.231  -8.775  50.189  0.00  0.00     0.037 H 
ATOM     45  H6  GLU d   1       5.205  -9.656  51.371  0.00  0.00     0.037 H 
BRANCH  43  46
ATOM     46  CG  GLU d   1       6.438  -8.122  52.220  0.00  0.00     0.018 C 
ATOM     47  H7  GLU d   1       5.790  -7.547  52.898  0.00  0.00     0.049 H 
ATOM     48  H8  GLU d   1       7.210  -7.460  51.801  0.00  0.00     0.049 H 
BRANCH  46  49
ATOM     49  CD  GLU d   1       7.123  -9.227  53.019  0.00  0.00     0.172 C 
ATOM     50  OE2 GLU d   1       8.253  -9.000  53.512  0.00  0.00    -0.648 OA
ATOM     51  OE1 GLU d   1       6.524 -10.320  53.162  0.00  0.00    -0.648 OA
ENDBRANCH  46  49
ENDBRANCH  43  46
ENDBRANCH  37  43
ENDBRANCH  34  37
ENDBRANCH  31  33
BRANCH  31  52
ATOM     52  CB  THR d   1       7.282  -5.043  47.985  0.00  0.00     0.060 C 
ATOM     53  H11 THR d   1       7.434  -6.115  47.789  0.00  0.00     0.086 H 
BRANCH  52  54
ATOM     54  CG2 THR d   1       7.287  -4.324  46.669  0.00  0.00    -0.050 C 
ATOM     55  H13 THR d   1       8.258  -4.471  46.175  0.00  0.00     0.031 H 
ATOM     56  H14 THR d   1       7.120  -3.250  46.837  0.00  0.00     0.031 H 
ATOM     57  H15 THR d   1       6.486  -4.724  46.030  0.00  0.00     0.031 H 
ENDBRANCH  52  54
BRANCH  52  58
ATOM     58  OG1 THR d   1       8.370  -4.567  48.798  0.00  0.00    -0.393 OA
ATOM     59  H12 THR d   1       8.365  -5.024  49.631  0.00  0.00     0.210 HD
ENDBRANCH  52  58
ENDBRANCH  31  52
ENDBRANCH  28  31
ENDBRANCH  25  27
BRANCH  25  60
ATOM     60  CB  PHE d   1       3.534  -0.783  47.282  0.00  0.00    -0.014 C 
ATOM     61  H18 PHE d   1       4.564  -0.398  47.261  0.00  0.00     0.043 H 
ATOM     62  H19 PHE d   1       3.076  -0.553  48.255  0.00  0.00     0.043 H 
BRANCH  60  63
ATOM     63  CG  PHE d   1       2.737  -0.088  46.198  0.00  0.00    -0.056 A 
ATOM     64  CD1 PHE d   1       1.348   0.039  46.306  0.00  0.00    -0.077 A 
ATOM     65  CE1 PHE d   1       0.603   0.649  45.288  0.00  0.00    -0.082 A 
ATOM     66  H20 PHE d   1       0.842  -0.339  47.187  0.00  0.00     0.084 H 
ATOM     67  CZ  PHE d   1       1.248   1.125  44.154  0.00  0.00    -0.083 A 
ATOM     68  H22 PHE d   1      -0.472   0.749  45.385  0.00  0.00     0.083 H 
ATOM     69  CE2 PHE d   1       2.639   0.991  44.028  0.00  0.00    -0.082 A 
ATOM     70  H24 PHE d   1       0.676   1.601  43.365  0.00  0.00     0.083 H 
ATOM     71  CD2 PHE d   1       3.366   0.384  45.043  0.00  0.00    -0.077 A 
ATOM     72  H23 PHE d   1       3.144   1.360  43.142  0.00  0.00     0.083 H 
ATOM     73  H21 PHE d   1       4.439   0.274  44.938  0.00  0.00     0.084 H 
ENDBRANCH  60  63
ENDBRANCH  25  60
ENDBRANCH  22  25
ENDBRANCH  19  21
BRANCH  19  74
ATOM     74  CB  SER d   1       6.733  -2.585  43.500  0.00  0.00     0.044 C 
ATOM     75  H27 SER d   1       7.332  -3.027  44.310  0.00  0.00     0.077 H 
ATOM     76  H28 SER d   1       6.857  -1.492  43.507  0.00  0.00     0.077 H 
BRANCH  74  77
ATOM     77  OG  SER d   1       7.195  -3.083  42.275  0.00  0.00    -0.398 OA
ATOM     78  H29 SER d   1       7.098  -4.028  42.262  0.00  0.00     0.209 HD
ENDBRANCH  74  77
ENDBRANCH  19  74
ENDBRANCH  16  19
ENDBRANCH  13  15
BRANCH  13  79
ATOM     79  CB  ASP d   1       5.132  -7.607  45.229  0.00  0.00     0.043 C 
ATOM     80  H32 ASP d   1       4.661  -8.592  45.097  0.00  0.00     0.052 H 
ATOM     81  H33 ASP d   1       4.770  -7.149  46.161  0.00  0.00     0.052 H 
BRANCH  79  82
ATOM     82  CG  ASP d   1       6.645  -7.805  45.342  0.00  0.00     0.175 C 
ATOM     83  OD1 ASP d   1       7.381  -7.615  44.347  0.00  0.00    -0.648 OA
ATOM     84  OD2 ASP d   1       7.097  -8.162  46.456  0.00  0.00    -0.648 OA
ENDBRANCH  79  82
ENDBRANCH  13  79
ENDBRANCH  10  13
ENDBRANCH   7   9
BRANCH   7  85
ATOM     85  CB  LEU d   1       0.590  -5.442  46.242  0.00  0.00    -0.035 C 
ATOM     86  H36 LEU d   1      -0.504  -5.335  46.218  0.00  0.00     0.037 H 
ATOM     87  H37 LEU d   1       1.055  -4.447  46.303  0.00  0.00     0.037 H 
BRANCH  85  88
ATOM     88  CG  LEU d   1       0.974  -6.237  47.499  0.00  0.00    -0.059 C 
ATOM     89  H38 LEU d   1       1.974  -6.663  47.328  0.00  0.00     0.038 H 
BRANCH  88  90
ATOM     90  CD1 LEU d   1       1.058  -5.354  48.722  0.00  0.00    -0.073 C 
ATOM     91  H39 LEU d   1       1.335  -5.963  49.595  0.00  0.00     0.028 H 
ATOM     92  H40 LEU d   1       0.081  -4.880  48.900  0.00  0.00     0.028 H 
ATOM     93  H41 LEU d   1       1.819  -4.576  48.561  0.00  0.00     0.028 H 
ENDBRANCH  88  90
BRANCH  88  94
ATOM     94  CD2 LEU d   1       0.008  -7.397  47.735  0.00  0.00    -0.073 C 
ATOM     95  H42 LEU d   1      -0.037  -8.025  46.833  0.00  0.00     0.028 H 
ATOM     96  H43 LEU d   1      -0.994  -7.001  47.956  0.00  0.00     0.028 H 
ATOM     97  H44 LEU d   1       0.360  -8.000  48.585  0.00  0.00     0.028 H 
ENDBRANCH  88  94
ENDBRANCH  85  88
ENDBRANCH   7  85
ENDBRANCH   4   7
ENDBRANCH   1   3
BRANCH   1  98
ATOM     98  CB  TRP d   1       1.192  -2.182  42.041  0.00  0.00    -0.012 C 
ATOM     99  H47 TRP d   1       2.231  -2.422  41.770  0.00  0.00     0.044 H 
ATOM    100  H48 TRP d   1       1.178  -1.642  42.999  0.00  0.00     0.044 H 
BRANCH  98 101
ATOM    101  CG  TRP d   1       0.620  -1.289  40.984  0.00  0.00    -0.028 A 
ATOM    102  CD1 TRP d   1       1.065  -1.142  39.698  0.00  0.00    -0.015 A 
ATOM    103  NE1 TRP d   1       0.278  -0.236  39.026  0.00  0.00    -0.365 N 
ATOM    104  H49 TRP d   1       1.918  -1.666  39.269  0.00  0.00     0.112 H 
ATOM    105  CE2 TRP d   1      -0.705   0.212  39.870  0.00  0.00     0.042 A 
ATOM    106  H50 TRP d   1       0.406   0.058  38.047  0.00  0.00     0.165 HD
ATOM    107  CD2 TRP d   1      -0.521  -0.433  41.115  0.00  0.00    -0.002 A 
ATOM    108  CZ2 TRP d   1      -1.739   1.137  39.647  0.00  0.00    -0.056 A 
ATOM    109  CE3 TRP d   1      -1.403  -0.141  42.165  0.00  0.00    -0.070 A 
ATOM    110  CZ3 TRP d   1      -2.436   0.784  41.938  0.00  0.00    -0.082 A 
ATOM    111  H51 TRP d   1      -1.290  -0.619  43.132  0.00  0.00     0.084 H 
ATOM    112  CH2 TRP d   1      -2.590   1.404  40.690  0.00  0.00    -0.081 A 
ATOM    113  H53 TRP d   1      -3.125   1.022  42.740  0.00  0.00     0.083 H 
ATOM    114  H54 TRP d   1      -3.400   2.110  40.546  0.00  0.00     0.083 H 
ATOM    115  H52 TRP d   1      -1.860   1.622  38.685  0.00  0.00     0.086 H 
ENDBRANCH  98 101
ENDBRANCH   1  98
BRANCH   1 116
ATOM    116  C   TRP d   1       0.448  -4.306  40.909  0.00  0.00     0.241 C 
ATOM    117  O   TRP d   1      -0.500  -4.252  40.118  0.00  0.00    -0.271 OA
ATOM    118  N   LYS d   1       1.541  -5.042  40.694  0.00  0.00    -0.346 N 
ATOM    119  H55 LYS d   1       2.273  -5.018  41.374  0.00  0.00     0.163 HD
BRANCH 118 120
ATOM    120  CA  LYS d   1       1.717  -5.884  39.506  0.00  0.00     0.089 C 
ATOM    121  H56 LYS d   1       1.720  -5.232  38.620  0.00  0.00     0.087 H 
BRANCH 120 122
ATOM    122  CB  LYS d   1       3.047  -6.641  39.568  0.00  0.00    -0.038 C 
ATOM    123  H57 LYS d   1       3.016  -7.446  38.819  0.00  0.00     0.036 H 
ATOM    124  H58 LYS d   1       3.143  -7.079  40.572  0.00  0.00     0.036 H 
BRANCH 122 125
ATOM    125  CG  LYS d   1       4.274  -5.803  39.304  0.00  0.00    -0.061 C 
ATOM    126  H59 LYS d   1       4.264  -4.923  39.965  0.00  0.00     0.033 H 
ATOM    127  H60 LYS d   1       4.272  -5.473  38.255  0.00  0.00     0.033 H 
BRANCH 125 128
ATOM    128  CD  LYS d   1       5.526  -6.622  39.573  0.00  0.00    -0.043 C 
ATOM    129  H61 LYS d   1       5.507  -7.521  38.939  0.00  0.00     0.035 H 
ATOM    130  H62 LYS d   1       5.536  -6.920  40.632  0.00  0.00     0.035 H 
BRANCH 128 131
ATOM    131  CE  LYS d   1       6.796  -5.832  39.271  0.00  0.00     0.080 C 
ATOM    132  H63 LYS d   1       6.812  -4.922  39.889  0.00  0.00     0.075 H 
ATOM    133  H64 LYS d   1       6.805  -5.553  38.207  0.00  0.00     0.075 H 
BRANCH 131 134
ATOM    134  NZ  LYS d   1       8.007  -6.653  39.574  0.00  0.00    -0.079 N 
ATOM    135  H65 LYS d   1       8.836  -6.117  39.369  0.00  0.00     0.274 HD
ATOM    136  H66 LYS d   1       7.998  -7.487  39.008  0.00  0.00     0.274 HD
ATOM    137  H67 LYS d   1       8.004  -6.909  40.549  0.00  0.00     0.274 HD
ENDBRANCH 131 134
ENDBRANCH 128 131
ENDBRANCH 125 128
ENDBRANCH 122 125
ENDBRANCH 120 122
BRANCH 120 138
ATOM    138  C   LYS d   1       0.590  -6.899  39.359  0.00  0.00     0.241 C 
ATOM    139  O   LYS d   1       0.202  -7.245  38.241  0.00  0.00    -0.271 OA
ATOM    140  N   LEU d   1       0.081  -7.371  40.497  0.00  0.00    -0.346 N 
ATOM    141  H68 LEU d   1       0.447  -7.028  41.362  0.00  0.00     0.163 HD
BRANCH 140 142
ATOM    142  CA  LEU d   1      -0.987  -8.367  40.537  0.00  0.00     0.089 C 
ATOM    143  H69 LEU d   1      -0.909  -8.983  39.629  0.00  0.00     0.087 H 
BRANCH 142 144
ATOM    144  CB  LEU d   1      -0.826  -9.287  41.760  0.00  0.00    -0.035 C 
ATOM    145  H70 LEU d   1      -1.693  -9.964  41.759  0.00  0.00     0.037 H 
ATOM    146  H71 LEU d   1      -0.868  -8.639  42.648  0.00  0.00     0.037 H 
BRANCH 144 147
ATOM    147  CG  LEU d   1       0.418 -10.171  41.923  0.00  0.00    -0.059 C 
ATOM    148  H72 LEU d   1       1.308  -9.544  41.763  0.00  0.00     0.038 H 
BRANCH 147 149
ATOM    149  CD1 LEU d   1       0.475 -10.738  43.340  0.00  0.00    -0.073 C 
ATOM    150  H73 LEU d   1       1.369 -11.370  43.447  0.00  0.00     0.028 H 
ATOM    151  H74 LEU d   1      -0.425 -11.342  43.530  0.00  0.00     0.028 H 
ATOM    152  H75 LEU d   1       0.522  -9.911  44.064  0.00  0.00     0.028 H 
ENDBRANCH 147 149
BRANCH 147 153
ATOM    153  CD2 LEU d   1       0.445 -11.301  40.899  0.00  0.00    -0.073 C 
ATOM    154  H76 LEU d   1       0.403 -10.878  39.885  0.00  0.00     0.028 H 
ATOM    155  H77 LEU d   1      -0.421 -11.960  41.057  0.00  0.00     0.028 H 
ATOM    156  H78 LEU d   1       1.373 -11.880  41.017  0.00  0.00     0.028 H 
ENDBRANCH 147 153
ENDBRANCH 144 147
ENDBRANCH 142 144
BRANCH 142 157
ATOM    157  C   LEU d   1      -2.375  -7.717  40.551  0.00  0.00     0.241 C 
ATOM    158  O   LEU d   1      -3.275  -8.190  41.250  0.00  0.00    -0.271 OA
ATOM    159  N   LEU d   1      -2.540  -6.630  39.794  0.00  0.00    -0.346 N 
ATOM    160  H79 LEU d   1      -1.744  -6.225  39.343  0.00  0.00     0.163 HD
BRANCH 159 161
ATOM    161  CA  LEU d   1      -3.856  -6.015  39.606  0.00  0.00     0.090 C 
ATOM    162  H80 LEU d   1      -4.471  -6.255  40.486  0.00  0.00     0.087 H 
BRANCH 161 163
ATOM    163  CB  LEU d   1      -3.768  -4.487  39.493  0.00  0.00    -0.035 C 
ATOM    164  H81 LEU d   1      -4.508  -4.175  38.741  0.00  0.00     0.037 H 
ATOM    165  H82 LEU d   1      -2.756  -4.247  39.134  0.00  0.00     0.037 H 
BRANCH 163 166
ATOM    166  CG  LEU d   1      -4.015  -3.641  40.747  0.00  0.00    -0.059 C 
ATOM    167  H83 LEU d   1      -3.292  -3.946  41.517  0.00  0.00     0.038 H 
BRANCH 166 168
ATOM    168  CD1 LEU d   1      -3.801  -2.190  40.425  0.00  0.00    -0.073 C 
ATOM    169  H84 LEU d   1      -3.979  -1.584  41.326  0.00  0.00     0.028 H 
ATOM    170  H85 LEU d   1      -4.500  -1.883  39.633  0.00  0.00     0.028 H 
ATOM    171  H86 LEU d   1      -2.767  -2.039  40.080  0.00  0.00     0.028 H 
ENDBRANCH 166 168
BRANCH 166 172
ATOM    172  CD2 LEU d   1      -5.408  -3.829  41.301  0.00  0.00    -0.073 C 
ATOM    173  H87 LEU d   1      -5.568  -4.891  41.538  0.00  0.00     0.028 H 
ATOM    174  H88 LEU d   1      -6.147  -3.505  40.553  0.00  0.00     0.028 H 
ATOM    175  H89 LEU d   1      -5.523  -3.228  42.215  0.00  0.00     0.028 H 
ENDBRANCH 166 172
ENDBRANCH 163 166
ENDBRANCH 161 163
BRANCH 161 176
ATOM    176  C   LEU d   1      -4.538  -6.600  38.370  0.00  0.00     0.243 C 
ATOM    177  O   LEU d   1      -3.959  -6.586  37.280  0.00  0.00    -0.271 OA
ATOM    178  N   PRO d   1      -5.773  -7.113  38.539  0.00  0.00    -0.336 N 
ATOM    179  CA  PRO d   1      -6.516  -7.784  37.473  0.00  0.00     0.095 C 
ATOM    180  CD  PRO d   1      -6.537  -7.081  39.799  0.00  0.00    -0.001 C 
ATOM    181  CB  PRO d   1      -7.892  -8.047  38.104  0.00  0.00    -0.035 C 
ATOM    182  H90 PRO d   1      -6.023  -8.730  37.205  0.00  0.00     0.089 H 
ATOM    183  CG  PRO d   1      -7.948  -7.196  39.338  0.00  0.00    -0.048 C 
ATOM    184  H91 PRO d   1      -7.995  -9.110  38.367  0.00  0.00     0.036 H 
ATOM    185  H92 PRO d   1      -8.694  -7.763  37.406  0.00  0.00     0.036 H 
ATOM    186  H93 PRO d   1      -8.359  -6.203  39.103  0.00  0.00     0.035 H 
ATOM    187  H94 PRO d   1      -8.568  -7.676  40.110  0.00  0.00     0.035 H 
ATOM    188  H95 PRO d   1      -6.373  -6.136  40.337  0.00  0.00     0.064 H 
ATOM    189  H96 PRO d   1      -6.263  -7.925  40.449  0.00  0.00     0.064 H 
BRANCH 179 190
ATOM    190  C   PRO d   1      -6.663  -6.933  36.216  0.00  0.00     0.163 C 
ATOM    191  O   PRO d   1      -6.828  -5.717  36.314  0.00  0.00    -0.648 OA
BRANCH 190 192
ATOM    192  O1  PRO d   1      -6.613  -7.504  35.016  0.00  0.00    -0.775 OA
ATOM    193  H97 PRO d   1      -5.892  -7.133  34.520  0.00  0.00     0.167 HD
ENDBRANCH 190 192
ENDBRANCH 179 190
ENDBRANCH 161 176
ENDBRANCH 159 161
ENDBRANCH 142 157
ENDBRANCH 140 142
ENDBRANCH 120 138
ENDBRANCH 118 120
ENDBRANCH   1 116
TORSDOF 53
