REMARK  7 active torsions:
REMARK  status: ('A' for Active; 'I' for Inactive)
REMARK    1  A    between atoms: C3_3  and  C24_17 
REMARK    2  A    between atoms: C9_7  and  C14_10 
REMARK    3  A    between atoms: C15_11  and  O1_16 
REMARK    4  A    between atoms: O1_16  and  C1_28 
REMARK    5  A    between atoms: C28_21  and  C33_23 
REMARK       I    between atoms: C33_23  and  N35_25 
REMARK    6  A    between atoms: N35_25  and  C41_26 
REMARK    7  A    between atoms: N35_25  and  C45_27 
ROOT
ATOM      1  N1  P3Y d   1      16.506  -9.259   8.332  0.00  0.00    -0.242 NA
ATOM      2  C2  P3Y d   1      17.247  -8.483   7.488  0.00  0.00     0.015 A 
ATOM      3  C3  P3Y d   1      18.198  -7.560   7.983  0.00  0.00    -0.006 A 
ATOM      4  C4  P3Y d   1      18.346  -7.479   9.390  0.00  0.00    -0.056 A 
ATOM      5  C5  P3Y d   1      17.549  -8.309  10.252  0.00  0.00     0.023 A 
ATOM      6  C6  P3Y d   1      16.644  -9.180   9.683  0.00  0.00     0.138 A 
ATOM      7  C9  P3Y d   1      17.464  -8.456  11.667  0.00  0.00     0.006 A 
ATOM      8  C10 P3Y d   1      16.473  -9.444  11.799  0.00  0.00    -0.009 A 
ATOM      9  N11 P3Y d   1      15.965  -9.896  10.609  0.00  0.00    -0.349 N 
ATOM     10  H1  P3Y d   1      17.104  -8.576   6.418  0.00  0.00     0.116 H 
ATOM     11  H2  P3Y d   1      19.063  -6.788   9.818  0.00  0.00     0.086 H 
ATOM     12  H3  P3Y d   1      16.137  -9.819  12.765  0.00  0.00     0.112 H 
ATOM     13  H4  P3Y d   1      15.239 -10.611  10.456  0.00  0.00     0.167 HD
ENDROOT
BRANCH   3  14
ATOM     14  C24 P3Y d   1      19.008  -6.725   7.054  0.00  0.00    -0.006 A 
ATOM     15  C25 P3Y d   1      19.218  -5.333   7.255  0.00  0.00     0.013 A 
ATOM     16  N26 P3Y d   1      19.967  -4.575   6.389  0.00  0.00    -0.271 NA
ATOM     17  H9  P3Y d   1      18.772  -4.855   8.120  0.00  0.00     0.116 H 
ATOM     18  C27 P3Y d   1      20.536  -5.164   5.291  0.00  0.00     0.017 A 
ATOM     19  C28 P3Y d   1      20.373  -6.544   5.026  0.00  0.00     0.050 A 
ATOM     20  H10 P3Y d   1      21.124  -4.559   4.610  0.00  0.00     0.116 H 
ATOM     21  C29 P3Y d   1      19.603  -7.310   5.925  0.00  0.00    -0.054 A 
ATOM     22  H11 P3Y d   1      19.468  -8.370   5.741  0.00  0.00     0.086 H 
BRANCH  19  23
ATOM     23  C33 P3Y d   1      21.013  -7.158   3.842  0.00  0.00     0.254 C 
ATOM     24  O34 P3Y d   1      22.225  -7.406   3.885  0.00  0.00    -0.267 OA
ATOM     25  N35 P3Y d   1      20.249  -7.468   2.699  0.00  0.00    -0.357 N 
BRANCH  25  26
ATOM     26  C41 P3Y d   1      18.774  -7.476   2.612  0.00  0.00    -0.016 C 
ATOM     27  H12 P3Y d   1      18.468  -7.756   1.593  0.00  0.00     0.056 H 
ATOM     28  H13 P3Y d   1      18.387  -6.474   2.848  0.00  0.00     0.056 H 
ATOM     29  H14 P3Y d   1      18.368  -8.204   3.330  0.00  0.00     0.056 H 
ENDBRANCH  25  26
BRANCH  25  30
ATOM     30  C45 P3Y d   1      21.007  -7.927   1.516  0.00  0.00    -0.016 C 
ATOM     31  H15 P3Y d   1      22.085  -7.866   1.725  0.00  0.00     0.056 H 
ATOM     32  H16 P3Y d   1      20.764  -7.288   0.654  0.00  0.00     0.056 H 
ATOM     33  H17 P3Y d   1      20.736  -8.968   1.288  0.00  0.00     0.056 H 
ENDBRANCH  25  30
ENDBRANCH  19  23
ENDBRANCH   3  14
BRANCH   7  34
ATOM     34  C14 P3Y d   1      18.210  -7.773  12.784  0.00  0.00     0.010 A 
ATOM     35  C15 P3Y d   1      18.352  -6.341  12.887  0.00  0.00     0.079 A 
ATOM     36  C16 P3Y d   1      19.091  -5.789  14.002  0.00  0.00    -0.050 A 
ATOM     37  C17 P3Y d   1      19.664  -6.625  14.976  0.00  0.00    -0.080 A 
ATOM     38  H5  P3Y d   1      19.204  -4.714  14.087  0.00  0.00     0.087 H 
ATOM     39  C18 P3Y d   1      19.516  -8.017  14.869  0.00  0.00    -0.082 A 
ATOM     40  H6  P3Y d   1      20.217  -6.197  15.805  0.00  0.00     0.083 H 
ATOM     41  C19 P3Y d   1      18.800  -8.585  13.785  0.00  0.00    -0.069 A 
ATOM     42  H7  P3Y d   1      19.953  -8.663  15.622  0.00  0.00     0.083 H 
ATOM     43  H8  P3Y d   1      18.702  -9.663  13.720  0.00  0.00     0.085 H 
BRANCH  35  44
ATOM     44  O1  P3Y d   1      17.749  -5.543  11.876  0.00  0.00    -0.355 OA
BRANCH  44  45
ATOM     45  C1  P3Y d   1      17.672  -4.112  12.008  0.00  0.00     0.010 C 
ATOM     46  H18 P3Y d   1      17.173  -3.689  11.124  0.00  0.00     0.066 H 
ATOM     47  H19 P3Y d   1      18.687  -3.696  12.090  0.00  0.00     0.066 H 
ATOM     48  H20 P3Y d   1      17.097  -3.857  12.911  0.00  0.00     0.066 H 
ENDBRANCH  44  45
ENDBRANCH  35  44
ENDBRANCH   7  34
TORSDOF 7
