REMARK WARNING: 32 MAX_TORS EXCEEDED!!!
REMARK  40 active torsions:
REMARK  status: ('A' for Active; 'I' for Inactive)
REMARK    1  A    between atoms: N_1  and  CN_2 
REMARK    2  A    between atoms: CA_3  and  CB_6 
REMARK    3  A    between atoms: CB_6  and  OG1_7 
REMARK    4  A    between atoms: CB_6  and  CG2_8 
REMARK    5  A    between atoms: CG2_8  and  CD1_9 
REMARK    6  A    between atoms: CG2_8  and  CD2_10 
REMARK    7  A    between atoms: CD2_10  and  CE_11 
REMARK    8  A    between atoms: CZ_12  and  CH_13 
REMARK    9  A    between atoms: CA_15  and  CB_18 
REMARK   10  A    between atoms: CB_18  and  CG_19 
REMARK   11  A    between atoms: N_20  and  CN_24 
REMARK   12  A    between atoms: N_25  and  CN_26 
REMARK   13  A    between atoms: CA_27  and  CB_28 
REMARK   14  A    between atoms: CB_28  and  CG_29 
REMARK   15  A    between atoms: CG_29  and  CD1_30 
REMARK   16  A    between atoms: CG_29  and  CD2_31 
REMARK   17  A    between atoms: CA_35  and  CB_38 
REMARK   18  A    between atoms: CB_38  and  CG1_39 
REMARK   19  A    between atoms: CB_38  and  CG2_40 
REMARK   20  A    between atoms: N_41  and  CN_42 
REMARK   21  A    between atoms: CA_43  and  CB_44 
REMARK   22  A    between atoms: CB_44  and  CG_45 
REMARK   23  A    between atoms: CG_45  and  CD1_46 
REMARK   24  A    between atoms: CG_45  and  CD2_47 
REMARK   25  A    between atoms: CA_51  and  CB_54 
REMARK   26  A    between atoms: CA_56  and  CB_57 
REMARK   27  A    between atoms: N_60  and  CN_61 
REMARK   28  A    between atoms: CA_62  and  CB_63 
REMARK   29  A    between atoms: CB_63  and  CG_64 
REMARK   30  A    between atoms: CG_64  and  CD1_65 
REMARK   31  A    between atoms: CG_64  and  CD2_66 
REMARK   32  A    between atoms: N_69  and  CN_70 
REMARK   33  A    between atoms: CA_71  and  CB_72 
REMARK   34  A    between atoms: CB_72  and  CG_73 
REMARK   35  A    between atoms: CG_73  and  CD1_74 
REMARK   36  A    between atoms: CG_73  and  CD2_75 
REMARK   37  A    between atoms: N_78  and  CN_79 
REMARK   38  A    between atoms: CA_80  and  CB_81 
REMARK   39  A    between atoms: CB_81  and  CG1_82 
REMARK   40  A    between atoms: CB_81  and  CG2_83 
ROOT
ATOM      1  N   BMT d   1      -2.770   4.782   8.911  0.00  0.00    -0.339 N 
ATOM      2  CA  BMT d   1      -3.329   6.073   9.274  0.00  0.00     0.116 C 
ATOM      3  C   BMT d   1      -2.888   7.172   8.288  0.00  0.00     0.243 C 
ATOM      4  O   BMT d   1      -2.099   6.953   7.365  0.00  0.00    -0.271 OA
ATOM      5  H4  BMT d   1      -4.421   5.977   9.179  0.00  0.00     0.091 H 
ATOM      6  N   ABA d   1      -3.494   8.365   8.511  0.00  0.00    -0.346 N 
ATOM      7  CA  ABA d   1      -3.462   9.490   7.571  0.00  0.00     0.089 C 
ATOM      8  C   ABA d   1      -2.936  10.727   8.301  0.00  0.00     0.242 C 
ATOM      9  O   ABA d   1      -3.704  11.628   8.610  0.00  0.00    -0.271 OA
ATOM     10  H18 ABA d   1      -3.993   8.485   9.369  0.00  0.00     0.163 HD
ATOM     11  H19 ABA d   1      -2.776   9.249   6.745  0.00  0.00     0.087 H 
ATOM     12  N   SAR d   1      -1.621  10.791   8.597  0.00  0.00    -0.346 N 
ATOM     13  CA  SAR d   1      -1.084  11.998   9.238  0.00  0.00     0.071 C 
ATOM     14  C   SAR d   1      -0.083  11.648  10.312  0.00  0.00     0.238 C 
ATOM     15  O   SAR d   1       1.119  11.960  10.153  0.00  0.00    -0.272 OA
ATOM     16  H25 SAR d   1      -1.913  12.563   9.691  0.00  0.00     0.079 H 
ATOM     17  H26 SAR d   1      -0.590  12.619   8.476  0.00  0.00     0.079 H 
ATOM     18  N   MLE d   1      -0.480  10.933  11.374  0.00  0.00    -0.342 N 
ATOM     19  CA  MLE d   1       0.562  10.475  12.331  0.00  0.00     0.091 C 
ATOM     20  C   MLE d   1       0.616   8.980  12.232  0.00  0.00     0.241 C 
ATOM     21  O   MLE d   1      -0.243   8.265  12.770  0.00  0.00    -0.271 OA
ATOM     22  N   MLE d   1       1.600   5.403  13.133  0.00  0.00    -0.341 N 
ATOM     23  CA  MLE d   1       2.004   4.916  14.481  0.00  0.00     0.091 C 
ATOM     24  C   MLE d   1       2.730   3.579  14.349  0.00  0.00     0.241 C 
ATOM     25  O   MLE d   1       2.786   2.948  13.270  0.00  0.00    -0.271 OA
ATOM     26  N   MLE d   1       1.440  -2.283  12.621  0.00  0.00    -0.341 N 
ATOM     27  CA  MLE d   1       0.991  -2.436  11.198  0.00  0.00     0.091 C 
ATOM     28  C   MLE d   1      -0.330  -1.669  11.050  0.00  0.00     0.243 C 
ATOM     29  O   MLE d   1      -1.407  -2.299  11.006  0.00  0.00    -0.271 OA
ATOM     30  N   MLE d   1      -0.308  -0.330  11.014  0.00  0.00    -0.341 N 
ATOM     31  CA  MLE d   1      -1.554   0.429  10.953  0.00  0.00     0.091 C 
ATOM     32  C   MLE d   1      -1.675   1.159   9.608  0.00  0.00     0.243 C 
ATOM     33  O   MLE d   1      -0.699   1.252   8.858  0.00  0.00    -0.271 OA
ATOM     34  H33 MLE d   1       1.515  10.905  11.990  0.00  0.00     0.087 H 
ATOM     35  H55 MLE d   1       2.710   5.641  14.911  0.00  0.00     0.087 H 
ATOM     36  H78 MLE d   1       1.745  -1.976  10.542  0.00  0.00     0.087 H 
ATOM     37  H91 MLE d   1      -2.380  -0.296  10.998  0.00  0.00     0.087 H 
ATOM     38  N   VAL d   1       1.593   8.482  11.491  0.00  0.00    -0.346 N 
ATOM     39  CA  VAL d   1       1.754   7.059  11.295  0.00  0.00     0.092 C 
ATOM     40  C   VAL d   1       2.238   6.450  12.611  0.00  0.00     0.243 C 
ATOM     41  O   VAL d   1       3.210   6.973  13.173  0.00  0.00    -0.271 OA
ATOM     42  H43 VAL d   1       2.239   9.108  11.054  0.00  0.00     0.163 HD
ATOM     43  H44 VAL d   1       0.782   6.617  11.031  0.00  0.00     0.088 H 
ATOM     44  N   ALA d   1       3.317   3.134  15.461  0.00  0.00    -0.346 N 
ATOM     45  CA  ALA d   1       4.052   1.878  15.486  0.00  0.00     0.086 C 
ATOM     46  C   ALA d   1       3.139   0.677  15.170  0.00  0.00     0.240 C 
ATOM     47  O   ALA d   1       1.954   0.657  15.501  0.00  0.00    -0.271 OA
ATOM     48  H65 ALA d   1       3.250   3.677  16.298  0.00  0.00     0.163 HD
ATOM     49  H66 ALA d   1       4.844   1.920  14.724  0.00  0.00     0.086 H 
ATOM     50  N   DAL d   1       3.736  -0.359  14.611  0.00  0.00    -0.346 N 
ATOM     51  CA  DAL d   1       3.057  -1.649  14.371  0.00  0.00     0.086 C 
ATOM     52  C   DAL d   1       2.640  -1.739  12.911  0.00  0.00     0.242 C 
ATOM     53  O   DAL d   1       3.423  -1.371  12.043  0.00  0.00    -0.271 OA
ATOM     54  H70 DAL d   1       4.693  -0.266  14.337  0.00  0.00     0.163 HD
ATOM     55  H71 DAL d   1       2.166  -1.711  15.013  0.00  0.00     0.086 H 
ATOM     56  N   MVA d   1      -2.869   1.697   9.299  0.00  0.00    -0.341 N 
ATOM     57  CA  MVA d   1      -3.022   2.473   8.054  0.00  0.00     0.094 C 
ATOM     58  C   MVA d   1      -3.618   3.844   8.380  0.00  0.00     0.243 C 
ATOM     59  O   MVA d   1      -4.834   4.077   8.215  0.00  0.00    -0.271 OA
ATOM     60 4H10 MVA d   1      -2.016   2.628   7.636  0.00  0.00     0.088 H 
ENDROOT
BRANCH   2  61
ATOM     61  CB  BMT d   1      -3.051   6.489  10.745  0.00  0.00     0.067 C 
ATOM     62  H5  BMT d   1      -3.672   7.367  10.975  0.00  0.00     0.087 H 
BRANCH  61  63
ATOM     63  OG1 BMT d   1      -1.684   6.880  10.816  0.00  0.00    -0.393 OA
ATOM     64  H6  BMT d   1      -1.477   7.142  11.705  0.00  0.00     0.210 HD
ENDBRANCH  61  63
BRANCH  61  65
ATOM     65  CG2 BMT d   1      -3.418   5.396  11.772  0.00  0.00    -0.027 C 
ATOM     66  H7  BMT d   1      -2.790   4.516  11.568  0.00  0.00     0.043 H 
BRANCH  65  67
ATOM     67  CD1 BMT d   1      -4.887   4.975  11.633  0.00  0.00    -0.070 C 
ATOM     68  H8  BMT d   1      -5.117   4.197  12.376  0.00  0.00     0.028 H 
ATOM     69  H9  BMT d   1      -5.061   4.579  10.622  0.00  0.00     0.028 H 
ATOM     70  H10 BMT d   1      -5.536   5.847  11.802  0.00  0.00     0.028 H 
ENDBRANCH  65  67
BRANCH  65  71
ATOM     71  CD2 BMT d   1      -3.131   5.866  13.220  0.00  0.00    -0.045 C 
ATOM     72  H11 BMT d   1      -2.084   6.199  13.271  0.00  0.00     0.039 H 
ATOM     73  H12 BMT d   1      -3.276   5.009  13.894  0.00  0.00     0.039 H 
BRANCH  71  74
ATOM     74  CE  BMT d   1      -4.005   6.991  13.697  0.00  0.00    -0.106 C 
ATOM     75  CZ  BMT d   1      -3.437   8.220  14.098  0.00  0.00    -0.110 C 
ATOM     76  H14 BMT d   1      -2.356   8.338  14.051  0.00  0.00     0.075 H 
ATOM     77  H13 BMT d   1      -5.085   6.858  13.734  0.00  0.00     0.076 H 
BRANCH  75  78
ATOM     78  CH  BMT d   1      -4.275   9.376  14.590  0.00  0.00    -0.060 C 
ATOM     79  H15 BMT d   1      -3.619  10.222  14.844  0.00  0.00     0.032 H 
ATOM     80  H16 BMT d   1      -4.838   9.067  15.483  0.00  0.00     0.032 H 
ATOM     81  H17 BMT d   1      -4.978   9.681  13.801  0.00  0.00     0.032 H 
ENDBRANCH  75  78
ENDBRANCH  71  74
ENDBRANCH  65  71
ENDBRANCH  61  65
ENDBRANCH   2  61
BRANCH   1  82
ATOM     82  CN  BMT d   1      -1.300   4.576   9.002  0.00  0.00    -0.015 C 
ATOM     83  H1  BMT d   1      -0.834   5.460   9.461  0.00  0.00     0.056 H 
ATOM     84  H2  BMT d   1      -0.888   4.426   7.993  0.00  0.00     0.056 H 
ATOM     85  H3  BMT d   1      -1.091   3.690   9.619  0.00  0.00     0.056 H 
ENDBRANCH   1  82
BRANCH  57  86
ATOM     86  CB  MVA d   1      -3.860   1.762   6.973  0.00  0.00    -0.033 C 
ATOM     87 5H10 MVA d   1      -4.927   1.827   7.234  0.00  0.00     0.042 H 
BRANCH  86  88
ATOM     88  CG1 MVA d   1      -3.599   2.496   5.648  0.00  0.00    -0.071 C 
ATOM     89 6H10 MVA d   1      -4.180   2.020   4.844  0.00  0.00     0.028 H 
ATOM     90 7H10 MVA d   1      -2.527   2.445   5.405  0.00  0.00     0.028 H 
ATOM     91 8H10 MVA d   1      -3.903   3.549   5.746  0.00  0.00     0.028 H 
ENDBRANCH  86  88
BRANCH  86  92
ATOM     92  CG2 MVA d   1      -3.477   0.302   6.831  0.00  0.00    -0.071 C 
ATOM     93 9H10 MVA d   1      -3.665  -0.220   7.781  0.00  0.00     0.028 H 
ATOM     94 0H11 MVA d   1      -2.410   0.226   6.576  0.00  0.00     0.028 H 
ATOM     95 1H11 MVA d   1      -4.079  -0.159   6.034  0.00  0.00     0.028 H 
ENDBRANCH  86  92
ENDBRANCH  57  86
BRANCH   7  96
ATOM     96  CB  ABA d   1      -4.864   9.725   6.987  0.00  0.00    -0.041 C 
ATOM     97  H20 ABA d   1      -4.824  10.589   6.308  0.00  0.00     0.036 H 
ATOM     98  H21 ABA d   1      -5.560   9.939   7.812  0.00  0.00     0.036 H 
BRANCH  96  99
ATOM     99  CG  ABA d   1      -5.368   8.537   6.227  0.00  0.00    -0.074 C 
ATOM    100  H22 ABA d   1      -6.371   8.754   5.830  0.00  0.00     0.027 H 
ATOM    101  H23 ABA d   1      -5.420   7.667   6.898  0.00  0.00     0.027 H 
ATOM    102  H24 ABA d   1      -4.684   8.317   5.394  0.00  0.00     0.027 H 
ENDBRANCH  96  99
ENDBRANCH   7  96
BRANCH  56 103
ATOM    103  CN  MVA d   1      -4.128   1.454  10.036  0.00  0.00    -0.015 C 
ATOM    104 1H10 MVA d   1      -3.914   0.872  10.944  0.00  0.00     0.056 H 
ATOM    105 2H10 MVA d   1      -4.825   0.893   9.396  0.00  0.00     0.056 H 
ATOM    106 3H10 MVA d   1      -4.581   2.417  10.316  0.00  0.00     0.056 H 
ENDBRANCH  56 103
BRANCH  12 107
ATOM    107  CN  SAR d   1      -0.658   9.778   8.200  0.00  0.00    -0.015 C 
ATOM    108  H27 SAR d   1      -1.186   8.932   7.736  0.00  0.00     0.056 H 
ATOM    109  H28 SAR d   1      -0.110   9.426   9.086  0.00  0.00     0.056 H 
ATOM    110  H29 SAR d   1       0.051  10.209   7.478  0.00  0.00     0.056 H 
ENDBRANCH  12 107
BRANCH  31 111
ATOM    111  CB  MLE d   1      -1.714   1.357  12.174  0.00  0.00    -0.035 C 
ATOM    112  H92 MLE d   1      -2.685   1.868  12.101  0.00  0.00     0.037 H 
ATOM    113  H93 MLE d   1      -0.905   2.102  12.156  0.00  0.00     0.037 H 
BRANCH 111 114
ATOM    114  CG  MLE d   1      -1.657   0.610  13.504  0.00  0.00    -0.059 C 
ATOM    115  H94 MLE d   1      -0.779  -0.052  13.494  0.00  0.00     0.038 H 
BRANCH 114 116
ATOM    116  CD1 MLE d   1      -1.501   1.598  14.646  0.00  0.00    -0.073 C 
ATOM    117  H95 MLE d   1      -1.461   1.052  15.600  0.00  0.00     0.028 H 
ATOM    118  H96 MLE d   1      -2.358   2.288  14.654  0.00  0.00     0.028 H 
ATOM    119  H97 MLE d   1      -0.571   2.170  14.511  0.00  0.00     0.028 H 
ENDBRANCH 114 116
BRANCH 114 120
ATOM    120  CD2 MLE d   1      -2.893  -0.244  13.696  0.00  0.00    -0.073 C 
ATOM    121  H98 MLE d   1      -2.984  -0.951  12.858  0.00  0.00     0.028 H 
ATOM    122  H99 MLE d   1      -3.783   0.402  13.730  0.00  0.00     0.028 H 
ATOM    123 0H10 MLE d   1      -2.809  -0.803  14.639  0.00  0.00     0.028 H 
ENDBRANCH 114 120
ENDBRANCH 111 114
ENDBRANCH  31 111
BRANCH  30 124
ATOM    124  CN  MLE d   1       0.951   0.433  11.191  0.00  0.00    -0.015 C 
ATOM    125  H88 MLE d   1       1.801  -0.264  11.219  0.00  0.00     0.056 H 
ATOM    126  H89 MLE d   1       0.908   0.997  12.134  0.00  0.00     0.056 H 
ATOM    127  H90 MLE d   1       1.077   1.132  10.351  0.00  0.00     0.056 H 
ENDBRANCH  30 124
BRANCH  18 128
ATOM    128  CN  MLE d   1      -1.888  10.513  11.542  0.00  0.00    -0.015 C 
ATOM    129  H30 MLE d   1      -2.500  10.952  10.740  0.00  0.00     0.056 H 
ATOM    130  H31 MLE d   1      -2.260  10.858  12.518  0.00  0.00     0.056 H 
ATOM    131  H32 MLE d   1      -1.952   9.416  11.492  0.00  0.00     0.056 H 
ENDBRANCH  18 128
BRANCH  27 132
ATOM    132  CB  MLE d   1       0.835  -3.895  10.776  0.00  0.00    -0.035 C 
ATOM    133  H79 MLE d   1       0.386  -3.922   9.772  0.00  0.00     0.037 H 
ATOM    134  H80 MLE d   1       0.166  -4.396  11.491  0.00  0.00     0.037 H 
BRANCH 132 135
ATOM    135  CG  MLE d   1       2.186  -4.670  10.735  0.00  0.00    -0.059 C 
ATOM    136  H81 MLE d   1       2.638  -4.624  11.737  0.00  0.00     0.038 H 
BRANCH 135 137
ATOM    137  CD1 MLE d   1       1.923  -6.114  10.377  0.00  0.00    -0.073 C 
ATOM    138  H82 MLE d   1       2.875  -6.664  10.347  0.00  0.00     0.028 H 
ATOM    139  H83 MLE d   1       1.439  -6.165   9.390  0.00  0.00     0.028 H 
ATOM    140  H84 MLE d   1       1.263  -6.565  11.133  0.00  0.00     0.028 H 
ENDBRANCH 135 137
BRANCH 135 141
ATOM    141  CD2 MLE d   1       3.171  -4.104   9.746  0.00  0.00    -0.073 C 
ATOM    142  H85 MLE d   1       3.374  -3.051   9.992  0.00  0.00     0.028 H 
ATOM    143  H86 MLE d   1       2.750  -4.169   8.732  0.00  0.00     0.028 H 
ATOM    144  H87 MLE d   1       4.108  -4.679   9.792  0.00  0.00     0.028 H 
ENDBRANCH 135 141
ENDBRANCH 132 135
ENDBRANCH  27 132
BRANCH  19 145
ATOM    145  CB  MLE d   1       0.442  10.788  13.839  0.00  0.00    -0.035 C 
ATOM    146  H34 MLE d   1       1.268  10.266  14.344  0.00  0.00     0.037 H 
ATOM    147  H35 MLE d   1      -0.517  10.371  14.180  0.00  0.00     0.037 H 
BRANCH 145 148
ATOM    148  CG  MLE d   1       0.485  12.227  14.292  0.00  0.00    -0.059 C 
ATOM    149  H36 MLE d   1      -0.392  12.757  13.893  0.00  0.00     0.038 H 
BRANCH 148 150
ATOM    150  CD1 MLE d   1       0.462  12.260  15.819  0.00  0.00    -0.073 C 
ATOM    151  H37 MLE d   1       0.493  13.304  16.164  0.00  0.00     0.028 H 
ATOM    152  H38 MLE d   1       1.336  11.719  16.211  0.00  0.00     0.028 H 
ATOM    153  H39 MLE d   1      -0.459  11.781  16.182  0.00  0.00     0.028 H 
ENDBRANCH 148 150
BRANCH 148 154
ATOM    154  CD2 MLE d   1       1.741  12.923  13.829  0.00  0.00    -0.073 C 
ATOM    155  H40 MLE d   1       1.782  12.913  12.730  0.00  0.00     0.028 H 
ATOM    156  H41 MLE d   1       2.620  12.400  14.233  0.00  0.00     0.028 H 
ATOM    157  H42 MLE d   1       1.737  13.963  14.186  0.00  0.00     0.028 H 
ENDBRANCH 148 154
ENDBRANCH 145 148
ENDBRANCH  19 145
BRANCH  26 158
ATOM    158  CN  MLE d   1       0.551  -2.811  13.669  0.00  0.00    -0.015 C 
ATOM    159  H75 MLE d   1       1.002  -2.632  14.656  0.00  0.00     0.056 H 
ATOM    160  H76 MLE d   1       0.411  -3.892  13.521  0.00  0.00     0.056 H 
ATOM    161  H77 MLE d   1      -0.423  -2.304  13.613  0.00  0.00     0.056 H 
ENDBRANCH  26 158
BRANCH  51 162
ATOM    162  CB  DAL d   1       3.978  -2.810  14.681  0.00  0.00    -0.049 C 
ATOM    163  H72 DAL d   1       3.450  -3.757  14.495  0.00  0.00     0.030 H 
ATOM    164  H73 DAL d   1       4.285  -2.763  15.736  0.00  0.00     0.030 H 
ATOM    165  H74 DAL d   1       4.868  -2.754  14.037  0.00  0.00     0.030 H 
ENDBRANCH  51 162
BRANCH  39 166
ATOM    166  CB  VAL d   1       2.756   6.781  10.137  0.00  0.00    -0.033 C 
ATOM    167  H45 VAL d   1       3.707   7.278  10.380  0.00  0.00     0.042 H 
BRANCH 166 168
ATOM    168  CG1 VAL d   1       3.032   5.270   9.980  0.00  0.00    -0.071 C 
ATOM    169  H46 VAL d   1       3.742   5.111   9.155  0.00  0.00     0.028 H 
ATOM    170  H47 VAL d   1       2.090   4.746   9.759  0.00  0.00     0.028 H 
ATOM    171  H48 VAL d   1       3.460   4.877  10.914  0.00  0.00     0.028 H 
ENDBRANCH 166 168
BRANCH 166 172
ATOM    172  CG2 VAL d   1       2.228   7.369   8.825  0.00  0.00    -0.071 C 
ATOM    173  H49 VAL d   1       2.037   8.444   8.956  0.00  0.00     0.028 H 
ATOM    174  H50 VAL d   1       1.292   6.862   8.546  0.00  0.00     0.028 H 
ATOM    175  H51 VAL d   1       2.975   7.223   8.031  0.00  0.00     0.028 H 
ENDBRANCH 166 172
ENDBRANCH  39 166
BRANCH  22 176
ATOM    176  CN  MLE d   1       0.525   4.694  12.449  0.00  0.00    -0.015 C 
ATOM    177  H52 MLE d   1       0.339   5.164  11.472  0.00  0.00     0.056 H 
ATOM    178  H53 MLE d   1      -0.390   4.740  13.058  0.00  0.00     0.056 H 
ATOM    179  H54 MLE d   1       0.815   3.643  12.301  0.00  0.00     0.056 H 
ENDBRANCH  22 176
BRANCH  45 180
ATOM    180  CB  ALA d   1       4.682   1.711  16.828  0.00  0.00    -0.049 C 
ATOM    181  H67 ALA d   1       5.240   0.763  16.856  0.00  0.00     0.030 H 
ATOM    182  H68 ALA d   1       3.900   1.699  17.601  0.00  0.00     0.030 H 
ATOM    183  H69 ALA d   1       5.371   2.548  17.017  0.00  0.00     0.030 H 
ENDBRANCH  45 180
BRANCH  23 184
ATOM    184  CB  MLE d   1       0.798   4.839  15.410  0.00  0.00    -0.035 C 
ATOM    185  H56 MLE d   1       1.162   4.603  16.421  0.00  0.00     0.037 H 
ATOM    186  H57 MLE d   1       0.147   4.027  15.055  0.00  0.00     0.037 H 
BRANCH 184 187
ATOM    187  CG  MLE d   1      -0.032   6.100  15.495  0.00  0.00    -0.059 C 
ATOM    188  H58 MLE d   1      -0.387   6.307  14.475  0.00  0.00     0.038 H 
BRANCH 187 189
ATOM    189  CD1 MLE d   1      -1.259   5.892  16.361  0.00  0.00    -0.073 C 
ATOM    190  H59 MLE d   1      -1.841   6.825  16.403  0.00  0.00     0.028 H 
ATOM    191  H60 MLE d   1      -0.947   5.609  17.377  0.00  0.00     0.028 H 
ATOM    192  H61 MLE d   1      -1.880   5.092  15.931  0.00  0.00     0.028 H 
ENDBRANCH 187 189
BRANCH 187 193
ATOM    193  CD2 MLE d   1       0.736   7.330  15.941  0.00  0.00    -0.073 C 
ATOM    194  H62 MLE d   1       1.621   7.462  15.301  0.00  0.00     0.028 H 
ATOM    195  H63 MLE d   1       1.055   7.204  16.986  0.00  0.00     0.028 H 
ATOM    196  H64 MLE d   1       0.089   8.216  15.860  0.00  0.00     0.028 H 
ENDBRANCH 187 193
ENDBRANCH 184 187
ENDBRANCH  23 184
TORSDOF 40
