REMARK  16 active torsions:
REMARK  status: ('A' for Active; 'I' for Inactive)
REMARK    1  A    between atoms: CAA_1  and  CAP_2 
REMARK    2  A    between atoms: CAP_2  and  CAQ_3 
REMARK    3  A    between atoms: CAQ_3  and  CAR_4 
REMARK    4  A    between atoms: CAR_4  and  CAS_5 
REMARK    5  A    between atoms: CAS_5  and  CAT_6 
REMARK    6  A    between atoms: CAT_6  and  CAU_7 
REMARK    7  A    between atoms: CAU_7  and  CAV_8 
REMARK    8  A    between atoms: CAV_8  and  CAW_9 
REMARK    9  A    between atoms: CAW_9  and  CAX_10 
REMARK   10  A    between atoms: CAX_10  and  OAZ_11 
REMARK   11  A    between atoms: OAZ_11  and  CBC_12 
REMARK   12  A    between atoms: NBG_15  and  CAY_16 
REMARK   13  A    between atoms: CAY_16  and  CBF_17 
REMARK   14  A    between atoms: CBF_17  and  PBI_18 
REMARK   15  A    between atoms: CBF_17  and  PBH_22 
REMARK   16  A    between atoms: CBE_27  and  CBD_28 
ROOT
ATOM      1  CBC H86 d   1      30.254  48.143  10.133  0.00  0.00     0.065 A 
ATOM      2  CAM H86 d   1      29.550  47.658  11.227  0.00  0.00    -0.041 A 
ATOM      3  CAN H86 d   1      30.333  47.394   8.963  0.00  0.00     0.038 A 
ATOM      4  NBG H86 d   1      29.693  46.150   8.892  0.00  0.00    -0.381 N 
ATOM      5  CAO H86 d   1      28.986  45.663   9.998  0.00  0.00    -0.014 A 
ATOM      6  CBE H86 d   1      28.927  46.417  11.164  0.00  0.00    -0.008 A 
ATOM      7  H22 H86 d   1      29.486  48.252  12.138  0.00  0.00     0.088 H 
ATOM      8  H23 H86 d   1      31.401  47.215   8.770  0.00  0.00     0.074 H 
ATOM      9  H24 H86 d   1      29.914  48.015   8.158  0.00  0.00     0.074 H 
ATOM     10  H28 H86 d   1      28.485  44.698   9.945  0.00  0.00     0.112 H 
ENDROOT
BRANCH   1  11
ATOM     11  OAZ H86 d   1      30.908  49.329  10.257  0.00  0.00    -0.354 OA
BRANCH  11  12
ATOM     12  CAX H86 d   1      31.146  49.910   8.969  0.00  0.00     0.026 C 
ATOM     13  H20 H86 d   1      31.952  49.366   8.455  0.00  0.00     0.075 H 
ATOM     14  H21 H86 d   1      30.229  49.866   8.363  0.00  0.00     0.075 H 
BRANCH  12  15
ATOM     15  CAW H86 d   1      31.557  51.366   9.188  0.00  0.00    -0.045 C 
ATOM     16  H18 H86 d   1      31.779  51.825   8.213  0.00  0.00     0.036 H 
ATOM     17  H19 H86 d   1      30.725  51.904   9.665  0.00  0.00     0.036 H 
BRANCH  15  18
ATOM     18  CAV H86 d   1      32.794  51.473  10.080  0.00  0.00    -0.063 C 
ATOM     19  H16 H86 d   1      33.087  52.530  10.164  0.00  0.00     0.033 H 
ATOM     20  H17 H86 d   1      32.554  51.078  11.078  0.00  0.00     0.033 H 
BRANCH  18  21
ATOM     21  CAU H86 d   1      33.960  50.675   9.493  0.00  0.00    -0.065 C 
ATOM     22  H14 H86 d   1      34.109  49.758  10.082  0.00  0.00     0.033 H 
ATOM     23  H15 H86 d   1      33.732  50.408   8.451  0.00  0.00     0.033 H 
BRANCH  21  24
ATOM     24  CAT H86 d   1      35.235  51.518   9.534  0.00  0.00    -0.065 C 
ATOM     25  H12 H86 d   1      36.102  50.869   9.339  0.00  0.00     0.033 H 
ATOM     26  H13 H86 d   1      35.177  52.296   8.758  0.00  0.00     0.033 H 
BRANCH  24  27
ATOM     27  CAS H86 d   1      35.407  52.185  10.900  0.00  0.00    -0.065 C 
ATOM     28  H10 H86 d   1      34.549  52.847  11.090  0.00  0.00     0.033 H 
ATOM     29  H11 H86 d   1      35.451  51.409  11.679  0.00  0.00     0.033 H 
BRANCH  27  30
ATOM     30  CAR H86 d   1      36.696  53.008  10.935  0.00  0.00    -0.065 C 
ATOM     31  H8  H86 d   1      37.558  52.326  10.898  0.00  0.00     0.033 H 
ATOM     32  H9  H86 d   1      36.719  53.676  10.062  0.00  0.00     0.033 H 
BRANCH  30  33
ATOM     33  CAQ H86 d   1      36.780  53.849  12.209  0.00  0.00    -0.065 C 
ATOM     34  H6  H86 d   1      35.933  54.551  12.233  0.00  0.00     0.033 H 
ATOM     35  H7  H86 d   1      36.730  53.184  13.084  0.00  0.00     0.033 H 
BRANCH  33  36
ATOM     36  CAP H86 d   1      38.087  54.640  12.256  0.00  0.00    -0.069 C 
ATOM     37  H4  H86 d   1      38.196  55.210  11.321  0.00  0.00     0.032 H 
ATOM     38  H5  H86 d   1      38.056  55.335  13.108  0.00  0.00     0.032 H 
BRANCH  36  39
ATOM     39  CAA H86 d   1      39.290  53.708  12.416  0.00  0.00    -0.077 C 
ATOM     40  H1  H86 d   1      40.214  54.304  12.447  0.00  0.00     0.027 H 
ATOM     41  H2  H86 d   1      39.331  53.012  11.565  0.00  0.00     0.027 H 
ATOM     42  H3  H86 d   1      39.190  53.138  13.351  0.00  0.00     0.027 H 
ENDBRANCH  36  39
ENDBRANCH  33  36
ENDBRANCH  30  33
ENDBRANCH  27  30
ENDBRANCH  24  27
ENDBRANCH  21  24
ENDBRANCH  18  21
ENDBRANCH  15  18
ENDBRANCH  12  15
ENDBRANCH  11  12
ENDBRANCH   1  11
BRANCH   6  43
ATOM     43  CBD H86 d   1      28.332  45.885  12.300  0.00  0.00    -0.019 A 
ATOM     44  CAK H86 d   1      28.366  44.509  12.492  0.00  0.00    -0.035 A 
ATOM     45  CBA H86 d   1      27.890  43.965  13.678  0.00  0.00     0.120 A 
ATOM     46  H29 H86 d   1      28.763  43.862  11.718  0.00  0.00     0.089 H 
ATOM     47  FAH H86 d   1      27.969  42.636  13.884  0.00  0.00    -0.206 F 
ATOM     48  CAJ H86 d   1      27.371  44.793  14.665  0.00  0.00    -0.009 A 
ATOM     49  CBB H86 d   1      27.334  46.168  14.465  0.00  0.00     0.120 A 
ATOM     50  H30 H86 d   1      26.996  44.368  15.589  0.00  0.00     0.092 H 
ATOM     51  FAI H86 d   1      26.857  46.966  15.440  0.00  0.00    -0.206 F 
ATOM     52  CAL H86 d   1      27.813  46.721  13.283  0.00  0.00    -0.035 A 
ATOM     53  H31 H86 d   1      27.782  47.794  13.129  0.00  0.00     0.089 H 
ENDBRANCH   6  43
BRANCH   4  54
ATOM     54  CAY H86 d   1      29.813  45.309   7.679  0.00  0.00     0.022 C 
ATOM     55  H25 H86 d   1      29.282  44.362   7.854  0.00  0.00     0.066 H 
ATOM     56  H26 H86 d   1      30.878  45.104   7.497  0.00  0.00     0.066 H 
BRANCH  54  57
ATOM     57  CBF H86 d   1      29.223  45.979   6.435  0.00  0.00     0.177 C 
ATOM     58  H27 H86 d   1      29.605  47.010   6.396  0.00  0.00     0.086 H 
BRANCH  57  59
ATOM     59  PBI H86 d   1      29.763  45.103   4.911  0.00  0.00     0.279 P 
ATOM     60  OAF H86 d   1      28.897  45.720   3.698  0.00  0.00    -0.639 OA
ATOM     61  OAG H86 d   1      31.285  45.529   4.618  0.00  0.00    -0.639 OA
ATOM     62  OAC H86 d   1      29.576  43.643   5.064  0.00  0.00    -0.639 OA
ENDBRANCH  57  59
BRANCH  57  63
ATOM     63  PBH H86 d   1      27.387  46.055   6.482  0.00  0.00     0.279 P 
ATOM     64  OAD H86 d   1      26.794  44.567   6.306  0.00  0.00    -0.639 OA
ATOM     65  OAE H86 d   1      26.947  46.473   7.972  0.00  0.00    -0.639 OA
ATOM     66  OAB H86 d   1      26.886  47.001   5.460  0.00  0.00    -0.639 OA
ENDBRANCH  57  63
ENDBRANCH  54  57
ENDBRANCH   4  54
TORSDOF 16
