REMARK  11 active torsions:
REMARK  status: ('A' for Active; 'I' for Inactive)
REMARK    1  A    between atoms: C1_1  and  N24_12 
REMARK    2  A    between atoms: N13_8  and  C20_10 
REMARK    3  A    between atoms: C20_10  and  C21_11 
REMARK    4  A    between atoms: C20_10  and  C36_18 
REMARK    5  A    between atoms: C21_11  and  C26_13 
REMARK    6  A    between atoms: C26_13  and  C28_14 
REMARK    7  A    between atoms: C28_14  and  C30_15 
REMARK    8  A    between atoms: C30_15  and  C31_16 
REMARK    9  A    between atoms: C31_16  and  C34_17 
REMARK   10  A    between atoms: C36_18  and  O38_19 
REMARK   11  A    between atoms: C36_18  and  C40_20 
ROOT
ATOM      1  C20 EH9 d   1      11.606  17.134  22.408  0.00  0.00     0.044 C 
ATOM      2  H3  EH9 d   1      11.731  17.222  23.497  0.00  0.00     0.077 H 
ENDROOT
BRANCH   1   3
ATOM      3  N13 EH9 d   1      11.492  15.666  22.235  0.00  0.00    -0.317 N 
ATOM      4  C3  EH9 d   1      11.317  14.844  21.158  0.00  0.00     0.165 A 
ATOM      5  C2  EH9 d   1      11.289  13.541  21.669  0.00  0.00     0.149 A 
ATOM      6  N4  EH9 d   1      11.189  15.142  19.832  0.00  0.00    -0.222 NA
ATOM      7  C1  EH9 d   1      11.128  12.493  20.806  0.00  0.00     0.155 A 
ATOM      8  N15 EH9 d   1      11.429  13.578  22.982  0.00  0.00    -0.236 NA
ATOM      9  N6  EH9 d   1      10.999  12.805  19.473  0.00  0.00    -0.222 NA
ATOM     10  C5  EH9 d   1      11.030  14.077  19.018  0.00  0.00     0.091 A 
ATOM     11  H1  EH9 d   1      10.922  14.250  17.953  0.00  0.00     0.146 H 
ATOM     12  C14 EH9 d   1      11.514  14.878  23.339  0.00  0.00     0.069 A 
ATOM     13  H2  EH9 d   1      11.589  15.240  24.363  0.00  0.00     0.143 H 
BRANCH   7  14
ATOM     14  N24 EH9 d   1      11.092  11.199  21.203  0.00  0.00    -0.382 N 
ATOM     15  H6  EH9 d   1      10.968  10.450  20.507  0.00  0.00     0.157 HD
ATOM     16  H7  EH9 d   1      11.188  10.964  22.201  0.00  0.00     0.157 HD
ENDBRANCH   7  14
ENDBRANCH   1   3
BRANCH   1  17
ATOM     17  C21 EH9 d   1      10.305  17.931  22.190  0.00  0.00    -0.043 C 
ATOM     18  H4  EH9 d   1      10.528  18.999  22.327  0.00  0.00     0.036 H 
ATOM     19  H5  EH9 d   1       9.572  17.609  22.945  0.00  0.00     0.036 H 
BRANCH  17  20
ATOM     20  C26 EH9 d   1       9.685  17.746  20.814  0.00  0.00    -0.063 C 
ATOM     21  H8  EH9 d   1       9.539  16.665  20.671  0.00  0.00     0.033 H 
ATOM     22  H9  EH9 d   1      10.416  18.117  20.080  0.00  0.00     0.033 H 
BRANCH  20  23
ATOM     23  C28 EH9 d   1       8.360  18.418  20.498  0.00  0.00    -0.065 C 
ATOM     24  H10 EH9 d   1       8.498  19.506  20.417  0.00  0.00     0.033 H 
ATOM     25  H11 EH9 d   1       7.627  18.199  21.288  0.00  0.00     0.033 H 
BRANCH  23  26
ATOM     26  C30 EH9 d   1       7.876  17.843  19.152  0.00  0.00    -0.065 C 
ATOM     27  H12 EH9 d   1       8.478  18.284  18.344  0.00  0.00     0.033 H 
ATOM     28  H13 EH9 d   1       6.819  18.114  19.012  0.00  0.00     0.033 H 
BRANCH  26  29
ATOM     29  C31 EH9 d   1       8.006  16.297  19.082  0.00  0.00    -0.069 C 
ATOM     30  H14 EH9 d   1       8.167  15.921  20.103  0.00  0.00     0.032 H 
ATOM     31  H15 EH9 d   1       8.881  16.055  18.460  0.00  0.00     0.032 H 
BRANCH  29  32
ATOM     32  C34 EH9 d   1       6.794  15.575  18.496  0.00  0.00    -0.077 C 
ATOM     33  H16 EH9 d   1       6.981  14.491  18.489  0.00  0.00     0.027 H 
ATOM     34  H17 EH9 d   1       6.621  15.924  17.467  0.00  0.00     0.027 H 
ATOM     35  H18 EH9 d   1       5.907  15.790  19.110  0.00  0.00     0.027 H 
ENDBRANCH  29  32
ENDBRANCH  26  29
ENDBRANCH  23  26
ENDBRANCH  20  23
ENDBRANCH  17  20
ENDBRANCH   1  17
BRANCH   1  36
ATOM     36  C36 EH9 d   1      12.910  17.748  21.908  0.00  0.00     0.052 C 
ATOM     37  H19 EH9 d   1      12.797  18.811  22.167  0.00  0.00     0.085 H 
BRANCH  36  38
ATOM     38  O38 EH9 d   1      13.961  17.319  22.734  0.00  0.00    -0.394 OA
ATOM     39  H20 EH9 d   1      14.019  16.371  22.704  0.00  0.00     0.210 HD
ENDBRANCH  36  38
BRANCH  36  40
ATOM     40  C40 EH9 d   1      13.190  17.830  20.408  0.00  0.00    -0.051 C 
ATOM     41  H21 EH9 d   1      14.171  18.299  20.243  0.00  0.00     0.031 H 
ATOM     42  H22 EH9 d   1      12.409  18.433  19.922  0.00  0.00     0.031 H 
ATOM     43  H23 EH9 d   1      13.192  16.817  19.979  0.00  0.00     0.031 H 
ENDBRANCH  36  40
ENDBRANCH   1  36
TORSDOF 11
