REMARK  12 active torsions:
REMARK  status: ('A' for Active; 'I' for Inactive)
REMARK    1  A    between atoms: C2_1  and  C7_3 
REMARK    2  A    between atoms: C2_1  and  N13_14 
REMARK    3  A    between atoms: N13_14  and  C6_2 
REMARK    4  A    between atoms: C6_2  and  C22_16 
REMARK    5  A    between atoms: C7_3  and  C8_4 
REMARK    6  A    between atoms: C8_4  and  P14_6 
REMARK    7  A    between atoms: C8_4  and  P9_9 
REMARK    8  A    between atoms: C8_4  and  O13_13 
REMARK    9  A    between atoms: N13_14  and  C21_15 
REMARK   10  A    between atoms: C22_16  and  C26_17 
REMARK   11  A    between atoms: C26_17  and  C27_18 
REMARK   12  A    between atoms: C27_18  and  C28_19 
ROOT
ATOM      1  C6  GG3 d   1      30.928  48.410   9.383  0.00  0.00     0.083 C 
ATOM      2  H3  GG3 d   1      31.442  48.323  10.351  0.00  0.00     0.075 H 
ATOM      3  H4  GG3 d   1      30.565  49.440   9.252  0.00  0.00     0.075 H 
ENDROOT
BRANCH   1   4
ATOM      4  N13 GG3 d   1      29.784  47.488   9.360  0.00  0.00    -0.075 N 
ATOM      5  H8  GG3 d   1      30.091  46.569   9.637  0.00  0.00     0.279 HD
BRANCH   4   6
ATOM      6  C2  GG3 d   1      29.202  47.427   8.012  0.00  0.00     0.087 C 
ATOM      7  H1  GG3 d   1      28.106  47.484   8.089  0.00  0.00     0.076 H 
ATOM      8  H2  GG3 d   1      29.573  48.277   7.420  0.00  0.00     0.076 H 
BRANCH   6   9
ATOM      9  C7  GG3 d   1      29.588  46.122   7.313  0.00  0.00     0.012 C 
ATOM     10  H5  GG3 d   1      29.166  45.262   7.854  0.00  0.00     0.042 H 
ATOM     11  H6  GG3 d   1      30.683  46.025   7.267  0.00  0.00     0.042 H 
BRANCH   9  12
ATOM     12  C8  GG3 d   1      29.004  46.197   5.901  0.00  0.00     0.286 C 
BRANCH  12  13
ATOM     13  P14 GG3 d   1      29.863  44.997   4.762  0.00  0.00     0.310 P 
ATOM     14  O16 GG3 d   1      29.310  43.519   5.077  0.00  0.00    -0.637 OA
ATOM     15  O17 GG3 d   1      29.334  45.420   3.299  0.00  0.00    -0.637 OA
ATOM     16  O15 GG3 d   1      31.339  45.076   4.852  0.00  0.00    -0.637 OA
ENDBRANCH  12  13
BRANCH  12  17
ATOM     17  P9  GG3 d   1      27.162  45.894   5.923  0.00  0.00     0.310 P 
ATOM     18  O11 GG3 d   1      26.924  44.387   6.439  0.00  0.00    -0.637 OA
ATOM     19  O10 GG3 d   1      26.715  45.916   4.375  0.00  0.00    -0.637 OA
ATOM     20  O12 GG3 d   1      26.421  46.907   6.708  0.00  0.00    -0.637 OA
ENDBRANCH  12  17
BRANCH  12  21
ATOM     21  O13 GG3 d   1      29.263  47.512   5.403  0.00  0.00    -0.365 OA
ATOM     22  H7  GG3 d   1      28.923  47.587   4.519  0.00  0.00     0.212 HD
ENDBRANCH  12  21
ENDBRANCH   9  12
ENDBRANCH   6   9
ENDBRANCH   4   6
BRANCH   4  23
ATOM     23  C21 GG3 d   1      28.747  47.966  10.287  0.00  0.00     0.066 C 
ATOM     24  H9  GG3 d   1      27.892  47.275  10.268  0.00  0.00     0.068 H 
ATOM     25  H10 GG3 d   1      28.415  48.969   9.980  0.00  0.00     0.068 H 
ATOM     26  H11 GG3 d   1      29.159  48.012  11.306  0.00  0.00     0.068 H 
ENDBRANCH   4  23
ENDBRANCH   1   4
BRANCH   1  27
ATOM     27  C22 GG3 d   1      31.913  48.077   8.259  0.00  0.00    -0.042 C 
ATOM     28  H12 GG3 d   1      31.482  48.391   7.297  0.00  0.00     0.035 H 
ATOM     29  H13 GG3 d   1      32.091  46.992   8.245  0.00  0.00     0.035 H 
BRANCH  27  30
ATOM     30  C26 GG3 d   1      33.244  48.801   8.473  0.00  0.00    -0.060 C 
ATOM     31  H14 GG3 d   1      33.911  48.574   7.628  0.00  0.00     0.033 H 
ATOM     32  H15 GG3 d   1      33.699  48.439   9.407  0.00  0.00     0.033 H 
BRANCH  30  33
ATOM     33  C27 GG3 d   1      33.065  50.318   8.567  0.00  0.00    -0.041 C 
ATOM     34  H16 GG3 d   1      32.334  50.550   9.356  0.00  0.00     0.040 H 
ATOM     35  H17 GG3 d   1      32.698  50.701   7.604  0.00  0.00     0.040 H 
BRANCH  33  36
ATOM     36  C28 GG3 d   1      34.401  50.986   8.902  0.00  0.00    -0.058 A 
ATOM     37  C33 GG3 d   1      34.575  51.612  10.130  0.00  0.00    -0.077 A 
ATOM     38  C32 GG3 d   1      35.810  52.160  10.463  0.00  0.00    -0.082 A 
ATOM     39  H18 GG3 d   1      33.749  51.674  10.829  0.00  0.00     0.084 H 
ATOM     40  C31 GG3 d   1      36.869  52.084   9.566  0.00  0.00    -0.083 A 
ATOM     41  H19 GG3 d   1      35.946  52.646  11.422  0.00  0.00     0.083 H 
ATOM     42  C30 GG3 d   1      36.693  51.463   8.334  0.00  0.00    -0.082 A 
ATOM     43  H20 GG3 d   1      37.832  52.509   9.826  0.00  0.00     0.083 H 
ATOM     44  C29 GG3 d   1      35.459  50.915   8.002  0.00  0.00    -0.077 A 
ATOM     45  H21 GG3 d   1      37.518  51.406   7.633  0.00  0.00     0.083 H 
ATOM     46  H22 GG3 d   1      35.322  50.432   7.041  0.00  0.00     0.084 H 
ENDBRANCH  33  36
ENDBRANCH  30  33
ENDBRANCH  27  30
ENDBRANCH   1  27
TORSDOF 12
