REMARK  18 active torsions:
REMARK  status: ('A' for Active; 'I' for Inactive)
REMARK    1  A    between atoms: CAA_1  and  CAJ_2 
REMARK    2  A    between atoms: CAJ_2  and  CAK_3 
REMARK    3  A    between atoms: CAK_3  and  CAL_4 
REMARK    4  A    between atoms: CAL_4  and  CAM_5 
REMARK    5  A    between atoms: CAM_5  and  CAN_6 
REMARK    6  A    between atoms: CAN_6  and  CAO_7 
REMARK    7  A    between atoms: CAO_7  and  CAP_8 
REMARK    8  A    between atoms: CAP_8  and  CAQ_9 
REMARK    9  A    between atoms: CAQ_9  and  CAR_10 
REMARK   10  A    between atoms: CAR_10  and  CAS_11 
REMARK   11  A    between atoms: CAS_11  and  CAT_12 
REMARK   12  A    between atoms: CAT_12  and  PAY_13 
REMARK   13  A    between atoms: PAY_13  and  CAB_14 
REMARK   14  A    between atoms: PAY_13  and  CAC_15 
REMARK   15  A    between atoms: PAY_13  and  CAU_16 
REMARK   16  A    between atoms: CAU_16  and  CAV_17 
REMARK   17  A    between atoms: CAV_17  and  PAX_18 
REMARK   18  A    between atoms: CAV_17  and  PAW_22 
ROOT
ATOM      1  CAR 742 d   1      32.597  50.565   9.285  0.00  0.00    -0.065 C 
ATOM      2  H20 742 d   1      32.319  51.368   8.586  0.00  0.00     0.033 H 
ATOM      3  H21 742 d   1      32.194  50.791  10.283  0.00  0.00     0.033 H 
ENDROOT
BRANCH   1   4
ATOM      4  CAQ 742 d   1      34.123  50.469   9.365  0.00  0.00    -0.065 C 
ATOM      5  H18 742 d   1      34.387  49.491   9.793  0.00  0.00     0.033 H 
ATOM      6  H19 742 d   1      34.529  50.544   8.345  0.00  0.00     0.033 H 
BRANCH   4   7
ATOM      7  CAP 742 d   1      34.767  51.561  10.223  0.00  0.00    -0.065 C 
ATOM      8  H16 742 d   1      34.527  52.551   9.809  0.00  0.00     0.033 H 
ATOM      9  H17 742 d   1      34.392  51.495  11.255  0.00  0.00     0.033 H 
BRANCH   7  10
ATOM     10  CAO 742 d   1      36.281  51.343  10.205  0.00  0.00    -0.065 C 
ATOM     11  H14 742 d   1      36.477  50.266  10.315  0.00  0.00     0.033 H 
ATOM     12  H15 742 d   1      36.669  51.690   9.236  0.00  0.00     0.033 H 
BRANCH  10  13
ATOM     13  CAN 742 d   1      37.027  52.084  11.316  0.00  0.00    -0.065 C 
ATOM     14  H12 742 d   1      36.599  51.799  12.289  0.00  0.00     0.033 H 
ATOM     15  H13 742 d   1      38.090  51.802  11.286  0.00  0.00     0.033 H 
BRANCH  13  16
ATOM     16  CAM 742 d   1      36.907  53.598  11.142  0.00  0.00    -0.065 C 
ATOM     17  H10 742 d   1      37.187  53.862  10.111  0.00  0.00     0.033 H 
ATOM     18  H11 742 d   1      35.865  53.897  11.327  0.00  0.00     0.033 H 
BRANCH  16  19
ATOM     19  CAL 742 d   1      37.818  54.350  12.111  0.00  0.00    -0.065 C 
ATOM     20  H8  742 d   1      37.699  53.946  13.127  0.00  0.00     0.033 H 
ATOM     21  H9  742 d   1      38.867  54.246  11.796  0.00  0.00     0.033 H 
BRANCH  19  22
ATOM     22  CAK 742 d   1      37.411  55.822  12.086  0.00  0.00    -0.065 C 
ATOM     23  H6  742 d   1      37.443  56.178  11.046  0.00  0.00     0.033 H 
ATOM     24  H7  742 d   1      36.385  55.910  12.473  0.00  0.00     0.033 H 
BRANCH  22  25
ATOM     25  CAJ 742 d   1      38.331  56.702  12.933  0.00  0.00    -0.069 C 
ATOM     26  H4  742 d   1      38.401  56.288  13.950  0.00  0.00     0.032 H 
ATOM     27  H5  742 d   1      39.333  56.730  12.479  0.00  0.00     0.032 H 
BRANCH  25  28
ATOM     28  CAA 742 d   1      37.759  58.119  12.996  0.00  0.00    -0.077 C 
ATOM     29  H1  742 d   1      38.419  58.754  13.605  0.00  0.00     0.027 H 
ATOM     30  H2  742 d   1      36.757  58.090  13.450  0.00  0.00     0.027 H 
ATOM     31  H3  742 d   1      37.689  58.532  11.979  0.00  0.00     0.027 H 
ENDBRANCH  25  28
ENDBRANCH  22  25
ENDBRANCH  19  22
ENDBRANCH  16  19
ENDBRANCH  13  16
ENDBRANCH  10  13
ENDBRANCH   7  10
ENDBRANCH   4   7
ENDBRANCH   1   4
BRANCH   1  32
ATOM     32  CAS 742 d   1      32.012  49.238   8.791  0.00  0.00    -0.062 C 
ATOM     33  H22 742 d   1      32.206  48.457   9.540  0.00  0.00     0.033 H 
ATOM     34  H23 742 d   1      32.494  48.963   7.841  0.00  0.00     0.033 H 
BRANCH  32  35
ATOM     35  CAT 742 d   1      30.504  49.358   8.572  0.00  0.00    -0.049 C 
ATOM     36  H24 742 d   1      30.328  49.873   7.616  0.00  0.00     0.039 H 
ATOM     37  H25 742 d   1      30.076  49.952   9.393  0.00  0.00     0.039 H 
BRANCH  35  38
ATOM     38  PAY 742 d   1      29.671  47.751   8.525  0.00  0.00    -0.144 P 
BRANCH  38  39
ATOM     39  CAB 742 d   1      28.154  47.990   9.447  0.00  0.00    -0.059 C 
ATOM     40  H26 742 d   1      27.584  47.049   9.465  0.00  0.00     0.033 H 
ATOM     41  H27 742 d   1      27.552  48.774   8.965  0.00  0.00     0.033 H 
ATOM     42  H28 742 d   1      28.395  48.293  10.477  0.00  0.00     0.033 H 
ENDBRANCH  38  39
BRANCH  38  43
ATOM     43  CAC 742 d   1      30.663  46.506   9.343  0.00  0.00    -0.059 C 
ATOM     44  H29 742 d   1      31.597  46.354   8.782  0.00  0.00     0.033 H 
ATOM     45  H30 742 d   1      30.103  45.560   9.385  0.00  0.00     0.033 H 
ATOM     46  H31 742 d   1      30.899  46.838  10.365  0.00  0.00     0.033 H 
ENDBRANCH  38  43
BRANCH  38  47
ATOM     47  CAU 742 d   1      29.313  47.296   6.807  0.00  0.00    -0.021 C 
ATOM     48  H32 742 d   1      30.209  47.474   6.194  0.00  0.00     0.042 H 
ATOM     49  H33 742 d   1      28.485  47.918   6.436  0.00  0.00     0.042 H 
BRANCH  47  50
ATOM     50  CAV 742 d   1      28.917  45.820   6.697  0.00  0.00     0.165 C 
ATOM     51  H34 742 d   1      29.362  45.283   7.548  0.00  0.00     0.084 H 
BRANCH  50  52
ATOM     52  PAX 742 d   1      27.089  45.599   6.764  0.00  0.00     0.277 P 
ATOM     53  OAH 742 d   1      26.667  45.825   8.300  0.00  0.00    -0.639 OA
ATOM     54  OAI 742 d   1      26.437  46.824   5.962  0.00  0.00    -0.639 OA
ATOM     55  OAE 742 d   1      26.705  44.262   6.258  0.00  0.00    -0.639 OA
ENDBRANCH  50  52
BRANCH  50  56
ATOM     56  PAW 742 d   1      29.566  45.086   5.139  0.00  0.00     0.277 P 
ATOM     57  OAF 742 d   1      29.107  43.549   5.056  0.00  0.00    -0.639 OA
ATOM     58  OAG 742 d   1      28.780  45.825   3.940  0.00  0.00    -0.639 OA
ATOM     59  OAD 742 d   1      31.036  45.232   5.023  0.00  0.00    -0.639 OA
ENDBRANCH  50  56
ENDBRANCH  47  50
ENDBRANCH  38  47
ENDBRANCH  35  38
ENDBRANCH  32  35
ENDBRANCH   1  32
TORSDOF 18
