REMARK  7 active torsions:
REMARK  status: ('A' for Active; 'I' for Inactive)
REMARK    1  A    between atoms: C25_2  and  N3_31 
REMARK    2  A    between atoms: C23_4  and  N4_34 
REMARK    3  A    between atoms: C22_5  and  O6_32 
REMARK    4  A    between atoms: C21_6  and  C26_7 
REMARK    5  A    between atoms: C21_6  and  N2_8 
REMARK    6  A    between atoms: O6_32  and  C27_33 
REMARK    7  A    between atoms: N4_34  and  C28_35 
ROOT
ATOM      1  O4  STU d   1      -0.162  -7.130  25.432  0.00  0.00    -0.333 OA
ATOM      2  C25 STU d   1      -1.489  -6.741  25.047  0.00  0.00     0.115 C 
ATOM      3  C24 STU d   1      -1.819  -7.120  23.564  0.00  0.00     0.005 C 
ATOM      4  C23 STU d   1      -0.616  -7.824  22.883  0.00  0.00     0.134 C 
ATOM      5  C22 STU d   1       0.696  -6.966  23.033  0.00  0.00     0.113 C 
ATOM      6  C21 STU d   1       0.990  -6.875  24.601  0.00  0.00     0.168 C 
ATOM      7  H1  STU d   1      -2.192  -7.300  25.682  0.00  0.00     0.118 H 
ATOM      8  H2  STU d   1      -2.062  -6.204  23.005  0.00  0.00     0.042 H 
ATOM      9  H3  STU d   1      -2.685  -7.798  23.551  0.00  0.00     0.042 H 
ATOM     10  H4  STU d   1      -0.453  -8.801  23.362  0.00  0.00     0.088 H 
ATOM     11  H5  STU d   1       1.545  -7.417  22.498  0.00  0.00     0.094 H 
ENDROOT
BRANCH   4  12
ATOM     12  N4  STU d   1      -0.966  -8.048  21.363  0.00  0.00    -0.072 N 
ATOM     13  H23 STU d   1      -0.118  -8.020  20.819  0.00  0.00     0.277 HD
ATOM     14  H24 STU d   1      -1.587  -7.317  21.054  0.00  0.00     0.277 HD
BRANCH  12  15
ATOM     15  C28 STU d   1      -1.630  -9.372  21.172  0.00  0.00     0.065 C 
ATOM     16  H25 STU d   1      -1.867  -9.513  20.107  0.00  0.00     0.067 H 
ATOM     17  H26 STU d   1      -2.558  -9.405  21.762  0.00  0.00     0.067 H 
ATOM     18  H27 STU d   1      -0.954 -10.173  21.506  0.00  0.00     0.067 H 
ENDBRANCH  12  15
ENDBRANCH   4  12
BRANCH   5  19
ATOM     19  O6  STU d   1       0.380  -5.655  22.496  0.00  0.00    -0.384 OA
BRANCH  19  20
ATOM     20  C27 STU d   1       1.395  -5.169  21.641  0.00  0.00     0.005 C 
ATOM     21  H20 STU d   1       1.110  -4.177  21.261  0.00  0.00     0.066 H 
ATOM     22  H21 STU d   1       1.526  -5.862  20.796  0.00  0.00     0.066 H 
ATOM     23  H22 STU d   1       2.339  -5.090  22.200  0.00  0.00     0.066 H 
ENDBRANCH  19  20
ENDBRANCH   5  19
BRANCH   2  24
ATOM     24  N3  STU d   1      -1.694  -5.307  25.323  0.00  0.00    -0.316 N 
ATOM     25  C19 STU d   1      -0.645  -4.361  25.524  0.00  0.00     0.077 A 
ATOM     26  C18 STU d   1       0.717  -4.446  25.381  0.00  0.00     0.077 A 
ATOM     27  C6  STU d   1      -1.306  -3.137  25.948  0.00  0.00     0.022 A 
ATOM     28  N2  STU d   1       1.597  -5.510  24.970  0.00  0.00    -0.308 N 
ATOM     29  C11 STU d   1       1.588  -3.280  25.648  0.00  0.00     0.015 A 
ATOM     30  C17 STU d   1       2.944  -5.044  24.973  0.00  0.00     0.049 A 
ATOM     31  C12 STU d   1       2.914  -3.651  25.405  0.00  0.00     0.004 A 
ATOM     32  C16 STU d   1       4.165  -5.631  24.658  0.00  0.00    -0.056 A 
ATOM     33  C13 STU d   1       4.119  -2.933  25.494  0.00  0.00    -0.070 A 
ATOM     34  C14 STU d   1       5.342  -3.515  25.179  0.00  0.00    -0.082 A 
ATOM     35  H12 STU d   1       4.094  -1.898  25.817  0.00  0.00     0.084 H 
ATOM     36  C15 STU d   1       5.336  -4.906  24.750  0.00  0.00    -0.081 A 
ATOM     37  H11 STU d   1       6.266  -2.953  25.250  0.00  0.00     0.083 H 
ATOM     38  H10 STU d   1       6.275  -5.385  24.496  0.00  0.00     0.083 H 
ATOM     39  H9  STU d   1       4.197  -6.666  24.338  0.00  0.00     0.087 H 
ATOM     40  C10 STU d   1       0.936  -2.074  26.079  0.00  0.00    -0.010 A 
ATOM     41  C7  STU d   1      -0.382  -1.992  26.218  0.00  0.00     0.054 A 
ATOM     42  C9  STU d   1       1.591  -0.723  26.423  0.00  0.00     0.021 A 
ATOM     43  C8  STU d   1      -0.773  -0.621  26.663  0.00  0.00     0.253 A 
ATOM     44  N1  STU d   1       0.394   0.023  26.752  0.00  0.00    -0.353 N 
ATOM     45  O5  STU d   1      -1.881  -0.192  26.888  0.00  0.00    -0.268 OA
ATOM     46  H15 STU d   1       0.439   0.981  27.034  0.00  0.00     0.163 HD
ATOM     47  H13 STU d   1       2.124  -0.291  25.564  0.00  0.00     0.071 H 
ATOM     48  H14 STU d   1       2.278  -0.802  27.279  0.00  0.00     0.071 H 
ATOM     49  C5  STU d   1      -2.701  -3.361  25.988  0.00  0.00     0.004 A 
ATOM     50  C20 STU d   1      -2.910  -4.737  25.587  0.00  0.00     0.048 A 
ATOM     51  C4  STU d   1      -3.839  -2.590  26.300  0.00  0.00    -0.070 A 
ATOM     52  C1  STU d   1      -4.225  -5.316  25.507  0.00  0.00    -0.056 A 
ATOM     53  C2  STU d   1      -5.324  -4.494  25.830  0.00  0.00    -0.081 A 
ATOM     54  H16 STU d   1      -4.366  -6.349  25.209  0.00  0.00     0.087 H 
ATOM     55  C3  STU d   1      -5.121  -3.128  26.227  0.00  0.00    -0.082 A 
ATOM     56  H17 STU d   1      -6.330  -4.896  25.779  0.00  0.00     0.083 H 
ATOM     57  H18 STU d   1      -5.976  -2.509  26.473  0.00  0.00     0.083 H 
ATOM     58  H19 STU d   1      -3.713  -1.557  26.603  0.00  0.00     0.084 H 
ENDBRANCH   2  24
BRANCH   6  59
ATOM     59  C26 STU d   1       1.904  -8.055  24.941  0.00  0.00    -0.028 C 
ATOM     60  H6  STU d   1       2.836  -7.976  24.361  0.00  0.00     0.034 H 
ATOM     61  H7  STU d   1       1.395  -8.997  24.691  0.00  0.00     0.034 H 
ATOM     62  H8  STU d   1       2.139  -8.039  26.016  0.00  0.00     0.034 H 
ENDBRANCH   6  59
TORSDOF 7
