REMARK  7 active torsions:
REMARK  status: ('A' for Active; 'I' for Inactive)
REMARK    1  A    between atoms: C1_1  and  O1_10 
REMARK    2  A    between atoms: N2_9  and  C2_2 
REMARK    3  A    between atoms: C3_3  and  O3_11 
REMARK    4  A    between atoms: C4_4  and  O4_12 
REMARK    5  A    between atoms: C5_5  and  C6_6 
REMARK    6  A    between atoms: C6_6  and  O6_14 
REMARK    7  A    between atoms: C7_7  and  C8_8 
REMARK       I    between atoms: C7_7  and  N2_9 
ROOT
ATOM      1  C1  NON d   1      20.577  -8.902  41.939  0.00  0.00     0.151 C 
ATOM      2  C2  NON d   1      21.415  -7.643  41.554  0.00  0.00     0.086 C 
ATOM      3  C3  NON d   1      22.874  -7.900  41.919  0.00  0.00     0.086 C 
ATOM      4  C4  NON d   1      23.058  -8.456  43.358  0.00  0.00     0.089 C 
ATOM      5  C5  NON d   1      22.105  -9.627  43.634  0.00  0.00     0.089 C 
ATOM      6  O5  NON d   1      20.769  -9.235  43.302  0.00  0.00    -0.349 OA
ATOM      7  H1  NON d   1      20.836  -9.753  41.292  0.00  0.00     0.132 H 
ATOM      8  H2  NON d   1      21.047  -6.775  42.120  0.00  0.00     0.084 H 
ATOM      9  H3  NON d   1      23.239  -8.682  41.237  0.00  0.00     0.090 H 
ATOM     10  H4  NON d   1      24.084  -8.842  43.442  0.00  0.00     0.091 H 
ATOM     11  H5  NON d   1      22.397 -10.473  42.995  0.00  0.00     0.090 H 
ENDROOT
BRANCH   2  12
ATOM     12  N2  NON d   1      21.283  -7.363  40.111  0.00  0.00    -0.349 N 
ATOM     13  C7  NON d   1      21.136  -6.114  39.668  0.00  0.00     0.214 C 
ATOM     14  O7  NON d   1      21.100  -5.134  40.426  0.00  0.00    -0.274 OA
ATOM     15  H11 NON d   1      21.304  -8.120  39.457  0.00  0.00     0.163 HD
BRANCH  13  16
ATOM     16  C8  NON d   1      21.013  -5.986  38.181  0.00  0.00    -0.003 C 
ATOM     17  H8  NON d   1      20.896  -4.926  37.913  0.00  0.00     0.040 H 
ATOM     18  H9  NON d   1      20.134  -6.550  37.836  0.00  0.00     0.040 H 
ATOM     19  H10 NON d   1      21.918  -6.388  37.702  0.00  0.00     0.040 H 
ENDBRANCH  13  16
ENDBRANCH   2  12
BRANCH   1  20
ATOM     20  O1  NON d   1      19.237  -8.542  41.798  0.00  0.00    -0.369 OA
ATOM     21  H12 NON d   1      18.686  -9.274  42.048  0.00  0.00     0.212 HD
ENDBRANCH   1  20
BRANCH   3  22
ATOM     22  O3  NON d   1      23.671  -6.722  41.670  0.00  0.00    -0.391 OA
ATOM     23  H13 NON d   1      23.422  -6.038  42.281  0.00  0.00     0.210 HD
ENDBRANCH   3  22
BRANCH   4  24
ATOM     24  O4  NON d   1      22.912  -7.380  44.324  0.00  0.00    -0.390 OA
ATOM     25  H14 NON d   1      23.520  -6.681  44.112  0.00  0.00     0.210 HD
ENDBRANCH   4  24
BRANCH   5  26
ATOM     26  C6  NON d   1      22.170 -10.076  45.081  0.00  0.00     0.043 C 
ATOM     27  H6  NON d   1      21.367 -10.805  45.267  0.00  0.00     0.078 H 
ATOM     28  H7  NON d   1      22.030  -9.202  45.734  0.00  0.00     0.078 H 
BRANCH  26  29
ATOM     29  O6  NON d   1      23.451 -10.694  45.383  0.00  0.00    -0.398 OA
ATOM     30  H15 NON d   1      23.464 -10.965  46.293  0.00  0.00     0.209 HD
ENDBRANCH  26  29
ENDBRANCH   5  26
TORSDOF 7
