REMARK  4 active torsions:
REMARK  status: ('A' for Active; 'I' for Inactive)
REMARK    1  A    between atoms: OAB_1  and  CAT_2 
REMARK    2  A    between atoms: CAW_19  and  OAC_20 
REMARK    3  A    between atoms: CAX_28  and  CAK_29 
REMARK    4  A    between atoms: CAK_29  and  OAA_30 
ROOT
ATOM      1  CAT ENE d   1     -17.327   7.787 -37.919  0.00  0.00     0.079 C 
ATOM      2  CAG ENE d   1     -18.357   8.556 -37.140  0.00  0.00    -0.077 C 
ATOM      3  CAF ENE d   1     -17.986   9.442 -36.090  0.00  0.00    -0.102 C 
ATOM      4  CAM ENE d   1     -16.674   9.625 -35.742  0.00  0.00    -0.023 C 
ATOM      5  CAY ENE d   1     -16.337   8.815 -34.481  0.00  0.00     0.070 C 
ATOM      6  OAR ENE d   1     -17.465   8.989 -33.609  0.00  0.00    -0.374 OA
ATOM      7  CAZ ENE d   1     -17.017   8.686 -32.282  0.00  0.00     0.069 C 
ATOM      8  CAN ENE d   1     -17.577   9.666 -31.247  0.00  0.00    -0.012 C 
ATOM      9  CBB ENE d   1     -16.963   9.353 -29.880  0.00  0.00     0.069 C 
ATOM     10  OAS ENE d   1     -17.585  10.181 -28.887  0.00  0.00    -0.371 OA
ATOM     11  CBA ENE d   1     -17.077   9.982 -27.558  0.00  0.00     0.083 C 
ATOM     12  CAL ENE d   1     -17.868  11.027 -26.766  0.00  0.00    -0.073 C 
ATOM     13  CAE ENE d   1     -17.775  11.003 -25.386  0.00  0.00    -0.082 C 
ATOM     14  CAD ENE d   1     -17.236  10.075 -24.498  0.00  0.00    -0.062 C 
ATOM     15  CAJ ENE d   1     -16.627   8.844 -24.729  0.00  0.00     0.013 C 
ATOM     16  OAO ENE d   1     -16.366   8.283 -26.018  0.00  0.00    -0.352 OA
ATOM     17  CBC ENE d   1     -17.291   8.542 -27.092  0.00  0.00     0.099 C 
ATOM     18  CAW ENE d   1     -16.783   7.570 -28.137  0.00  0.00     0.091 C 
ATOM     19  CBD ENE d   1     -17.253   7.897 -29.560  0.00  0.00     0.091 C 
ATOM     20  OAQ ENE d   1     -16.562   7.061 -30.496  0.00  0.00    -0.369 OA
ATOM     21  CAV ENE d   1     -17.165   7.262 -31.782  0.00  0.00     0.080 C 
ATOM     22  CAI ENE d   1     -16.782   6.255 -32.690  0.00  0.00    -0.074 C 
ATOM     23  CAH ENE d   1     -16.411   6.291 -33.994  0.00  0.00    -0.074 C 
ATOM     24  CAU ENE d   1     -16.395   7.376 -34.916  0.00  0.00     0.080 C 
ATOM     25  OAP ENE d   1     -15.831   7.020 -36.181  0.00  0.00    -0.369 OA
ATOM     26  CAX ENE d   1     -16.824   6.570 -37.109  0.00  0.00     0.087 C 
ATOM     27  H   ENE d   1     -16.480   8.444 -38.166  0.00  0.00     0.093 H 
ATOM     28  H   ENE d   1     -19.411   8.432 -37.385  0.00  0.00     0.080 H 
ATOM     29  H   ENE d   1     -18.761   9.986 -35.552  0.00  0.00     0.076 H 
ATOM     30  H   ENE d   1     -16.497  10.693 -35.545  0.00  0.00     0.042 H 
ATOM     31  H   ENE d   1     -16.030   9.293 -36.569  0.00  0.00     0.042 H 
ATOM     32  H   ENE d   1     -15.379   9.097 -34.021  0.00  0.00     0.088 H 
ATOM     33  H   ENE d   1     -15.932   8.862 -32.312  0.00  0.00     0.087 H 
ATOM     34  H   ENE d   1     -18.671   9.560 -31.193  0.00  0.00     0.040 H 
ATOM     35  H   ENE d   1     -17.322  10.696 -31.538  0.00  0.00     0.040 H 
ATOM     36  H   ENE d   1     -15.878   9.533 -29.898  0.00  0.00     0.087 H 
ATOM     37  H   ENE d   1     -16.001  10.205 -27.512  0.00  0.00     0.093 H 
ATOM     38  H   ENE d   1     -18.485  11.767 -27.274  0.00  0.00     0.081 H 
ATOM     39  H   ENE d   1     -18.206  11.877 -24.901  0.00  0.00     0.083 H 
ATOM     40  H   ENE d   1     -17.302  10.359 -23.449  0.00  0.00     0.086 H 
ATOM     41  H   ENE d   1     -16.326   8.263 -23.859  0.00  0.00     0.122 H 
ATOM     42  H   ENE d   1     -18.340   8.362 -26.816  0.00  0.00     0.092 H 
ATOM     43  H   ENE d   1     -15.684   7.598 -28.122  0.00  0.00     0.091 H 
ATOM     44  H   ENE d   1     -18.335   7.715 -29.636  0.00  0.00     0.091 H 
ATOM     45  H   ENE d   1     -18.246   7.123 -31.633  0.00  0.00     0.093 H 
ATOM     46  H   ENE d   1     -16.784   5.254 -32.262  0.00  0.00     0.080 H 
ATOM     47  H   ENE d   1     -16.072   5.339 -34.400  0.00  0.00     0.080 H 
ATOM     48  H   ENE d   1     -17.460   7.361 -35.193  0.00  0.00     0.093 H 
ATOM     49  H   ENE d   1     -17.658   6.076 -36.590  0.00  0.00     0.091 H 
ENDROOT
BRANCH  26  50
ATOM     50  CAK ENE d   1     -16.121   5.609 -38.061  0.00  0.00     0.043 C 
ATOM     51  H   ENE d   1     -16.810   5.320 -38.868  0.00  0.00     0.078 H 
ATOM     52  H   ENE d   1     -15.804   4.711 -37.510  0.00  0.00     0.078 H 
BRANCH  50  53
ATOM     53  OAA ENE d   1     -14.973   6.259 -38.620  0.00  0.00    -0.398 OA
ATOM     54  H   ENE d   1     -14.380   6.508 -37.921  0.00  0.00     0.209 HD
ENDBRANCH  50  53
ENDBRANCH  26  50
BRANCH   1  55
ATOM     55  OAB ENE d   1     -17.946   7.304 -39.118  0.00  0.00    -0.389 OA
ATOM     56  H   ENE d   1     -17.310   6.814 -39.626  0.00  0.00     0.210 HD
ENDBRANCH   1  55
BRANCH  18  57
ATOM     57  OAC ENE d   1     -17.226   6.238 -27.810  0.00  0.00    -0.390 OA
ATOM     58  H   ENE d   1     -16.887   5.993 -26.957  0.00  0.00     0.210 HD
ENDBRANCH  18  57
TORSDOF 4
