REMARK  10 active torsions:
REMARK  status: ('A' for Active; 'I' for Inactive)
REMARK    1  A    between atoms: C2A_7  and  CAA_11 
REMARK    2  A    between atoms: C3A_8  and  CMA_10 
REMARK    3  A    between atoms: C2B_14  and  CMB_17 
REMARK    4  A    between atoms: C3B_15  and  CAB_18 
REMARK    5  A    between atoms: C2C_22  and  CMC_25 
REMARK    6  A    between atoms: C3C_23  and  CAC_26 
REMARK    7  A    between atoms: C2D_30  and  CMD_33 
REMARK    8  A    between atoms: C3D_31  and  CAD_34 
REMARK    9  A    between atoms: CAD_34  and  CBD_35 
REMARK   10  A    between atoms: CBD_35  and  CGD_36 
ROOT
ATOM      1  CHA 7HE d   1     -20.289 -11.054   6.315  0.00  0.00    -0.026 C 
ATOM      2  CHB 7HE d   1     -19.703  -9.761  11.008  0.00  0.00    -0.026 C 
ATOM      3  CHC 7HE d   1     -18.487 -14.550  12.017  0.00  0.00    -0.026 C 
ATOM      4  CHD 7HE d   1     -18.590 -15.563   7.204  0.00  0.00    -0.026 A 
ATOM      5  NA  7HE d   1     -19.895 -10.787   8.741  0.00  0.00    -0.248 N 
ATOM      6  C1A 7HE d   1     -20.218 -10.260   7.539  0.00  0.00     0.066 A 
ATOM      7  C2A 7HE d   1     -20.485  -8.900   7.540  0.00  0.00    -0.025 A 
ATOM      8  C3A 7HE d   1     -20.322  -8.515   8.947  0.00  0.00    -0.025 A 
ATOM      9  C4A 7HE d   1     -19.961  -9.704   9.566  0.00  0.00     0.066 A 
ATOM     10  NB  7HE d   1     -18.999 -12.233  11.058  0.00  0.00    -0.248 N 
ATOM     11  C1B 7HE d   1     -19.397 -10.994  11.742  0.00  0.00     0.066 C 
ATOM     12  C2B 7HE d   1     -19.300 -11.030  13.136  0.00  0.00    -0.021 C 
ATOM     13  C3B 7HE d   1     -18.956 -12.422  13.465  0.00  0.00     0.000 C 
ATOM     14  C4B 7HE d   1     -18.880 -13.158  12.165  0.00  0.00     0.070 C 
ATOM     15  NC  7HE d   1     -18.661 -14.678   9.542  0.00  0.00    -0.248 N 
ATOM     16  C1C 7HE d   1     -18.364 -15.242  10.742  0.00  0.00     0.066 A 
ATOM     17  C2C 7HE d   1     -17.893 -16.536  10.701  0.00  0.00    -0.021 A 
ATOM     18  C3C 7HE d   1     -17.886 -16.812   9.268  0.00  0.00     0.000 A 
ATOM     19  C4C 7HE d   1     -18.347 -15.664   8.659  0.00  0.00     0.070 A 
ATOM     20  ND  7HE d   1     -19.452 -13.234   7.139  0.00  0.00    -0.248 N 
ATOM     21  C1D 7HE d   1     -19.125 -14.382   6.508  0.00  0.00     0.066 A 
ATOM     22  C2D 7HE d   1     -19.317 -14.393   5.123  0.00  0.00    -0.025 A 
ATOM     23  C3D 7HE d   1     -19.833 -13.059   4.805  0.00  0.00    -0.021 A 
ATOM     24  C4D 7HE d   1     -19.865 -12.427   6.136  0.00  0.00     0.066 A 
ATOM     25 FE   7HE d   1     -19.415 -12.758   9.176  0.00  0.00     0.000 Fe
ATOM     26  H1  7HE d   1     -20.705 -10.561   5.444  0.00  0.00     0.090 H 
ATOM     27  H2  7HE d   1     -19.741  -8.833  11.568  0.00  0.00     0.090 H 
ATOM     28  H3  7HE d   1     -18.270 -15.112  12.919  0.00  0.00     0.090 H 
ATOM     29  H4  7HE d   1     -18.354 -16.431   6.600  0.00  0.00     0.090 H 
ATOM     30  H30 7HE d   1     -21.171 -13.246   9.508  0.00  0.00     0.000 HD
ATOM     31  H31 7HE d   1     -17.659 -12.270   8.844  0.00  0.00     0.000 HD
ENDROOT
BRANCH  23  32
ATOM     32  CAD 7HE d   1     -20.175 -12.468   3.459  0.00  0.00    -0.029 C 
ATOM     33  H26 7HE d   1     -19.827 -13.155   2.674  0.00  0.00     0.041 H 
ATOM     34  H27 7HE d   1     -19.658 -11.503   3.357  0.00  0.00     0.041 H 
BRANCH  32  35
ATOM     35  CBD 7HE d   1     -21.671 -12.241   3.281  0.00  0.00     0.019 C 
ATOM     36  H28 7HE d   1     -22.083 -11.718   4.157  0.00  0.00     0.049 H 
ATOM     37  H29 7HE d   1     -22.188 -13.203   3.152  0.00  0.00     0.049 H 
BRANCH  35  38
ATOM     38  CGD 7HE d   1     -21.833 -11.393   2.045  0.00  0.00     0.172 C 
ATOM     39  O1D 7HE d   1     -22.782 -11.671   1.274  0.00  0.00    -0.648 OA
ATOM     40  O2D 7HE d   1     -21.019 -10.458   1.817  0.00  0.00    -0.648 OA
ENDBRANCH  35  38
ENDBRANCH  32  35
ENDBRANCH  23  32
BRANCH  22  41
ATOM     41  CMD 7HE d   1     -19.046 -15.544   4.181  0.00  0.00    -0.048 C 
ATOM     42  H23 7HE d   1     -18.662 -16.402   4.752  0.00  0.00     0.033 H 
ATOM     43  H24 7HE d   1     -18.300 -15.238   3.433  0.00  0.00     0.033 H 
ATOM     44  H25 7HE d   1     -19.979 -15.830   3.673  0.00  0.00     0.033 H 
ENDBRANCH  22  41
BRANCH   7  45
ATOM     45  CAA 7HE d   1     -20.874  -8.025   6.369  0.00  0.00    -0.048 C 
ATOM     46  H8  7HE d   1     -20.905  -8.632   5.452  0.00  0.00     0.033 H 
ATOM     47  H9  7HE d   1     -20.134  -7.220   6.251  0.00  0.00     0.033 H 
ATOM     48  H10 7HE d   1     -21.866  -7.587   6.552  0.00  0.00     0.033 H 
ENDBRANCH   7  45
BRANCH  18  49
ATOM     49  CAC 7HE d   1     -17.479 -18.095   8.631  0.00  0.00    -0.079 C 
ATOM     50  CBC 7HE d   1     -16.297 -18.650   8.835  0.00  0.00    -0.120 C 
ATOM     51  H21 7HE d   1     -16.045 -19.590   8.346  0.00  0.00     0.066 H 
ATOM     52  H22 7HE d   1     -15.575 -18.167   9.492  0.00  0.00     0.066 H 
ATOM     53  H20 7HE d   1     -18.184 -18.596   7.970  0.00  0.00     0.083 H 
ENDBRANCH  18  49
BRANCH   8  54
ATOM     54  CMA 7HE d   1     -20.466  -7.139   9.557  0.00  0.00    -0.048 C 
ATOM     55  H5  7HE d   1     -20.767  -6.423   8.779  0.00  0.00     0.033 H 
ATOM     56  H6  7HE d   1     -19.504  -6.827   9.990  0.00  0.00     0.033 H 
ATOM     57  H7  7HE d   1     -21.232  -7.166  10.346  0.00  0.00     0.033 H 
ENDBRANCH   8  54
BRANCH  17  58
ATOM     58  CMC 7HE d   1     -17.474 -17.399  11.858  0.00  0.00    -0.048 C 
ATOM     59  H17 7HE d   1     -17.623 -16.849  12.799  0.00  0.00     0.033 H 
ATOM     60  H18 7HE d   1     -16.412 -17.663  11.752  0.00  0.00     0.033 H 
ATOM     61  H19 7HE d   1     -18.081 -18.316  11.870  0.00  0.00     0.033 H 
ENDBRANCH  17  58
BRANCH  12  62
ATOM     62  CMB 7HE d   1     -19.565  -9.914  14.130  0.00  0.00    -0.048 C 
ATOM     63  H11 7HE d   1     -19.797  -8.986  13.586  0.00  0.00     0.033 H 
ATOM     64  H12 7HE d   1     -18.673  -9.760  14.755  0.00  0.00     0.033 H 
ATOM     65  H13 7HE d   1     -20.417 -10.187  14.769  0.00  0.00     0.033 H 
ENDBRANCH  12  62
BRANCH  13  66
ATOM     66  CAB 7HE d   1     -18.762 -13.062  14.806  0.00  0.00    -0.079 C 
ATOM     67  CBB 7HE d   1     -18.952 -12.492  15.992  0.00  0.00    -0.120 C 
ATOM     68  H15 7HE d   1     -18.777 -13.061  16.904  0.00  0.00     0.066 H 
ATOM     69  H16 7HE d   1     -19.282 -11.456  16.052  0.00  0.00     0.066 H 
ATOM     70  H14 7HE d   1     -18.432 -14.100  14.809  0.00  0.00     0.083 H 
ENDBRANCH  13  66
TORSDOF 10
