REMARK  0 active torsions:
REMARK  status: ('A' for Active; 'I' for Inactive)
ROOT
ATOM      1  C1  BNZ d   1      21.320  -1.707  18.749  0.00  0.00    -0.083 A 
ATOM      2  C2  BNZ d   1      20.796  -2.976  18.171  0.00  0.00    -0.083 A 
ATOM      3  C3  BNZ d   1      19.529  -3.047  17.708  0.00  0.00    -0.083 A 
ATOM      4  C4  BNZ d   1      18.649  -1.846  17.775  0.00  0.00    -0.083 A 
ATOM      5  C5  BNZ d   1      19.122  -0.688  18.301  0.00  0.00    -0.083 A 
ATOM      6  C6  BNZ d   1      20.518  -0.613  18.811  0.00  0.00    -0.083 A 
ATOM      7  H1  BNZ d   1      22.338  -1.657  19.119  0.00  0.00     0.083 H 
ATOM      8  H2  BNZ d   1      21.436  -3.849  18.122  0.00  0.00     0.083 H 
ATOM      9  H3  BNZ d   1      19.154  -3.974  17.289  0.00  0.00     0.083 H 
ATOM     10  H4  BNZ d   1      17.632  -1.897  17.404  0.00  0.00     0.083 H 
ATOM     11  H5  BNZ d   1      18.481   0.185  18.350  0.00  0.00     0.083 H 
ATOM     12  H6  BNZ d   1      20.894   0.313  19.231  0.00  0.00     0.083 H 
ENDROOT
TORSDOF 0
