REMARK  6 active torsions:
REMARK  status: ('A' for Active; 'I' for Inactive)
REMARK    1  A    between atoms: N1_1  and  C1'_9 
REMARK    2  A    between atoms: C2'_10  and  O2'_11 
REMARK    3  A    between atoms: C3'_12  and  O3'_14 
REMARK    4  A    between atoms: C4'_13  and  C5'_16 
REMARK    5  A    between atoms: C5'_16  and  O5'_17 
REMARK    6  A    between atoms: O5'_17  and  P_18 
ROOT
ATOM      1  C1' U5P d   1     -37.488 -21.951  -6.536  0.00  0.00     0.141 C 
ATOM      2  C2' U5P d   1     -36.883 -20.580  -6.199  0.00  0.00     0.105 C 
ATOM      3  C3' U5P d   1     -35.693 -20.905  -5.312  0.00  0.00     0.091 C 
ATOM      4  C4' U5P d   1     -35.692 -22.421  -5.121  0.00  0.00     0.089 C 
ATOM      5  O4' U5P d   1     -37.016 -22.863  -5.514  0.00  0.00    -0.353 OA
ATOM      6  H4  U5P d   1     -37.104 -22.284  -7.511  0.00  0.00     0.123 H 
ATOM      7  H5  U5P d   1     -37.605 -19.955  -5.653  0.00  0.00     0.093 H 
ATOM      8  H7  U5P d   1     -35.794 -20.397  -4.341  0.00  0.00     0.091 H 
ATOM      9  H8  U5P d   1     -34.919 -22.904  -5.736  0.00  0.00     0.090 H 
ENDROOT
BRANCH   1  10
ATOM     10  N1  U5P d   1     -38.959 -21.890  -6.631  0.00  0.00    -0.280 N 
ATOM     11  C2  U5P d   1     -39.793 -22.087  -5.531  0.00  0.00     0.331 A 
ATOM     12  N3  U5P d   1     -41.146 -22.020  -5.690  0.00  0.00    -0.275 N 
ATOM     13  O2  U5P d   1     -39.346 -22.324  -4.422  0.00  0.00    -0.246 OA
ATOM     14  C4  U5P d   1     -41.705 -21.759  -6.915  0.00  0.00     0.250 A 
ATOM     15  H1  U5P d   1     -41.741 -22.164  -4.899  0.00  0.00     0.173 HD
ATOM     16  C5  U5P d   1     -40.864 -21.554  -8.053  0.00  0.00    -0.002 A 
ATOM     17  O4  U5P d   1     -42.910 -21.701  -7.037  0.00  0.00    -0.268 OA
ATOM     18  C6  U5P d   1     -39.510 -21.624  -7.886  0.00  0.00    -0.008 A 
ATOM     19  H2  U5P d   1     -41.294 -21.346  -9.032  0.00  0.00     0.094 H 
ATOM     20  H3  U5P d   1     -38.853 -21.471  -8.741  0.00  0.00     0.112 H 
ENDBRANCH   1  10
BRANCH   2  21
ATOM     21  O2' U5P d   1     -36.512 -19.926  -7.394  0.00  0.00    -0.388 OA
ATOM     22  H6  U5P d   1     -35.870 -20.452  -7.856  0.00  0.00     0.210 HD
ENDBRANCH   2  21
BRANCH   3  23
ATOM     23  O3' U5P d   1     -34.466 -20.497  -5.943  0.00  0.00    -0.390 OA
ATOM     24  H9  U5P d   1     -33.731 -20.746  -5.395  0.00  0.00     0.210 HD
ENDBRANCH   3  23
BRANCH   4  25
ATOM     25  C5' U5P d   1     -35.450 -22.704  -3.643  0.00  0.00     0.059 C 
ATOM     26  H10 U5P d   1     -36.260 -22.247  -3.055  0.00  0.00     0.079 H 
ATOM     27  H11 U5P d   1     -34.487 -22.261  -3.348  0.00  0.00     0.079 H 
BRANCH  25  28
ATOM     28  O5' U5P d   1     -35.416 -24.102  -3.372  0.00  0.00    -0.280 OA
BRANCH  28  29
ATOM     29  P   U5P d   1     -35.142 -24.265  -1.783  0.00  0.00     0.422 P 
ATOM     30  O1P U5P d   1     -36.241 -23.643  -1.014  0.00  0.00    -0.617 OA
ATOM     31  O2P U5P d   1     -35.078 -25.823  -1.433  0.00  0.00    -0.617 OA
ATOM     32  O3P U5P d   1     -33.744 -23.575  -1.400  0.00  0.00    -0.617 OA
ENDBRANCH  28  29
ENDBRANCH  25  28
ENDBRANCH   4  25
TORSDOF 6
