REMARK  5 active torsions:
REMARK  status: ('A' for Active; 'I' for Inactive)
REMARK    1  A    between atoms: O2_1  and  C13_2 
REMARK    2  A    between atoms: C4_7  and  C2_8 
REMARK    3  A    between atoms: C2_8  and  C5_9 
REMARK    4  A    between atoms: C2_8  and  C3_10 
REMARK    5  A    between atoms: C2_8  and  C1_11 
ROOT
ATOM      1  C2  1OH d   1      15.416  28.874  41.115  0.00  0.00     0.007 C 
ENDROOT
BRANCH   1   2
ATOM      2  C4  1OH d   1      15.702  27.427  41.447  0.00  0.00    -0.045 A 
ATOM      3  C15 1OH d   1      14.856  26.692  42.285  0.00  0.00    -0.073 A 
ATOM      4  C14 1OH d   1      15.142  25.358  42.592  0.00  0.00    -0.051 A 
ATOM      5  H3  1OH d   1      13.971  27.161  42.700  0.00  0.00     0.084 H 
ATOM      6  C13 1OH d   1      16.275  24.752  42.049  0.00  0.00     0.065 A 
ATOM      7  H2  1OH d   1      14.486  24.798  43.249  0.00  0.00     0.087 H 
ATOM      8  C12 1OH d   1      17.122  25.478  41.210  0.00  0.00    -0.051 A 
ATOM      9  C11 1OH d   1      16.841  26.804  40.915  0.00  0.00    -0.073 A 
ATOM     10  H4  1OH d   1      18.001  25.005  40.788  0.00  0.00     0.087 H 
ATOM     11  H5  1OH d   1      17.507  27.363  40.268  0.00  0.00     0.084 H 
BRANCH   6  12
ATOM     12  O2  1OH d   1      16.567  23.448  42.329  0.00  0.00    -0.361 OA
ATOM     13  H1  1OH d   1      16.684  23.345  43.266  0.00  0.00     0.217 HD
ENDBRANCH   6  12
ENDBRANCH   1   2
BRANCH   1  14
ATOM     14  C5  1OH d   1      16.464  29.757  41.783  0.00  0.00    -0.061 C 
ATOM     15  H6  1OH d   1      16.413  29.625  42.874  0.00  0.00     0.029 H 
ATOM     16  H7  1OH d   1      16.271  30.810  41.531  0.00  0.00     0.029 H 
ATOM     17  H8  1OH d   1      17.465  29.473  41.426  0.00  0.00     0.029 H 
ENDBRANCH   1  14
BRANCH   1  18
ATOM     18  C3  1OH d   1      14.062  29.326  41.650  0.00  0.00    -0.061 C 
ATOM     19  H9  1OH d   1      13.267  28.717  41.196  0.00  0.00     0.029 H 
ATOM     20  H10 1OH d   1      13.902  30.384  41.397  0.00  0.00     0.029 H 
ATOM     21  H11 1OH d   1      14.040  29.203  42.743  0.00  0.00     0.029 H 
ENDBRANCH   1  18
BRANCH   1  22
ATOM     22  C1  1OH d   1      15.448  29.021  39.610  0.00  0.00    -0.046 A 
ATOM     23  C6  1OH d   1      16.627  29.376  38.942  0.00  0.00    -0.076 A 
ATOM     24  C7  1OH d   1      16.647  29.493  37.552  0.00  0.00    -0.082 A 
ATOM     25  H12 1OH d   1      17.532  29.561  39.510  0.00  0.00     0.084 H 
ATOM     26  C8  1OH d   1      15.489  29.254  36.819  0.00  0.00    -0.083 A 
ATOM     27  H13 1OH d   1      17.564  29.770  37.044  0.00  0.00     0.083 H 
ATOM     28  C9  1OH d   1      14.314  28.895  37.477  0.00  0.00    -0.082 A 
ATOM     29  H14 1OH d   1      15.501  29.347  35.739  0.00  0.00     0.083 H 
ATOM     30  C10 1OH d   1      14.296  28.770  38.864  0.00  0.00    -0.076 A 
ATOM     31  H15 1OH d   1      13.410  28.712  36.907  0.00  0.00     0.083 H 
ATOM     32  H16 1OH d   1      13.382  28.476  39.367  0.00  0.00     0.084 H 
ENDBRANCH   1  22
TORSDOF 5
