REMARK  6 active torsions:
REMARK  status: ('A' for Active; 'I' for Inactive)
REMARK    1  A    between atoms: C20_2  and  C19_3 
REMARK    2  A    between atoms: C17_7  and  C13_8 
REMARK    3  A    between atoms: C8_17  and  N1_18 
REMARK    4  A    between atoms: N1_18  and  C7_19 
REMARK    5  A    between atoms: C2_20  and  C1_21 
REMARK    6  A    between atoms: C5_23  and  O1_24 
ROOT
ATOM      1  C13 GK1 d   1      46.775  33.732  28.836  0.00  0.00    -0.005 A 
ATOM      2  C12 GK1 d   1      46.228  34.645  29.729  0.00  0.00    -0.042 A 
ATOM      3  C14 GK1 d   1      46.172  32.494  28.622  0.00  0.00    -0.070 A 
ATOM      4  C15 GK1 d   1      44.995  32.199  29.320  0.00  0.00    -0.068 A 
ATOM      5  C16 GK1 d   1      44.443  33.118  30.225  0.00  0.00     0.019 A 
ATOM      6  C11 GK1 d   1      45.061  34.353  30.430  0.00  0.00     0.069 A 
ATOM      7  N2  GK1 d   1      44.543  35.266  31.294  0.00  0.00    -0.260 NA
ATOM      8  C10 GK1 d   1      43.420  34.999  31.988  0.00  0.00     0.005 A 
ATOM      9  C9  GK1 d   1      42.770  33.781  31.820  0.00  0.00    -0.039 A 
ATOM     10  C8  GK1 d   1      43.277  32.824  30.939  0.00  0.00     0.046 A 
ATOM     11  H3  GK1 d   1      46.718  35.600  29.882  0.00  0.00     0.088 H 
ATOM     12  H4  GK1 d   1      46.603  31.777  27.932  0.00  0.00     0.084 H 
ATOM     13  H5  GK1 d   1      44.503  31.247  29.159  0.00  0.00     0.085 H 
ATOM     14  H6  GK1 d   1      43.022  35.734  32.678  0.00  0.00     0.114 H 
ATOM     15  H7  GK1 d   1      41.864  33.573  32.377  0.00  0.00     0.089 H 
ENDROOT
BRANCH  10  16
ATOM     16  N1  GK1 d   1      42.656  31.621  30.741  0.00  0.00    -0.355 N 
ATOM     17  H8  GK1 d   1      43.051  30.983  30.035  0.00  0.00     0.166 HD
BRANCH  16  18
ATOM     18  C7  GK1 d   1      41.542  31.213  31.423  0.00  0.00     0.041 A 
ATOM     19  C2  GK1 d   1      40.265  31.590  30.983  0.00  0.00    -0.035 A 
ATOM     20  C3  GK1 d   1      39.140  31.151  31.680  0.00  0.00    -0.072 A 
ATOM     21  C4  GK1 d   1      39.270  30.363  32.824  0.00  0.00    -0.050 A 
ATOM     22  H15 GK1 d   1      38.152  31.425  31.329  0.00  0.00     0.084 H 
ATOM     23  C5  GK1 d   1      40.543  29.981  33.280  0.00  0.00     0.067 A 
ATOM     24  H14 GK1 d   1      38.385  30.044  33.363  0.00  0.00     0.087 H 
ATOM     25  C6  GK1 d   1      41.684  30.407  32.577  0.00  0.00    -0.025 A 
ATOM     26  H12 GK1 d   1      42.671  30.118  32.919  0.00  0.00     0.091 H 
BRANCH  19  27
ATOM     27  C1  GK1 d   1      40.078  32.454  29.758  0.00  0.00    -0.049 C 
ATOM     28  H9  GK1 d   1      39.005  32.628  29.593  0.00  0.00     0.033 H 
ATOM     29  H10 GK1 d   1      40.506  31.945  28.882  0.00  0.00     0.033 H 
ATOM     30  H11 GK1 d   1      40.587  33.417  29.908  0.00  0.00     0.033 H 
ENDBRANCH  19  27
BRANCH  23  31
ATOM     31  O1  GK1 d   1      40.660  29.212  34.409  0.00  0.00    -0.361 OA
ATOM     32  H13 GK1 d   1      39.795  29.019  34.750  0.00  0.00     0.217 HD
ENDBRANCH  23  31
ENDBRANCH  16  18
ENDBRANCH  10  16
BRANCH   1  33
ATOM     33  C17 GK1 d   1      47.957  34.083  28.183  0.00  0.00     0.075 A 
ATOM     34  C18 GK1 d   1      48.862  33.111  27.703  0.00  0.00    -0.014 A 
ATOM     35  S   GK1 d   1      50.233  33.997  26.991  0.00  0.00    -0.077 SA
ATOM     36  H2  GK1 d   1      48.744  32.030  27.758  0.00  0.00     0.098 H 
ATOM     37  C19 GK1 d   1      49.518  35.562  27.384  0.00  0.00     0.135 A 
ATOM     38  N3  GK1 d   1      48.340  35.404  28.011  0.00  0.00    -0.237 NA
BRANCH  37  39
ATOM     39  C20 GK1 d   1      50.102  36.891  27.067  0.00  0.00     0.143 C 
ATOM     40  O2  GK1 d   1      49.368  37.882  27.020  0.00  0.00    -0.299 OA
ATOM     41  H1  GK1 d   1      51.170  36.990  26.878  0.00  0.00     0.155 H 
ENDBRANCH  37  39
ENDBRANCH   1  33
TORSDOF 6
