REMARK  6 active torsions:
REMARK  status: ('A' for Active; 'I' for Inactive)
REMARK    1  A    between atoms: C15_8  and  N3_9 
REMARK    2  A    between atoms: C3_10  and  C25_12 
REMARK    3  A    between atoms: C13_16  and  C28_18 
REMARK    4  A    between atoms: C17_20  and  C12_21 
REMARK    5  A    between atoms: C7_23  and  C21_24 
REMARK    6  A    between atoms: C23_29  and  C1_30 
ROOT
ATOM      1  N5  GK3 d   1      48.828  37.768  26.199  0.00  0.00    -0.096 N 
ATOM      2  C5  GK3 d   1      48.827  36.542  26.718  0.00  0.00     0.019 C 
ATOM      3  C18 GK3 d   1      48.805  35.177  27.302  0.00  0.00     0.033 A 
ATOM      4  C2  GK3 d   1      49.945  34.355  27.236  0.00  0.00    -0.064 A 
ATOM      5  C29 GK3 d   1      49.901  33.074  27.791  0.00  0.00    -0.079 A 
ATOM      6  C19 GK3 d   1      48.719  32.618  28.402  0.00  0.00    -0.057 A 
ATOM      7  C22 GK3 d   1      47.626  34.717  27.919  0.00  0.00    -0.038 A 
ATOM      8  C15 GK3 d   1      47.569  33.434  28.486  0.00  0.00     0.035 A 
ATOM      9  H1  GK3 d   1      50.850  34.713  26.758  0.00  0.00     0.085 H 
ATOM     10  H2  GK3 d   1      50.775  32.434  27.751  0.00  0.00     0.083 H 
ATOM     11  H3  GK3 d   1      48.690  31.617  28.818  0.00  0.00     0.086 H 
ATOM     12  H4  GK3 d   1      46.754  35.360  27.957  0.00  0.00     0.089 H 
ENDROOT
BRANCH   8  13
ATOM     13  N3  GK3 d   1      46.443  32.938  29.088  0.00  0.00    -0.334 N 
ATOM     14  C3  GK3 d   1      45.534  33.605  29.833  0.00  0.00     0.189 C 
ATOM     15  O1  GK3 d   1      45.584  34.920  30.067  0.00  0.00    -0.171 OA
ATOM     16  H5  GK3 d   1      46.272  31.961  28.960  0.00  0.00     0.168 HD
BRANCH  14  17
ATOM     17  C25 GK3 d   1      44.325  32.860  30.368  0.00  0.00     0.018 A 
ATOM     18  C9  GK3 d   1      44.067  31.565  29.912  0.00  0.00    -0.068 A 
ATOM     19  C27 GK3 d   1      42.948  30.875  30.371  0.00  0.00    -0.071 A 
ATOM     20  H6  GK3 d   1      44.738  31.097  29.201  0.00  0.00     0.085 H 
ATOM     21  C13 GK3 d   1      42.078  31.470  31.299  0.00  0.00    -0.025 A 
ATOM     22  H9  GK3 d   1      42.747  29.873  30.010  0.00  0.00     0.084 H 
ATOM     23  C16 GK3 d   1      42.318  32.782  31.742  0.00  0.00    -0.071 A 
ATOM     24  C10 GK3 d   1      43.443  33.467  31.277  0.00  0.00    -0.068 A 
ATOM     25  H8  GK3 d   1      41.637  33.258  32.438  0.00  0.00     0.084 H 
ATOM     26  H7  GK3 d   1      43.637  34.477  31.621  0.00  0.00     0.085 H 
BRANCH  21  27
ATOM     27  C28 GK3 d   1      40.929  30.764  31.675  0.00  0.00    -0.019 A 
ATOM     28  C14 GK3 d   1      40.917  29.805  32.688  0.00  0.00    -0.058 A 
ATOM     29  C17 GK3 d   1      39.710  29.160  32.957  0.00  0.00     0.020 A 
ATOM     30  H10 GK3 d   1      41.815  29.569  33.247  0.00  0.00     0.086 H 
ATOM     31  C20 GK3 d   1      38.545  29.445  32.237  0.00  0.00    -0.068 A 
ATOM     32  C26 GK3 d   1      38.551  30.379  31.228  0.00  0.00    -0.075 A 
ATOM     33  H14 GK3 d   1      37.626  28.923  32.478  0.00  0.00     0.085 H 
ATOM     34  C23 GK3 d   1      39.741  31.035  30.940  0.00  0.00    -0.051 A 
ATOM     35  H15 GK3 d   1      37.648  30.598  30.670  0.00  0.00     0.084 H 
BRANCH  29  36
ATOM     36  C12 GK3 d   1      39.528  28.185  34.066  0.00  0.00     0.202 A 
ATOM     37  O2  GK3 d   1      38.731  27.221  34.144  0.00  0.00    -0.273 OA
ATOM     38  C7  GK3 d   1      38.962  26.750  35.268  0.00  0.00     0.165 A 
ATOM     39  N4  GK3 d   1      39.908  27.376  35.976  0.00  0.00    -0.127 NA
ATOM     40  N7  GK3 d   1      40.293  28.339  35.166  0.00  0.00    -0.121 NA
BRANCH  38  41
ATOM     41  C21 GK3 d   1      38.206  25.558  35.772  0.00  0.00    -0.013 C 
ATOM     42  H11 GK3 d   1      38.559  25.300  36.782  0.00  0.00     0.038 H 
ATOM     43  H12 GK3 d   1      38.373  24.706  35.097  0.00  0.00     0.038 H 
ATOM     44  H13 GK3 d   1      37.132  25.793  35.807  0.00  0.00     0.038 H 
ENDBRANCH  38  41
ENDBRANCH  29  36
BRANCH  34  45
ATOM     45  C1  GK3 d   1      39.666  32.047  29.822  0.00  0.00    -0.050 C 
ATOM     46  H16 GK3 d   1      40.655  32.506  29.676  0.00  0.00     0.033 H 
ATOM     47  H17 GK3 d   1      38.935  32.827  30.082  0.00  0.00     0.033 H 
ATOM     48  H18 GK3 d   1      39.354  31.546  28.894  0.00  0.00     0.033 H 
ENDBRANCH  34  45
ENDBRANCH  21  27
ENDBRANCH  14  17
ENDBRANCH   8  13
TORSDOF 6
