REMARK  3 active torsions:
REMARK  status: ('A' for Active; 'I' for Inactive)
REMARK    1  A    between atoms: C3_3  and  O3_21 
REMARK    2  A    between atoms: C5_5  and  O4_22 
REMARK    3  A    between atoms: C17_17  and  C18_18 
ROOT
ATOM      1  C1  RDC d   1     -61.917  83.860 -11.637  0.00  0.00     0.297 C 
ATOM      2  C2  RDC d   1     -61.345  82.500 -11.885  0.00  0.00     0.081 A 
ATOM      3  C3  RDC d   1     -61.813  81.349 -11.076  0.00  0.00     0.085 A 
ATOM      4  C4  RDC d   1     -61.306  80.074 -11.281  0.00  0.00    -0.016 A 
ATOM      5  C5  RDC d   1     -60.340  79.819 -12.239  0.00  0.00     0.090 A 
ATOM      6  C6  RDC d   1     -59.803  80.902 -13.102  0.00  0.00     0.075 A 
ATOM      7  C7  RDC d   1     -60.310  82.288 -12.920  0.00  0.00    -0.007 A 
ATOM      8  C8  RDC d   1     -59.845  83.459 -13.755  0.00  0.00     0.021 C 
ATOM      9  C9  RDC d   1     -58.358  83.474 -13.977  0.00  0.00     0.153 C 
ATOM     10  C10 RDC d   1     -57.485  84.258 -13.090  0.00  0.00    -0.038 C 
ATOM     11  C11 RDC d   1     -57.826  84.624 -11.852  0.00  0.00    -0.080 C 
ATOM     12  C12 RDC d   1     -56.844  85.406 -11.092  0.00  0.00    -0.084 C 
ATOM     13  C13 RDC d   1     -57.131  86.138 -10.012  0.00  0.00    -0.073 C 
ATOM     14  C14 RDC d   1     -58.522  86.230  -9.432  0.00  0.00     0.080 A 
ATOM     15  C15 RDC d   1     -59.451  87.028 -10.338  0.00  0.00     0.070 A 
ATOM     16  C16 RDC d   1     -60.909  86.722 -10.008  0.00  0.00    -0.014 C 
ATOM     17  C17 RDC d   1     -61.700  86.194 -11.199  0.00  0.00     0.047 C 
ATOM     18  O1  RDC d   1     -61.070  85.036 -11.751  0.00  0.00    -0.312 OA
ATOM     19  O2  RDC d   1     -63.094  83.998 -11.329  0.00  0.00    -0.259 OA
ATOM     20 CL1  RDC d   1     -58.756  80.565 -14.128  0.00  0.00    -0.081 Cl
ATOM     21  O5  RDC d   1     -57.860  82.861 -14.904  0.00  0.00    -0.293 OA
ATOM     22  O6  RDC d   1     -58.832  87.597  -9.187  0.00  0.00    -0.371 OA
ATOM     23  H1  RDC d   1     -61.676  79.255 -10.675  0.00  0.00     0.092 H 
ATOM     24  H2  RDC d   1     -60.132  84.389 -13.243  0.00  0.00     0.052 H 
ATOM     25  H3  RDC d   1     -60.344  83.411 -14.734  0.00  0.00     0.052 H 
ATOM     26  H4  RDC d   1     -56.507  84.556 -13.464  0.00  0.00     0.089 H 
ATOM     27  H5  RDC d   1     -58.791  84.354 -11.425  0.00  0.00     0.083 H 
ATOM     28  H6  RDC d   1     -55.810  85.388 -11.432  0.00  0.00     0.083 H 
ATOM     29  H7  RDC d   1     -56.327  86.692  -9.529  0.00  0.00     0.081 H 
ATOM     30  H8  RDC d   1     -58.832  85.380  -8.806  0.00  0.00     0.093 H 
ATOM     31  H9  RDC d   1     -59.241  87.299 -11.383  0.00  0.00     0.087 H 
ATOM     32  H10 RDC d   1     -61.388  87.647  -9.653  0.00  0.00     0.040 H 
ATOM     33  H11 RDC d   1     -60.935  85.966  -9.209  0.00  0.00     0.040 H 
ATOM     34  H12 RDC d   1     -62.706  85.915 -10.854  0.00  0.00     0.083 H 
ENDROOT
BRANCH  17  35
ATOM     35  C18 RDC d   1     -61.833  87.271 -12.267  0.00  0.00    -0.051 C 
ATOM     36  H13 RDC d   1     -62.406  86.874 -13.118  0.00  0.00     0.030 H 
ATOM     37  H14 RDC d   1     -60.832  87.575 -12.608  0.00  0.00     0.030 H 
ATOM     38  H15 RDC d   1     -62.357  88.142 -11.846  0.00  0.00     0.030 H 
ENDBRANCH  17  35
BRANCH   3  39
ATOM     39  O3  RDC d   1     -62.756  81.551 -10.119  0.00  0.00    -0.360 OA
ATOM     40  H16 RDC d   1     -62.998  82.469 -10.103  0.00  0.00     0.217 HD
ENDBRANCH   3  39
BRANCH   5  41
ATOM     41  O4  RDC d   1     -59.888  78.544 -12.383  0.00  0.00    -0.359 OA
ATOM     42  H17 RDC d   1     -60.330  77.980 -11.759  0.00  0.00     0.217 HD
ENDBRANCH   5  41
TORSDOF 3
