REMARK  7 active torsions:
REMARK  status: ('A' for Active; 'I' for Inactive)
REMARK    1  A    between atoms: C10_4  and  C15_7 
REMARK    2  A    between atoms: N12_5  and  C26_10 
REMARK    3  A    between atoms: C11_14  and  C17_8 
REMARK    4  A    between atoms: C17_8  and  C19_18 
REMARK    5  A    between atoms: C19_18  and  C20_9 
REMARK    6  A    between atoms: C26_10  and  C27_19 
REMARK    7  A    between atoms: C32_22  and  C49_30 
ROOT
ATOM      1  C4  46C d   1      44.990   7.784  32.355  0.00  0.00     0.043 A 
ATOM      2  C5  46C d   1      43.781   7.766  33.186  0.00  0.00    -0.065 A 
ATOM      3  C6  46C d   1      43.396   9.011  33.836  0.00  0.00    -0.061 A 
ATOM      4  C10 46C d   1      46.953   8.915  31.290  0.00  0.00     0.016 A 
ATOM      5  N12 46C d   1      46.494   6.507  30.871  0.00  0.00    -0.305 N 
ATOM      6  C13 46C d   1      45.387   6.540  31.611  0.00  0.00     0.259 A 
ATOM      7  C1  46C d   1      44.222  10.210  33.640  0.00  0.00     0.035 A 
ATOM      8  C2  46C d   1      45.431  10.214  32.813  0.00  0.00    -0.050 A 
ATOM      9  C3  46C d   1      45.795   8.973  32.171  0.00  0.00    -0.005 A 
ATOM     10  C11 46C d   1      47.299   7.661  30.671  0.00  0.00     0.096 A 
ATOM     11 CL14 46C d   1      43.789  11.630  34.389  0.00  0.00    -0.084 Cl
ATOM     12  O16 46C d   1      44.671   5.546  31.680  0.00  0.00    -0.267 OA
ATOM     13  H1  46C d   1      43.197   6.861  33.311  0.00  0.00     0.085 H 
ATOM     14  H2  46C d   1      42.509   9.053  34.458  0.00  0.00     0.086 H 
ATOM     15  H8  46C d   1      46.027  11.111  32.688  0.00  0.00     0.087 H 
ENDROOT
BRANCH   5  16
ATOM     16  C26 46C d   1      46.843   5.235  30.208  0.00  0.00     0.027 C 
ATOM     17  H6  46C d   1      47.139   5.450  29.171  0.00  0.00     0.072 H 
ATOM     18  H7  46C d   1      45.956   4.585  30.209  0.00  0.00     0.072 H 
BRANCH  16  19
ATOM     19  C27 46C d   1      47.965   4.511  30.882  0.00  0.00    -0.040 A 
ATOM     20  C30 46C d   1      47.719   3.937  32.198  0.00  0.00    -0.074 A 
ATOM     21  C31 46C d   1      48.816   3.261  32.877  0.00  0.00    -0.066 A 
ATOM     22  H11 46C d   1      46.742   4.011  32.661  0.00  0.00     0.084 H 
ATOM     23  C32 46C d   1      50.117   3.175  32.215  0.00  0.00     0.040 A 
ATOM     24  H12 46C d   1      48.670   2.828  33.860  0.00  0.00     0.085 H 
ATOM     25  C33 46C d   1      50.371   3.749  30.886  0.00  0.00    -0.066 A 
ATOM     26  C34 46C d   1      49.263   4.436  30.204  0.00  0.00    -0.074 A 
ATOM     27  H13 46C d   1      51.347   3.668  30.421  0.00  0.00     0.085 H 
ATOM     28  H14 46C d   1      49.403   4.876  29.223  0.00  0.00     0.084 H 
BRANCH  23  29
ATOM     29  C49 46C d   1      51.237   2.455  32.953  0.00  0.00     0.209 C 
ATOM     30  O50 46C d   1      52.403   2.641  32.611  0.00  0.00    -0.644 OA
ATOM     31  O51 46C d   1      50.934   1.691  33.909  0.00  0.00    -0.644 OA
ENDBRANCH  23  29
ENDBRANCH  16  19
ENDBRANCH   5  16
BRANCH  10  32
ATOM     32  C17 46C d   1      48.516   7.586  29.757  0.00  0.00     0.176 C 
ATOM     33  O18 46C d   1      48.361   7.201  28.599  0.00  0.00    -0.291 OA
BRANCH  32  34
ATOM     34  C19 46C d   1      49.897   7.961  30.286  0.00  0.00    -0.007 C 
ATOM     35  H9  46C d   1      50.223   7.189  30.998  0.00  0.00     0.044 H 
ATOM     36  H10 46C d   1      49.825   8.929  30.803  0.00  0.00     0.044 H 
BRANCH  34  37
ATOM     37  C20 46C d   1      50.931   8.074  29.185  0.00  0.00    -0.070 C 
ATOM     38  H3  46C d   1      51.904   8.345  29.622  0.00  0.00     0.028 H 
ATOM     39  H4  46C d   1      50.621   8.850  28.469  0.00  0.00     0.028 H 
ATOM     40  H5  46C d   1      51.019   7.109  28.664  0.00  0.00     0.028 H 
ENDBRANCH  34  37
ENDBRANCH  32  34
ENDBRANCH  10  32
BRANCH   4  41
ATOM     41  C15 46C d   1      47.734  10.106  30.995  0.00  0.00    -0.023 A 
ATOM     42  C39 46C d   1      48.599  10.660  32.040  0.00  0.00    -0.072 A 
ATOM     43  C40 46C d   1      49.375  11.870  31.740  0.00  0.00    -0.082 A 
ATOM     44  H15 46C d   1      48.665  10.187  33.013  0.00  0.00     0.084 H 
ATOM     45  C41 46C d   1      49.270  12.505  30.411  0.00  0.00    -0.083 A 
ATOM     46  H16 46C d   1      50.025  12.297  32.495  0.00  0.00     0.083 H 
ATOM     47  C42 46C d   1      48.391  11.924  29.376  0.00  0.00    -0.082 A 
ATOM     48  H17 46C d   1      49.840  13.401  30.194  0.00  0.00     0.083 H 
ATOM     49  C43 46C d   1      47.610  10.710  29.663  0.00  0.00    -0.072 A 
ATOM     50  H18 46C d   1      48.321  12.393  28.401  0.00  0.00     0.083 H 
ATOM     51  H19 46C d   1      46.961  10.274  28.912  0.00  0.00     0.084 H 
ENDBRANCH   4  41
TORSDOF 7
