REMARK  7 active torsions:
REMARK  status: ('A' for Active; 'I' for Inactive)
REMARK    1  A    between atoms: C3_3  and  C6_6 
REMARK    2  A    between atoms: C4_4  and  C7_7 
REMARK    3  A    between atoms: C5_5  and  C8_8 
REMARK    4  A    between atoms: C14_11  and  O33_21 
REMARK    5  A    between atoms: C21_14  and  O30_20 
REMARK    6  A    between atoms: C23_16  and  O29_19 
REMARK    7  A    between atoms: O33_21  and  C34_22 
ROOT
ATOM      1  N1  P4A d   1     -28.248  13.068  10.789  0.00  0.00    -0.281 N 
ATOM      2  N2  P4A d   1     -28.562  12.897  12.124  0.00  0.00    -0.173 NA
ATOM      3  C3  P4A d   1     -27.595  12.122  12.759  0.00  0.00     0.103 A 
ATOM      4  C4  P4A d   1     -26.582  11.783  11.721  0.00  0.00     0.029 A 
ATOM      5  C5  P4A d   1     -27.056  12.404  10.511  0.00  0.00     0.037 A 
ATOM      6  H   P4A d   1     -28.801  13.597  10.115  0.00  0.00     0.189 HD
ENDROOT
BRANCH   4   7
ATOM      7  C7  P4A d   1     -25.290  10.924  11.965  0.00  0.00    -0.021 A 
ATOM      8  C12 P4A d   1     -24.178  11.437  12.747  0.00  0.00    -0.070 A 
ATOM      9  C13 P4A d   1     -23.000  10.649  12.992  0.00  0.00    -0.050 A 
ATOM     10  H   P4A d   1     -24.238  12.445  13.158  0.00  0.00     0.085 H 
ATOM     11  C14 P4A d   1     -22.901   9.296  12.449  0.00  0.00     0.068 A 
ATOM     12  H   P4A d   1     -22.181  11.061  13.582  0.00  0.00     0.087 H 
ATOM     13  C15 P4A d   1     -23.995   8.757  11.656  0.00  0.00    -0.050 A 
ATOM     14  C16 P4A d   1     -25.173   9.559  11.419  0.00  0.00    -0.070 A 
ATOM     15  H   P4A d   1     -23.926   7.751  11.242  0.00  0.00     0.087 H 
ATOM     16  H   P4A d   1     -25.990   9.148  10.826  0.00  0.00     0.085 H 
BRANCH  11  17
ATOM     17  O33 P4A d   1     -21.749   8.514  12.694  0.00  0.00    -0.356 OA
BRANCH  17  18
ATOM     18  C34 P4A d   1     -21.859   7.796  13.963  0.00  0.00     0.010 C 
ATOM     19  H   P4A d   1     -21.973   8.513  14.776  0.00  0.00     0.066 H 
ATOM     20  H   P4A d   1     -22.727   7.138  13.932  0.00  0.00     0.066 H 
ATOM     21  H   P4A d   1     -20.958   7.204  14.123  0.00  0.00     0.066 H 
ENDBRANCH  17  18
ENDBRANCH  11  17
ENDBRANCH   4   7
BRANCH   3  22
ATOM     22  C6  P4A d   1     -27.614  11.722  14.281  0.00  0.00     0.029 A 
ATOM     23  C21 P4A d   1     -28.041  12.677  15.332  0.00  0.00     0.081 A 
ATOM     24  C22 P4A d   1     -28.023  12.282  16.716  0.00  0.00    -0.018 A 
ATOM     25  C23 P4A d   1     -27.594  10.955  17.097  0.00  0.00     0.068 A 
ATOM     26  H   P4A d   1     -28.336  12.990  17.484  0.00  0.00     0.092 H 
ATOM     27  C24 P4A d   1     -27.193  10.022  16.117  0.00  0.00    -0.050 A 
ATOM     28  C25 P4A d   1     -27.199  10.389  14.736  0.00  0.00    -0.065 A 
ATOM     29  H   P4A d   1     -26.879   9.021  16.414  0.00  0.00     0.087 H 
ATOM     30  H   P4A d   1     -26.885   9.654  13.995  0.00  0.00     0.085 H 
BRANCH  23  31
ATOM     31  O30 P4A d   1     -28.449  13.934  15.055  0.00  0.00    -0.360 OA
ATOM     32  H   P4A d   1     -29.349  14.054  15.368  0.00  0.00     0.217 HD
ENDBRANCH  23  31
BRANCH  25  33
ATOM     33  O29 P4A d   1     -27.565  10.599  18.412  0.00  0.00    -0.361 OA
ATOM     34  H   P4A d   1     -27.864  11.336  18.949  0.00  0.00     0.217 HD
ENDBRANCH  25  33
ENDBRANCH   3  22
BRANCH   5  35
ATOM     35  C8  P4A d   1     -26.469  12.426   9.090  0.00  0.00    -0.035 C 
ATOM     36  H   P4A d   1     -25.479  12.882   9.114  0.00  0.00     0.035 H 
ATOM     37  H   P4A d   1     -26.392  11.406   8.714  0.00  0.00     0.035 H 
ATOM     38  H   P4A d   1     -27.122  13.006   8.438  0.00  0.00     0.035 H 
ENDBRANCH   5  35
TORSDOF 7
