REMARK  8 active torsions:
REMARK  status: ('A' for Active; 'I' for Inactive)
REMARK    1  A    between atoms: C18_8  and  C22_2 
REMARK       I    between atoms: N2_31  and  C21_3 
REMARK       I    between atoms: C21_3  and  N3_32 
REMARK       I    between atoms: C21_3  and  N4_33 
REMARK    2  A    between atoms: C19_29  and  C20_4 
REMARK       I    between atoms: C20_4  and  N2_31 
REMARK    3  A    between atoms: O2_26  and  C6_12 
REMARK    4  A    between atoms: C2_14  and  C1_13 
REMARK    5  A    between atoms: C3_15  and  C2_14 
REMARK    6  A    between atoms: C15_21  and  C12_18 
REMARK    7  A    between atoms: C9_27  and  O2_26 
REMARK    8  A    between atoms: N1_28  and  C19_29 
ROOT
ATOM      1  C18 310 d   1      14.541 -10.523  18.371  0.00  0.00     0.047 A 
ATOM      2  C15 310 d   1      12.712  -9.213  17.955  0.00  0.00     0.045 A 
ATOM      3  C16 310 d   1      12.429 -10.055  19.021  0.00  0.00    -0.054 A 
ATOM      4  C17 310 d   1      13.558 -10.867  19.277  0.00  0.00    -0.054 A 
ATOM      5  N1  310 d   1      14.018  -9.513  17.570  0.00  0.00    -0.337 N 
ATOM      6  H14 310 d   1      11.490 -10.085  19.571  0.00  0.00     0.087 H 
ATOM      7  H15 310 d   1      13.638 -11.629  20.051  0.00  0.00     0.087 H 
ENDROOT
BRANCH   2   8
ATOM      8  C12 310 d   1      11.803  -8.210  17.369  0.00  0.00    -0.009 A 
ATOM      9  C11 310 d   1      10.482  -8.573  17.059  0.00  0.00    -0.068 A 
ATOM     10  C10 310 d   1       9.591  -7.638  16.514  0.00  0.00    -0.049 A 
ATOM     11  H11 310 d   1      10.148  -9.588  17.243  0.00  0.00     0.085 H 
ATOM     12  C9  310 d   1      10.000  -6.321  16.266  0.00  0.00     0.076 A 
ATOM     13  H4  310 d   1       8.575  -7.937  16.282  0.00  0.00     0.087 H 
ATOM     14  C14 310 d   1      11.316  -5.939  16.577  0.00  0.00    -0.049 A 
ATOM     15  C13 310 d   1      12.207  -6.877  17.126  0.00  0.00    -0.068 A 
ATOM     16  H13 310 d   1      11.644  -4.922  16.394  0.00  0.00     0.087 H 
ATOM     17  H12 310 d   1      13.220  -6.574  17.367  0.00  0.00     0.085 H 
BRANCH  12  18
ATOM     18  O2  310 d   1       9.016  -5.494  15.740  0.00  0.00    -0.311 OA
BRANCH  18  19
ATOM     19  C6  310 d   1       9.248  -4.332  15.024  0.00  0.00     0.076 A 
ATOM     20  C7  310 d   1      10.201  -4.212  14.001  0.00  0.00    -0.049 A 
ATOM     21  C8  310 d   1      10.348  -2.999  13.312  0.00  0.00    -0.067 A 
ATOM     22  H5  310 d   1      10.826  -5.059  13.742  0.00  0.00     0.087 H 
ATOM     23  C3  310 d   1       9.546  -1.894  13.638  0.00  0.00     0.009 A 
ATOM     24  H16 310 d   1      11.086  -2.914  12.523  0.00  0.00     0.085 H 
ATOM     25  C4  310 d   1       8.584  -2.022  14.665  0.00  0.00    -0.067 A 
ATOM     26  C5  310 d   1       8.435  -3.238  15.350  0.00  0.00    -0.049 A 
ATOM     27  H10 310 d   1       7.958  -1.176  14.925  0.00  0.00     0.085 H 
ATOM     28  H6  310 d   1       7.690  -3.331  16.132  0.00  0.00     0.087 H 
BRANCH  23  29
ATOM     29  C2  310 d   1       9.685  -0.590  12.920  0.00  0.00     0.155 C 
ATOM     30  O1  310 d   1      10.486  -0.468  11.991  0.00  0.00    -0.293 OA
BRANCH  29  31
ATOM     31  C1  310 d   1       8.567   0.398  13.021  0.00  0.00    -0.017 C 
ATOM     32  H7  310 d   1       8.820   1.299  12.442  0.00  0.00     0.038 H 
ATOM     33  H8  310 d   1       8.413   0.671  14.075  0.00  0.00     0.038 H 
ATOM     34  H9  310 d   1       7.646  -0.049  12.620  0.00  0.00     0.038 H 
ENDBRANCH  29  31
ENDBRANCH  23  29
ENDBRANCH  18  19
ENDBRANCH  12  18
ENDBRANCH   2   8
BRANCH   5  35
ATOM     35  C19 310 d   1      14.753  -8.870  16.490  0.00  0.00     0.075 C 
ATOM     36  H17 310 d   1      15.431  -9.600  16.023  0.00  0.00     0.079 H 
ATOM     37  H18 310 d   1      14.044  -8.494  15.738  0.00  0.00     0.079 H 
BRANCH  35  38
ATOM     38  C20 310 d   1      15.554  -7.723  17.041  0.00  0.00     0.254 C 
ATOM     39  O3  310 d   1      15.803  -7.582  18.234  0.00  0.00    -0.271 OA
ATOM     40  N2  310 d   1      15.990  -6.808  16.023  0.00  0.00    -0.159 N 
ATOM     41  C21 310 d   1      16.737  -5.646  16.211  0.00  0.00     0.672 C 
ATOM     42  H19 310 d   1      15.731  -7.027  15.082  0.00  0.00     0.187 HD
ATOM     43  N3  310 d   1      16.894  -4.808  15.116  0.00  0.00    -0.235 N 
ATOM     44  N4  310 d   1      16.993  -5.150  17.487  0.00  0.00    -0.235 N 
ATOM     45  H20 310 d   1      17.438  -3.938  15.207  0.00  0.00     0.174 HD
ATOM     46  H21 310 d   1      16.467  -5.056  14.212  0.00  0.00     0.174 HD
ATOM     47  H22 310 d   1      16.881  -5.761  18.309  0.00  0.00     0.174 HD
ATOM     48  H23 310 d   1      17.295  -4.173  17.609  0.00  0.00     0.174 HD
ENDBRANCH  35  38
ENDBRANCH   5  35
BRANCH   1  49
ATOM     49  C22 310 d   1      15.892 -11.084  18.252  0.00  0.00     0.013 A 
ATOM     50  C23 310 d   1      16.828 -10.796  19.268  0.00  0.00    -0.069 A 
ATOM     51  C24 310 d   1      18.130 -11.306  19.199  0.00  0.00    -0.082 A 
ATOM     52  H1  310 d   1      16.537 -10.175  20.108  0.00  0.00     0.085 H 
ATOM     53  C25 310 d   1      18.517 -12.106  18.120  0.00  0.00    -0.081 A 
ATOM     54  H2  310 d   1      18.841 -11.080  19.985  0.00  0.00     0.083 H 
ATOM     55  C26 310 d   1      17.604 -12.404  17.103  0.00  0.00    -0.061 A 
ATOM     56  H24 310 d   1      19.527 -12.496  18.071  0.00  0.00     0.083 H 
ATOM     57  C27 310 d   1      16.297 -11.894  17.169  0.00  0.00     0.046 A 
ATOM     58  H3  310 d   1      17.904 -13.026  16.267  0.00  0.00     0.086 H 
ATOM     59 CL1  310 d   1      15.219 -12.303  15.881  0.00  0.00    -0.083 Cl
ENDBRANCH   1  49
TORSDOF 8
