REMARK  6 active torsions:
REMARK  status: ('A' for Active; 'I' for Inactive)
REMARK    1  A    between atoms: C4_4  and  C7_7 
REMARK    2  A    between atoms: C10_10  and  C14_19 
REMARK    3  A    between atoms: N1_11  and  C11_12 
REMARK    4  A    between atoms: C11_12  and  C12_13 
REMARK       I    between atoms: C12_13  and  N2_15 
REMARK       I    between atoms: N2_15  and  C13_16 
REMARK       I    between atoms: C13_16  and  N3_17 
REMARK       I    between atoms: C13_16  and  N4_18 
REMARK    5  A    between atoms: C17_22  and  N5_25 
REMARK       I    between atoms: N5_25  and  C20_26 
REMARK    6  A    between atoms: C20_26  and  C21_28 
ROOT
ATOM      1  C7  411 d   1      14.806 -10.882  18.027  0.00  0.00     0.045 A 
ATOM      2  C8  411 d   1      13.831 -11.133  18.980  0.00  0.00    -0.054 A 
ATOM      3  C9  411 d   1      12.759 -10.229  18.773  0.00  0.00    -0.054 A 
ATOM      4  C10 411 d   1      13.069  -9.433  17.678  0.00  0.00     0.045 A 
ATOM      5  N1  411 d   1      14.325  -9.847  17.239  0.00  0.00    -0.337 N 
ATOM      6  H6  411 d   1      13.880 -11.895  19.756  0.00  0.00     0.087 H 
ATOM      7  H7  411 d   1      11.850 -10.169  19.369  0.00  0.00     0.087 H 
ENDROOT
BRANCH   4   8
ATOM      8  C14 411 d   1      12.292  -8.341  17.064  0.00  0.00    -0.009 A 
ATOM      9  C15 411 d   1      11.158  -8.559  16.259  0.00  0.00    -0.069 A 
ATOM     10  C16 411 d   1      10.462  -7.472  15.688  0.00  0.00    -0.056 A 
ATOM     11  H15 411 d   1      10.816  -9.571  16.076  0.00  0.00     0.085 H 
ATOM     12  C17 411 d   1      10.905  -6.154  15.911  0.00  0.00     0.035 A 
ATOM     13  H16 411 d   1       9.585  -7.652  15.077  0.00  0.00     0.086 H 
ATOM     14  C18 411 d   1      12.034  -5.948  16.717  0.00  0.00    -0.056 A 
ATOM     15  C19 411 d   1      12.720  -7.022  17.281  0.00  0.00    -0.069 A 
ATOM     16  H17 411 d   1      12.379  -4.937  16.904  0.00  0.00     0.086 H 
ATOM     17  H18 411 d   1      13.594  -6.837  17.894  0.00  0.00     0.085 H 
BRANCH  12  18
ATOM     18  N5  411 d   1      10.313  -4.952  15.440  0.00  0.00    -0.323 N 
ATOM     19  C20 411 d   1       8.958  -4.640  15.373  0.00  0.00     0.256 C 
ATOM     20  O2  411 d   1       8.009  -5.346  15.683  0.00  0.00    -0.267 OA
ATOM     21  H19 411 d   1      10.944  -4.246  15.118  0.00  0.00     0.169 HD
BRANCH  19  22
ATOM     22  C21 411 d   1       8.637  -3.281  14.872  0.00  0.00     0.033 A 
ATOM     23  C22 411 d   1       7.531  -2.569  15.376  0.00  0.00    -0.068 A 
ATOM     24  C23 411 d   1       7.249  -1.282  14.902  0.00  0.00    -0.081 A 
ATOM     25  H20 411 d   1       6.897  -3.018  16.132  0.00  0.00     0.085 H 
ATOM     26  C24 411 d   1       8.065  -0.705  13.925  0.00  0.00    -0.066 A 
ATOM     27  H21 411 d   1       6.399  -0.734  15.292  0.00  0.00     0.083 H 
ATOM     28  C25 411 d   1       9.165  -1.418  13.437  0.00  0.00     0.011 A 
ATOM     29  H22 411 d   1       7.847   0.288  13.548  0.00  0.00     0.085 H 
ATOM     30  C26 411 d   1       9.461  -2.701  13.897  0.00  0.00    -0.051 A 
ATOM     31 BR   411 d   1      10.277  -0.650  12.121  0.00  0.00    -0.051 Br
ATOM     32  H23 411 d   1      10.316  -3.242  13.507  0.00  0.00     0.087 H 
ENDBRANCH  19  22
ENDBRANCH  12  18
ENDBRANCH   4   8
BRANCH   5  33
ATOM     33  C11 411 d   1      15.044  -9.257  16.115  0.00  0.00     0.075 C 
ATOM     34  H8  411 d   1      14.343  -9.030  15.298  0.00  0.00     0.079 H 
ATOM     35  H9  411 d   1      15.815  -9.954  15.754  0.00  0.00     0.079 H 
BRANCH  33  36
ATOM     36  C12 411 d   1      15.688  -7.989  16.606  0.00  0.00     0.254 C 
ATOM     37  O1  411 d   1      16.021  -7.787  17.768  0.00  0.00    -0.271 OA
ATOM     38  N2  411 d   1      15.860  -7.012  15.567  0.00  0.00    -0.159 N 
ATOM     39  C13 411 d   1      16.428  -5.751  15.739  0.00  0.00     0.672 C 
ATOM     40  H10 411 d   1      15.548  -7.256  14.649  0.00  0.00     0.187 HD
ATOM     41  N3  411 d   1      16.870  -5.365  16.996  0.00  0.00    -0.235 N 
ATOM     42  N4  411 d   1      16.570  -4.892  14.669  0.00  0.00    -0.235 N 
ATOM     43  H11 411 d   1      17.291  -4.435  17.131  0.00  0.00     0.174 HD
ATOM     44  H12 411 d   1      16.777  -6.009  17.795  0.00  0.00     0.174 HD
ATOM     45  H13 411 d   1      16.243  -5.175  13.734  0.00  0.00     0.174 HD
ATOM     46  H14 411 d   1      17.003  -3.967  14.805  0.00  0.00     0.174 HD
ENDBRANCH  33  36
ENDBRANCH   5  33
BRANCH   1  47
ATOM     47  C4  411 d   1      16.099 -11.542  17.825  0.00  0.00    -0.009 A 
ATOM     48  C3  411 d   1      17.132 -11.377  18.767  0.00  0.00    -0.071 A 
ATOM     49  C2  411 d   1      18.374 -12.004  18.573  0.00  0.00    -0.082 A 
ATOM     50  H3  411 d   1      16.968 -10.764  19.646  0.00  0.00     0.084 H 
ATOM     51  C1  411 d   1      18.594 -12.790  17.435  0.00  0.00    -0.083 A 
ATOM     52  H2  411 d   1      19.163 -11.879  19.305  0.00  0.00     0.083 H 
ATOM     53  C6  411 d   1      17.575 -12.959  16.490  0.00  0.00    -0.082 A 
ATOM     54  H1  411 d   1      19.555 -13.268  17.286  0.00  0.00     0.083 H 
ATOM     55  C5  411 d   1      16.333 -12.337  16.685  0.00  0.00    -0.071 A 
ATOM     56  H5  411 d   1      17.745 -13.569  15.610  0.00  0.00     0.083 H 
ATOM     57  H4  411 d   1      15.546 -12.469  15.952  0.00  0.00     0.084 H 
ENDBRANCH   1  47
TORSDOF 6
