REMARK  11 active torsions:
REMARK  status: ('A' for Active; 'I' for Inactive)
REMARK    1  A    between atoms: C2_2  and  C1_1 
REMARK    2  A    between atoms: C2_2  and  O2_15 
REMARK    3  A    between atoms: C4_4  and  O4_16 
REMARK    4  A    between atoms: N5_12  and  C5_5 
REMARK    5  A    between atoms: C6_6  and  C7_7 
REMARK    6  A    between atoms: C7_7  and  C8_8 
REMARK    7  A    between atoms: C7_7  and  O7_18 
REMARK    8  A    between atoms: C8_8  and  C9_9 
REMARK    9  A    between atoms: C8_8  and  O8_19 
REMARK   10  A    between atoms: C9_9  and  O9_20 
REMARK   11  A    between atoms: C10_10  and  C11_11 
REMARK       I    between atoms: C10_10  and  N5_12 
ROOT
ATOM      1  C2  SIA d   1      48.301  10.113  49.253  0.00  0.00     0.256 C 
ATOM      2  C3  SIA d   1      48.279  10.783  50.632  0.00  0.00     0.023 C 
ATOM      3  C4  SIA d   1      46.844  11.090  51.065  0.00  0.00     0.063 C 
ATOM      4  C5  SIA d   1      45.988   9.826  50.987  0.00  0.00     0.064 C 
ATOM      5  C6  SIA d   1      46.064   9.253  49.569  0.00  0.00     0.091 C 
ATOM      6  O6  SIA d   1      47.445   8.954  49.238  0.00  0.00    -0.336 OA
ATOM      7  H1  SIA d   1      48.850  11.722  50.586  0.00  0.00     0.045 H 
ATOM      8  H2  SIA d   1      48.741  10.108  51.368  0.00  0.00     0.045 H 
ATOM      9  H3  SIA d   1      46.422  11.851  50.393  0.00  0.00     0.086 H 
ATOM     10  H4  SIA d   1      46.376   9.081  51.697  0.00  0.00     0.080 H 
ATOM     11  H5  SIA d   1      45.688  10.009  48.864  0.00  0.00     0.090 H 
ENDROOT
BRANCH   5  12
ATOM     12  C7  SIA d   1      45.197   7.993  49.439  0.00  0.00     0.089 C 
ATOM     13  H6  SIA d   1      44.167   8.300  49.205  0.00  0.00     0.091 H 
BRANCH  12  14
ATOM     14  C8  SIA d   1      45.703   7.085  48.319  0.00  0.00     0.083 C 
ATOM     15  H7  SIA d   1      46.679   6.669  48.611  0.00  0.00     0.090 H 
BRANCH  14  16
ATOM     16  C9  SIA d   1      44.729   5.939  48.077  0.00  0.00     0.043 C 
ATOM     17  H8  SIA d   1      43.735   6.346  47.842  0.00  0.00     0.078 H 
ATOM     18  H9  SIA d   1      44.666   5.315  48.980  0.00  0.00     0.078 H 
BRANCH  16  19
ATOM     19  O9  SIA d   1      45.186   5.150  46.988  0.00  0.00    -0.398 OA
ATOM     20  H18 SIA d   1      45.240   5.690  46.208  0.00  0.00     0.209 HD
ENDBRANCH  16  19
ENDBRANCH  14  16
BRANCH  14  21
ATOM     21  O8  SIA d   1      45.856   7.836  47.128  0.00  0.00    -0.391 OA
ATOM     22  H17 SIA d   1      46.464   8.550  47.281  0.00  0.00     0.210 HD
ENDBRANCH  14  21
ENDBRANCH  12  14
BRANCH  12  23
ATOM     23  O7  SIA d   1      45.196   7.274  50.664  0.00  0.00    -0.390 OA
ATOM     24  H16 SIA d   1      44.882   7.838  51.361  0.00  0.00     0.210 HD
ENDBRANCH  12  23
ENDBRANCH   5  12
BRANCH   4  25
ATOM     25  N5  SIA d   1      44.614  10.140  51.337  0.00  0.00    -0.352 N 
ATOM     26  C10 SIA d   1      44.116   9.821  52.532  0.00  0.00     0.214 C 
ATOM     27  O10 SIA d   1      42.909   9.665  52.720  0.00  0.00    -0.274 OA
ATOM     28  H13 SIA d   1      44.031  10.604  50.670  0.00  0.00     0.163 HD
BRANCH  26  29
ATOM     29  C11 SIA d   1      45.077   9.667  53.707  0.00  0.00    -0.003 C 
ATOM     30  H10 SIA d   1      44.510   9.404  54.612  0.00  0.00     0.040 H 
ATOM     31  H11 SIA d   1      45.611  10.615  53.871  0.00  0.00     0.040 H 
ATOM     32  H12 SIA d   1      45.803   8.871  53.485  0.00  0.00     0.040 H 
ENDBRANCH  26  29
ENDBRANCH   4  25
BRANCH   3  33
ATOM     33  O4  SIA d   1      46.839  11.589  52.394  0.00  0.00    -0.393 OA
ATOM     34  H15 SIA d   1      47.372  12.374  52.438  0.00  0.00     0.210 HD
ENDBRANCH   3  33
BRANCH   1  35
ATOM     35  C1  SIA d   1      47.791  11.091  48.200  0.00  0.00     0.238 C 
ATOM     36  O1A SIA d   1      47.617  12.288  48.521  0.00  0.00    -0.644 OA
ATOM     37  O1B SIA d   1      47.571  10.663  47.047  0.00  0.00    -0.644 OA
ENDBRANCH   1  35
BRANCH   1  38
ATOM     38  O2  SIA d   1      49.588   9.709  48.939  0.00  0.00    -0.357 OA
ATOM     39  H14 SIA d   1      49.886   9.076  49.582  0.00  0.00     0.213 HD
ENDBRANCH   1  38
TORSDOF 11
