REMARK  10 active torsions:
REMARK  status: ('A' for Active; 'I' for Inactive)
REMARK    1  A    between atoms: C2_2  and  C1_1 
REMARK    2  A    between atoms: C4_4  and  O4_15 
REMARK    3  A    between atoms: N5_12  and  C5_5 
REMARK    4  A    between atoms: C6_6  and  C7_7 
REMARK    5  A    between atoms: C7_7  and  C8_8 
REMARK    6  A    between atoms: C7_7  and  O7_17 
REMARK    7  A    between atoms: C8_8  and  C9_9 
REMARK    8  A    between atoms: C8_8  and  O8_18 
REMARK    9  A    between atoms: C9_9  and  O9_19 
REMARK   10  A    between atoms: C10_10  and  C11_11 
REMARK       I    between atoms: C10_10  and  N5_12 
ROOT
ATOM      1  C2  SIA d   1      47.593  10.612  50.296  0.00  0.00     0.125 C 
ATOM      2  C3  SIA d   1      47.312  11.355  51.613  0.00  0.00    -0.005 C 
ATOM      3  C4  SIA d   1      45.840  11.295  52.023  0.00  0.00     0.060 C 
ATOM      4  C5  SIA d   1      45.266   9.888  51.901  0.00  0.00     0.064 C 
ATOM      5  C6  SIA d   1      45.586   9.330  50.524  0.00  0.00     0.088 C 
ATOM      6  O6  SIA d   1      47.021   9.288  50.342  0.00  0.00    -0.365 OA
ATOM      7  H1  SIA d   1      48.681  10.541  50.150  0.00  0.00     0.100 H 
ATOM      8  H2  SIA d   1      47.600  12.409  51.490  0.00  0.00     0.041 H 
ATOM      9  H3  SIA d   1      47.918  10.899  52.410  0.00  0.00     0.041 H 
ATOM     10  H4  SIA d   1      45.267  11.966  51.367  0.00  0.00     0.086 H 
ATOM     11  H5  SIA d   1      45.695   9.238  52.678  0.00  0.00     0.080 H 
ATOM     12  H6  SIA d   1      45.171  10.025  49.779  0.00  0.00     0.090 H 
ENDROOT
BRANCH   5  13
ATOM     13  C7  SIA d   1      44.949   7.959  50.268  0.00  0.00     0.089 C 
ATOM     14  H7  SIA d   1      43.856   8.057  50.347  0.00  0.00     0.091 H 
BRANCH  13  15
ATOM     15  C8  SIA d   1      45.300   7.480  48.867  0.00  0.00     0.083 C 
ATOM     16  H8  SIA d   1      46.380   7.279  48.818  0.00  0.00     0.090 H 
BRANCH  15  17
ATOM     17  C9  SIA d   1      44.543   6.202  48.513  0.00  0.00     0.043 C 
ATOM     18  H9  SIA d   1      43.463   6.410  48.498  0.00  0.00     0.078 H 
ATOM     19  H10 SIA d   1      44.757   5.430  49.267  0.00  0.00     0.078 H 
BRANCH  17  20
ATOM     20  O9  SIA d   1      44.953   5.739  47.233  0.00  0.00    -0.398 OA
ATOM     21  H18 SIA d   1      44.767   6.405  46.582  0.00  0.00     0.209 HD
ENDBRANCH  17  20
ENDBRANCH  15  17
BRANCH  15  22
ATOM     22  O8  SIA d   1      44.970   8.498  47.939  0.00  0.00    -0.391 OA
ATOM     23  H17 SIA d   1      45.442   9.292  48.161  0.00  0.00     0.210 HD
ENDBRANCH  15  22
ENDBRANCH  13  15
BRANCH  13  24
ATOM     24  O7  SIA d   1      45.390   7.013  51.226  0.00  0.00    -0.390 OA
ATOM     25  H16 SIA d   1      45.167   7.319  52.097  0.00  0.00     0.210 HD
ENDBRANCH  13  24
ENDBRANCH   5  13
BRANCH   4  26
ATOM     26  N5  SIA d   1      43.829   9.963  52.052  0.00  0.00    -0.352 N 
ATOM     27  C10 SIA d   1      43.206   9.331  53.040  0.00  0.00     0.214 C 
ATOM     28  O10 SIA d   1      42.429   9.903  53.808  0.00  0.00    -0.274 OA
ATOM     29  H14 SIA d   1      43.295  10.501  51.400  0.00  0.00     0.163 HD
BRANCH  27  30
ATOM     30  C11 SIA d   1      43.445   7.834  53.173  0.00  0.00    -0.003 C 
ATOM     31  H11 SIA d   1      42.871   7.445  54.027  0.00  0.00     0.040 H 
ATOM     32  H12 SIA d   1      44.517   7.647  53.336  0.00  0.00     0.040 H 
ATOM     33  H13 SIA d   1      43.121   7.328  52.252  0.00  0.00     0.040 H 
ENDBRANCH  27  30
ENDBRANCH   4  26
BRANCH   3  34
ATOM     34  O4  SIA d   1      45.707  11.730  53.363  0.00  0.00    -0.393 OA
ATOM     35  H15 SIA d   1      46.063  12.607  53.447  0.00  0.00     0.210 HD
ENDBRANCH   3  34
BRANCH   1  36
ATOM     36  C1  SIA d   1      46.962  11.349  49.103  0.00  0.00     0.203 C 
ATOM     37  O1A SIA d   1      46.590  12.536  49.245  0.00  0.00    -0.646 OA
ATOM     38  O1B SIA d   1      46.854  10.740  48.010  0.00  0.00    -0.646 OA
ENDBRANCH   1  36
TORSDOF 10
