REMARK  10 active torsions:
REMARK  status: ('A' for Active; 'I' for Inactive)
REMARK       I    between atoms: C8_4  and  N1_1 
REMARK    1  A    between atoms: C6_3  and  C8_4 
REMARK    2  A    between atoms: C35_16  and  C10_5 
REMARK    3  A    between atoms: N32_13  and  C24_7 
REMARK    4  A    between atoms: C24_7  and  C25_18 
REMARK    5  A    between atoms: S9_11  and  C27_8 
REMARK    6  A    between atoms: N32_13  and  S9_11 
REMARK    7  A    between atoms: C33_14  and  N32_13 
REMARK    8  A    between atoms: C34_15  and  C33_14 
REMARK    9  A    between atoms: C35_16  and  C11_17 
REMARK   10  A    between atoms: C25_18  and  N22_19 
ROOT
ATOM      1  N32 YDP d   1      -8.240 -16.258  14.990  0.00  0.00    -0.302 N 
ENDROOT
BRANCH   1   2
ATOM      2  C24 YDP d   1      -9.019 -17.049  14.020  0.00  0.00     0.028 C 
ATOM      3  H   YDP d   1      -8.332 -17.300  13.211  0.00  0.00     0.067 H 
ATOM      4  H   YDP d   1      -9.879 -16.436  13.749  0.00  0.00     0.067 H 
BRANCH   2   5
ATOM      5  C25 YDP d   1      -9.590 -18.391  14.534  0.00  0.00     0.095 C 
ATOM      6  H   YDP d   1      -9.847 -18.327  15.591  0.00  0.00     0.077 H 
ATOM      7  H   YDP d   1      -8.854 -19.189  14.443  0.00  0.00     0.077 H 
BRANCH   5   8
ATOM      8  N22 YDP d   1     -10.783 -18.677  13.717  0.00  0.00    -0.078 N 
ATOM      9  H   YDP d   1     -11.198 -19.558  14.020  0.00  0.00     0.274 HD
ATOM     10  H   YDP d   1     -11.461 -17.924  13.832  0.00  0.00     0.274 HD
ATOM     11  H   YDP d   1     -10.513 -18.747  12.736  0.00  0.00     0.274 HD
ENDBRANCH   5   8
ENDBRANCH   2   5
ENDBRANCH   1   2
BRANCH   1  12
ATOM     12  S9  YDP d   1      -6.607 -15.920  14.544  0.00  0.00     0.261 S 
ATOM     13  O40 YDP d   1      -6.179 -14.688  15.171  0.00  0.00    -0.200 OA
ATOM     14  O11 YDP d   1      -6.519 -16.152  13.115  0.00  0.00    -0.200 OA
BRANCH  12  15
ATOM     15  C27 YDP d   1      -5.666 -17.223  15.303  0.00  0.00     0.079 A 
ATOM     16  C20 YDP d   1      -4.687 -16.937  16.255  0.00  0.00    -0.059 A 
ATOM     17  C5  YDP d   1      -3.976 -17.994  16.836  0.00  0.00    -0.066 A 
ATOM     18  H   YDP d   1      -4.479 -15.906  16.542  0.00  0.00     0.085 H 
ATOM     19  C6  YDP d   1      -4.201 -19.327  16.468  0.00  0.00     0.031 A 
ATOM     20  H   YDP d   1      -3.226 -17.774  17.596  0.00  0.00     0.085 H 
ATOM     21  C2  YDP d   1      -5.190 -19.607  15.524  0.00  0.00    -0.066 A 
ATOM     22  C18 YDP d   1      -5.908 -18.551  14.948  0.00  0.00    -0.059 A 
ATOM     23  H   YDP d   1      -5.402 -20.637  15.238  0.00  0.00     0.085 H 
ATOM     24  H   YDP d   1      -6.674 -18.772  14.205  0.00  0.00     0.085 H 
BRANCH  19  25
ATOM     25  C8  YDP d   1      -3.400 -20.477  17.058  0.00  0.00     0.249 C 
ATOM     26  N1  YDP d   1      -2.464 -20.251  18.014  0.00  0.00    -0.366 N 
ATOM     27  H   YDP d   1      -2.001 -21.037  18.471  0.00  0.00     0.159 HD
ATOM     28  H   YDP d   1      -2.223 -19.295  18.276  0.00  0.00     0.159 HD
ATOM     29  O2  YDP d   1      -3.690 -21.618  16.743  0.00  0.00    -0.268 OA
ENDBRANCH  19  25
ENDBRANCH  12  15
ENDBRANCH   1  12
BRANCH   1  30
ATOM     30  C33 YDP d   1      -8.736 -15.723  16.258  0.00  0.00     0.021 C 
ATOM     31  H   YDP d   1      -9.809 -15.584  16.126  0.00  0.00     0.071 H 
ATOM     32  H   YDP d   1      -8.148 -14.827  16.457  0.00  0.00     0.071 H 
BRANCH  30  33
ATOM     33  C34 YDP d   1      -8.577 -16.602  17.471  0.00  0.00    -0.084 C 
ATOM     34  C35 YDP d   1      -8.511 -16.179  18.748  0.00  0.00    -0.090 C 
ATOM     35  H   YDP d   1      -8.509 -17.676  17.300  0.00  0.00     0.079 H 
BRANCH  34  36
ATOM     36  C10 YDP d   1      -8.397 -17.214  19.847  0.00  0.00    -0.055 C 
ATOM     37  H   YDP d   1      -9.265 -17.872  19.816  0.00  0.00     0.033 H 
ATOM     38  H   YDP d   1      -7.490 -17.800  19.700  0.00  0.00     0.033 H 
ATOM     39  H   YDP d   1      -8.354 -16.712  20.814  0.00  0.00     0.033 H 
ENDBRANCH  34  36
BRANCH  34  40
ATOM     40  C11 YDP d   1      -8.559 -14.738  19.193  0.00  0.00    -0.055 C 
ATOM     41  H   YDP d   1      -7.726 -14.194  18.748  0.00  0.00     0.033 H 
ATOM     42  H   YDP d   1      -9.500 -14.291  18.872  0.00  0.00     0.033 H 
ATOM     43  H   YDP d   1      -8.486 -14.692  20.280  0.00  0.00     0.033 H 
ENDBRANCH  34  40
ENDBRANCH  30  33
ENDBRANCH   1  30
TORSDOF 10
