REMARK  12 active torsions:
REMARK  status: ('A' for Active; 'I' for Inactive)
REMARK    1  A    between atoms: O1_7  and  C1_1 
REMARK    2  A    between atoms: C2_2  and  O2_8 
REMARK    3  A    between atoms: C3_3  and  O3_9 
REMARK    4  A    between atoms: C4_4  and  O4_10 
REMARK    5  A    between atoms: C5_5  and  C6_6 
REMARK    6  A    between atoms: C6_6  and  O6_12 
REMARK    7  A    between atoms: C4'_16  and  O1_7 
REMARK    8  A    between atoms: C1'_13  and  O1'_19 
REMARK    9  A    between atoms: C2'_14  and  O2'_20 
REMARK   10  A    between atoms: C3'_15  and  O3'_21 
REMARK   11  A    between atoms: C5'_17  and  C6'_18 
REMARK   12  A    between atoms: C6'_18  and  O6'_23 
ROOT
ATOM      1  O1  NON d   1       9.847  -8.861  42.000  0.00  0.00    -0.348 OA
ENDROOT
BRANCH   1   2
ATOM      2  C1  NON d   1       9.506  -8.018  40.882  0.00  0.00     0.159 C 
ATOM      3  C2  NON d   1      10.732  -7.996  39.946  0.00  0.00     0.110 C 
ATOM      4  C3  NON d   1      10.404  -7.108  38.742  0.00  0.00     0.092 C 
ATOM      5  H2  NON d   1      10.956  -9.018  39.606  0.00  0.00     0.094 H 
ATOM      6  C4  NON d   1       9.163  -7.675  38.020  0.00  0.00     0.090 C 
ATOM      7  H3  NON d   1      10.187  -6.087  39.090  0.00  0.00     0.091 H 
ATOM      8  C5  NON d   1       7.992  -7.717  39.053  0.00  0.00     0.089 C 
ATOM      9  H4  NON d   1       8.890  -7.023  37.177  0.00  0.00     0.091 H 
ATOM     10  O5  NON d   1       8.354  -8.564  40.189  0.00  0.00    -0.348 OA
ATOM     11  H5  NON d   1       7.776  -6.699  39.409  0.00  0.00     0.090 H 
ATOM     12  H1  NON d   1       9.277  -7.000  41.230  0.00  0.00     0.133 H 
BRANCH   3  13
ATOM     13  O2  NON d   1      11.881  -7.456  40.639  0.00  0.00    -0.388 OA
ATOM     14  H8  NON d   1      12.086  -8.006  41.386  0.00  0.00     0.210 HD
ENDBRANCH   3  13
BRANCH   4  15
ATOM     15  O3  NON d   1      11.527  -7.072  37.846  0.00  0.00    -0.390 OA
ATOM     16  H9  NON d   1      11.320  -6.519  37.102  0.00  0.00     0.210 HD
ENDBRANCH   4  15
BRANCH   6  17
ATOM     17  O4  NON d   1       9.452  -9.003  37.523  0.00  0.00    -0.390 OA
ATOM     18  H10 NON d   1      10.165  -8.957  36.897  0.00  0.00     0.210 HD
ENDBRANCH   6  17
BRANCH   8  19
ATOM     19  C6  NON d   1       6.763  -8.295  38.367  0.00  0.00     0.043 C 
ATOM     20  H6  NON d   1       6.989  -9.311  38.012  0.00  0.00     0.078 H 
ATOM     21  H7  NON d   1       6.492  -7.659  37.511  0.00  0.00     0.078 H 
BRANCH  19  22
ATOM     22  O6  NON d   1       5.663  -8.348  39.286  0.00  0.00    -0.398 OA
ATOM     23  H11 NON d   1       5.895  -8.898  40.025  0.00  0.00     0.209 HD
ENDBRANCH  19  22
ENDBRANCH   8  19
ENDBRANCH   1   2
BRANCH   1  24
ATOM     24  C4' NON d   1       8.790  -8.945  42.996  0.00  0.00     0.096 C 
ATOM     25  C3' NON d   1       8.670 -10.421  43.434  0.00  0.00     0.092 C 
ATOM     26  C2' NON d   1       7.583 -10.530  44.489  0.00  0.00     0.110 C 
ATOM     27  H14 NON d   1       9.628 -10.761  43.854  0.00  0.00     0.091 H 
ATOM     28  C1' NON d   1       7.987  -9.640  45.689  0.00  0.00     0.156 C 
ATOM     29  H13 NON d   1       6.620 -10.190  44.080  0.00  0.00     0.094 H 
ATOM     30  O5' NON d   1       8.090  -8.256  45.281  0.00  0.00    -0.349 OA
ATOM     31  H12 NON d   1       8.952  -9.979  46.093  0.00  0.00     0.133 H 
ATOM     32  C5' NON d   1       9.130  -8.106  44.272  0.00  0.00     0.089 C 
ATOM     33  H16 NON d   1      10.094  -8.443  44.682  0.00  0.00     0.090 H 
ATOM     34  H15 NON d   1       7.843  -8.593  42.561  0.00  0.00     0.091 H 
BRANCH  25  35
ATOM     35  O3' NON d   1       8.332 -11.228  42.309  0.00  0.00    -0.390 OA
ATOM     36  H21 NON d   1       7.502 -10.937  41.950  0.00  0.00     0.210 HD
ENDBRANCH  25  35
BRANCH  26  37
ATOM     37  O2' NON d   1       7.480 -11.900  44.894  0.00  0.00    -0.388 OA
ATOM     38  H20 NON d   1       7.258 -12.436  44.142  0.00  0.00     0.210 HD
ENDBRANCH  26  37
BRANCH  28  39
ATOM     39  O1' NON d   1       6.969  -9.743  46.696  0.00  0.00    -0.369 OA
ATOM     40  H19 NON d   1       6.890 -10.648  46.974  0.00  0.00     0.212 HD
ENDBRANCH  28  39
BRANCH  32  41
ATOM     41  C6' NON d   1       9.211  -6.617  43.902  0.00  0.00     0.043 C 
ATOM     42  H17 NON d   1       8.246  -6.292  43.487  0.00  0.00     0.078 H 
ATOM     43  H18 NON d   1      10.001  -6.471  43.151  0.00  0.00     0.078 H 
BRANCH  41  44
ATOM     44  O6' NON d   1       9.513  -5.836  45.064  0.00  0.00    -0.398 OA
ATOM     45  H22 NON d   1       8.831  -5.960  45.713  0.00  0.00     0.209 HD
ENDBRANCH  41  44
ENDBRANCH  32  41
ENDBRANCH   1  24
TORSDOF 12
