REMARK  8 active torsions:
REMARK  status: ('A' for Active; 'I' for Inactive)
REMARK    1  A    between atoms: C14_1  and  C5_3 
REMARK       I    between atoms: C14_1  and  N1_12 
REMARK    2  A    between atoms: C5_3  and  N21_4 
REMARK    3  A    between atoms: N21_4  and  C49_5 
REMARK    4  A    between atoms: C1_13  and  C7_14 
REMARK       I    between atoms: C7_14  and  N23_19 
REMARK    5  A    between atoms: N23_19  and  C24_20 
REMARK    6  A    between atoms: C24_20  and  C25_21 
REMARK    7  A    between atoms: C28_24  and  C9_25 
REMARK    8  A    between atoms: C9_25  and  N10_26 
ROOT
ATOM      1  C14 12U d   1      17.423  -9.703  11.742  0.00  0.00     0.246 C 
ATOM      2  O32 12U d   1      17.801  -8.870  10.934  0.00  0.00    -0.272 OA
ATOM      3  N1  12U d   1      16.687  -9.209  12.712  0.00  0.00    -0.337 N 
ATOM      4  C1  12U d   1      15.824  -8.309  12.546  0.00  0.00     0.091 C 
ATOM      5  C2  12U d   1      14.831  -8.362  13.716  0.00  0.00    -0.036 C 
ATOM      6  C3  12U d   1      15.275  -9.478  14.620  0.00  0.00    -0.048 C 
ATOM      7  C4  12U d   1      16.648  -9.815  14.055  0.00  0.00    -0.001 C 
ATOM      8  H18 12U d   1      15.295  -8.527  11.606  0.00  0.00     0.087 H 
ATOM      9  H19 12U d   1      13.816  -8.561  13.341  0.00  0.00     0.036 H 
ATOM     10  H20 12U d   1      14.840  -7.407  14.262  0.00  0.00     0.036 H 
ATOM     11  H21 12U d   1      14.594 -10.339  14.556  0.00  0.00     0.035 H 
ATOM     12  H22 12U d   1      15.344  -9.142  15.665  0.00  0.00     0.035 H 
ATOM     13  H23 12U d   1      17.439  -9.390  14.691  0.00  0.00     0.064 H 
ATOM     14  H24 12U d   1      16.778 -10.905  13.988  0.00  0.00     0.064 H 
ENDROOT
BRANCH   1  15
ATOM     15  C5  12U d   1      17.789 -11.141  11.599  0.00  0.00     0.154 C 
ATOM     16  H1  12U d   1      17.440 -11.665  12.501  0.00  0.00     0.090 H 
ATOM     17  H2  12U d   1      18.886 -11.202  11.541  0.00  0.00     0.090 H 
BRANCH  15  18
ATOM     18  N21 12U d   1      17.239 -11.850  10.429  0.00  0.00    -0.063 N 
ATOM     19  H3  12U d   1      17.901 -11.752   9.675  0.00  0.00     0.278 HD
ATOM     20  H4  12U d   1      16.375 -11.396  10.178  0.00  0.00     0.278 HD
BRANCH  18  21
ATOM     21  C49 12U d   1      16.959 -13.274  10.586  0.00  0.00     0.102 C 
ATOM     22  C48 12U d   1      15.975 -13.745  10.336  0.00  0.00    -0.038 C 
ATOM     23  C47 12U d   1      15.989 -13.903   8.804  0.00  0.00    -0.063 C 
ATOM     24  H6  12U d   1      15.144 -13.096  10.650  0.00  0.00     0.036 H 
ATOM     25  H7  12U d   1      15.880 -14.726  10.825  0.00  0.00     0.036 H 
ATOM     26  C46 12U d   1      16.389 -15.275   8.163  0.00  0.00    -0.065 C 
ATOM     27  H8  12U d   1      16.692 -13.153   8.414  0.00  0.00     0.033 H 
ATOM     28  H9  12U d   1      14.973 -13.672   8.451  0.00  0.00     0.033 H 
ATOM     29  C52 12U d   1      17.886 -15.707   8.204  0.00  0.00    -0.065 C 
ATOM     30  H10 12U d   1      16.091 -15.238   7.105  0.00  0.00     0.033 H 
ATOM     31  H11 12U d   1      15.812 -16.056   8.680  0.00  0.00     0.033 H 
ATOM     32  C51 12U d   1      18.658 -14.571   9.004  0.00  0.00    -0.063 C 
ATOM     33  H12 12U d   1      18.286 -15.792   7.183  0.00  0.00     0.033 H 
ATOM     34  H13 12U d   1      17.989 -16.673   8.720  0.00  0.00     0.033 H 
ATOM     35  C50 12U d   1      18.134 -14.340  10.523  0.00  0.00    -0.038 C 
ATOM     36  H14 12U d   1      18.543 -13.625   8.454  0.00  0.00     0.033 H 
ATOM     37  H15 12U d   1      19.723 -14.844   9.046  0.00  0.00     0.033 H 
ATOM     38  H16 12U d   1      17.768 -15.297  10.923  0.00  0.00     0.036 H 
ATOM     39  H17 12U d   1      18.973 -13.982  11.138  0.00  0.00     0.036 H 
ATOM     40  H5  12U d   1      16.832 -13.243  11.678  0.00  0.00     0.084 H 
ENDBRANCH  18  21
ENDBRANCH  15  18
ENDBRANCH   1  15
BRANCH   4  41
ATOM     41  C7  12U d   1      16.321  -6.935  12.473  0.00  0.00     0.240 C 
ATOM     42  O22 12U d   1      17.325  -6.608  13.084  0.00  0.00    -0.271 OA
ATOM     43  N23 12U d   1      15.768  -5.960  11.822  0.00  0.00    -0.355 N 
ATOM     44  H25 12U d   1      14.952  -6.165  11.281  0.00  0.00     0.162 HD
BRANCH  43  45
ATOM     45  C24 12U d   1      16.246  -4.607  11.824  0.00  0.00     0.019 C 
ATOM     46  H26 12U d   1      16.874  -4.437  12.711  0.00  0.00     0.071 H 
ATOM     47  H27 12U d   1      15.393  -3.912  11.840  0.00  0.00     0.071 H 
BRANCH  45  48
ATOM     48  C25 12U d   1      17.060  -4.385  10.574  0.00  0.00    -0.040 A 
ATOM     49  C30 12U d   1      18.234  -4.936  10.192  0.00  0.00    -0.074 A 
ATOM     50  C29 12U d   1      18.810  -4.567   8.963  0.00  0.00    -0.069 A 
ATOM     51  H28 12U d   1      18.729  -5.659  10.830  0.00  0.00     0.084 H 
ATOM     52  C28 12U d   1      18.306  -3.658   8.030  0.00  0.00     0.007 A 
ATOM     53  H29 12U d   1      19.752  -5.042   8.711  0.00  0.00     0.085 H 
ATOM     54  C27 12U d   1      17.115  -3.097   8.415  0.00  0.00    -0.069 A 
ATOM     55  C26 12U d   1      16.527  -3.460   9.650  0.00  0.00    -0.074 A 
ATOM     56  H34 12U d   1      16.624  -2.375   7.773  0.00  0.00     0.085 H 
ATOM     57  H35 12U d   1      15.586  -2.987   9.909  0.00  0.00     0.084 H 
BRANCH  52  58
ATOM     58  C9  12U d   1      19.088  -3.396   6.750  0.00  0.00     0.102 C 
ATOM     59  N11 12U d   1      20.351  -3.811   6.680  0.00  0.00    -0.385 N 
ATOM     60  H32 12U d   1      20.779  -4.295   7.482  0.00  0.00     0.157 HD
ATOM     61  H33 12U d   1      20.900  -3.648   5.824  0.00  0.00     0.157 HD
BRANCH  58  62
ATOM     62  N10 12U d   1      18.495  -2.771   5.749  0.00  0.00    -0.385 N 
ATOM     63  H30 12U d   1      19.012  -2.587   4.878  0.00  0.00     0.157 HD
ATOM     64  H31 12U d   1      17.515  -2.467   5.840  0.00  0.00     0.157 HD
ENDBRANCH  58  62
ENDBRANCH  52  58
ENDBRANCH  45  48
ENDBRANCH  43  45
ENDBRANCH   4  41
TORSDOF 8
