REMARK  12 active torsions:
REMARK  status: ('A' for Active; 'I' for Inactive)
REMARK    1  A    between atoms: N_1  and  CA_2 
REMARK    2  A    between atoms: CA_2  and  C_3 
REMARK    3  A    between atoms: CA_2  and  CB_6 
REMARK    4  A    between atoms: CB_6  and  CG_7 
REMARK    5  A    between atoms: CG_7  and  SD_8 
REMARK    6  A    between atoms: SD_8  and  CE_9 
REMARK    7  A    between atoms: SD_8  and  C5'_10 
REMARK    8  A    between atoms: C5'_10  and  C4'_11 
REMARK    9  A    between atoms: C3'_13  and  O3'_14 
REMARK   10  A    between atoms: C2'_15  and  O2'_16 
REMARK   11  A    between atoms: C1'_17  and  N9_18 
REMARK   12  A    between atoms: C6_22  and  N6_23 
ROOT
ATOM      1  C4' SAM d   1      14.340  27.623  72.027  0.00  0.00     0.076 C 
ATOM      2  O4' SAM d   1      13.661  28.796  71.628  0.00  0.00    -0.355 OA
ATOM      3  C3' SAM d   1      13.281  26.504  72.086  0.00  0.00     0.090 C 
ATOM      4  C2' SAM d   1      12.023  27.167  71.529  0.00  0.00     0.105 C 
ATOM      5  C1' SAM d   1      12.279  28.646  71.832  0.00  0.00     0.139 C 
ATOM      6  H14 SAM d   1      14.729  27.770  73.045  0.00  0.00     0.088 H 
ATOM      7  H15 SAM d   1      13.572  25.706  71.387  0.00  0.00     0.091 H 
ATOM      8  H17 SAM d   1      11.893  26.961  70.456  0.00  0.00     0.093 H 
ATOM      9  H19 SAM d   1      11.992  28.864  72.871  0.00  0.00     0.122 H 
ENDROOT
BRANCH   1  10
ATOM     10  C5' SAM d   1      15.552  27.349  71.122  0.00  0.00    -0.005 C 
ATOM     11  H12 SAM d   1      15.187  27.203  70.095  0.00  0.00     0.051 H 
ATOM     12  H13 SAM d   1      16.211  28.229  71.155  0.00  0.00     0.051 H 
BRANCH  10  13
ATOM     13  SD  SAM d   1      16.525  25.900  71.585  0.00  0.00    -0.221 SA
BRANCH  13  14
ATOM     14  CG  SAM d   1      17.413  26.382  73.122  0.00  0.00    -0.029 C 
ATOM     15  H7  SAM d   1      17.947  27.316  72.892  0.00  0.00     0.047 H 
ATOM     16  H8  SAM d   1      16.639  26.580  73.878  0.00  0.00     0.047 H 
BRANCH  14  17
ATOM     17  CB  SAM d   1      18.525  25.369  73.841  0.00  0.00    -0.022 C 
ATOM     18  H5  SAM d   1      17.887  24.520  74.126  0.00  0.00     0.037 H 
ATOM     19  H6  SAM d   1      19.146  25.087  72.978  0.00  0.00     0.037 H 
BRANCH  17  20
ATOM     20  CA  SAM d   1      19.574  25.354  74.984  0.00  0.00     0.183 C 
ATOM     21  H4  SAM d   1      19.740  26.387  75.323  0.00  0.00     0.101 H 
BRANCH  20  22
ATOM     22  N   SAM d   1      20.866  24.821  74.534  0.00  0.00    -0.065 N 
ATOM     23  H1  SAM d   1      21.214  25.383  73.773  0.00  0.00     0.275 HD
ATOM     24  H2  SAM d   1      20.747  23.870  74.222  0.00  0.00     0.275 HD
ATOM     25  H3  SAM d   1      21.524  24.845  75.297  0.00  0.00     0.275 HD
ENDBRANCH  20  22
BRANCH  20  26
ATOM     26  C   SAM d   1      18.971  24.551  76.148  0.00  0.00     0.204 C 
ATOM     27  O   SAM d   1      17.867  24.887  76.587  0.00  0.00    -0.646 OA
ATOM     28  OXT SAM d   1      19.634  23.607  76.593  0.00  0.00    -0.646 OA
ENDBRANCH  20  26
ENDBRANCH  17  20
ENDBRANCH  14  17
ENDBRANCH  13  14
BRANCH  13  29
ATOM     29  CE  SAM d   1      17.846  25.719  70.345  0.00  0.00    -0.042 C 
ATOM     30  H9  SAM d   1      17.406  25.428  69.380  0.00  0.00     0.040 H 
ATOM     31  H10 SAM d   1      18.554  24.944  70.674  0.00  0.00     0.040 H 
ATOM     32  H11 SAM d   1      18.377  26.676  70.232  0.00  0.00     0.040 H 
ENDBRANCH  13  29
ENDBRANCH  10  13
ENDBRANCH   1  10
BRANCH   3  33
ATOM     33  O3' SAM d   1      13.205  25.889  73.366  0.00  0.00    -0.390 OA
ATOM     34  H16 SAM d   1      12.976  26.542  74.017  0.00  0.00     0.210 HD
ENDBRANCH   3  33
BRANCH   5  35
ATOM     35  N9  SAM d   1      11.640  29.625  70.935  0.00  0.00    -0.294 N 
ATOM     36  C8  SAM d   1      11.230  29.648  69.644  0.00  0.00     0.071 A 
ATOM     37  N7  SAM d   1      10.780  30.845  69.247  0.00  0.00    -0.236 NA
ATOM     38  H20 SAM d   1      11.263  28.777  68.992  0.00  0.00     0.144 H 
ATOM     39  C5  SAM d   1      10.899  31.684  70.358  0.00  0.00     0.149 A 
ATOM     40  C6  SAM d   1      10.647  33.013  70.682  0.00  0.00     0.155 A 
ATOM     41  C4  SAM d   1      11.433  30.907  71.404  0.00  0.00     0.167 A 
ATOM     42  N1  SAM d   1      10.910  33.498  71.946  0.00  0.00    -0.222 NA
ATOM     43  C2  SAM d   1      11.419  32.672  72.886  0.00  0.00     0.091 A 
ATOM     44  N3  SAM d   1      11.693  31.373  72.654  0.00  0.00    -0.222 NA
ATOM     45  H23 SAM d   1      11.616  33.073  73.874  0.00  0.00     0.146 H 
BRANCH  40  46
ATOM     46  N6  SAM d   1      10.136  33.884  69.774  0.00  0.00    -0.382 N 
ATOM     47  H21 SAM d   1       9.960  34.863  70.042  0.00  0.00     0.157 HD
ATOM     48  H22 SAM d   1       9.925  33.566  68.817  0.00  0.00     0.157 HD
ENDBRANCH  40  46
ENDBRANCH   5  35
BRANCH   4  49
ATOM     49  O2' SAM d   1      10.852  26.811  72.267  0.00  0.00    -0.388 OA
ATOM     50  H18 SAM d   1      10.954  27.084  73.171  0.00  0.00     0.210 HD
ENDBRANCH   4  49
TORSDOF 12
