REMARK  8 active torsions:
REMARK  status: ('A' for Active; 'I' for Inactive)
REMARK    1  A    between atoms: C7_2  and  C10_3 
REMARK    2  A    between atoms: C7_2  and  C21_10 
REMARK    3  A    between atoms: C5_21  and  C7_2 
REMARK    4  A    between atoms: C7_2  and  O8_23 
REMARK    5  A    between atoms: C14_7  and  C41_31 
REMARK    6  A    between atoms: C16_9  and  C31_13 
REMARK    7  A    between atoms: N1_18  and  C6_22 
REMARK       I    between atoms: C41_31  and  N43_33 
REMARK    8  A    between atoms: N43_33  and  N44_34 
ROOT
ATOM      1  C10 NH7 d   1      17.555 129.366   0.688  0.00  0.00     0.100 A 
ATOM      2  C11 NH7 d   1      17.678 130.552   1.335  0.00  0.00    -0.038 A 
ATOM      3  C12 NH7 d   1      16.395 131.146   1.393  0.00  0.00     0.002 A 
ATOM      4  C13 NH7 d   1      15.870 132.298   2.000  0.00  0.00    -0.055 A 
ATOM      5  C14 NH7 d   1      14.502 132.554   1.836  0.00  0.00     0.035 A 
ATOM      6  C15 NH7 d   1      13.656 131.698   1.054  0.00  0.00    -0.054 A 
ATOM      7  C16 NH7 d   1      14.168 130.562   0.420  0.00  0.00     0.010 A 
ATOM      8  O9  NH7 d   1      16.256 129.251   0.201  0.00  0.00    -0.309 OA
ATOM      9  C17 NH7 d   1      15.548 130.319   0.652  0.00  0.00     0.097 A 
ATOM     10  H2  NH7 d   1      18.599 130.972   1.738  0.00  0.00     0.088 H 
ATOM     11  H3  NH7 d   1      16.501 132.966   2.575  0.00  0.00     0.086 H 
ATOM     12  H4  NH7 d   1      12.603 131.936   0.953  0.00  0.00     0.086 H 
ENDROOT
BRANCH   1  13
ATOM     13  C7  NH7 d   1      18.584 128.237   0.449  0.00  0.00     0.178 C 
BRANCH  13  14
ATOM     14  C21 NH7 d   1      17.886 127.262  -0.481  0.00  0.00    -0.011 A 
ATOM     15  C22 NH7 d   1      16.898 126.426   0.041  0.00  0.00    -0.072 A 
ATOM     16  C23 NH7 d   1      16.195 125.563  -0.805  0.00  0.00    -0.061 A 
ATOM     17  H5  NH7 d   1      16.676 126.446   1.102  0.00  0.00     0.084 H 
ATOM     18  C24 NH7 d   1      16.489 125.545  -2.178  0.00  0.00     0.034 A 
ATOM     19  H15 NH7 d   1      15.427 124.912  -0.403  0.00  0.00     0.086 H 
ATOM     20  C25 NH7 d   1      17.484 126.374  -2.728  0.00  0.00    -0.061 A 
ATOM     21 CL27 NH7 d   1      15.551 124.492  -3.168  0.00  0.00    -0.084 Cl
ATOM     22  C26 NH7 d   1      18.174 127.229  -1.864  0.00  0.00    -0.072 A 
ATOM     23  H16 NH7 d   1      17.708 126.350  -3.788  0.00  0.00     0.086 H 
ATOM     24  H17 NH7 d   1      18.945 127.879  -2.262  0.00  0.00     0.084 H 
ENDBRANCH  13  14
BRANCH  13  25
ATOM     25  C5  NH7 d   1      19.044 127.610   1.766  0.00  0.00     0.076 A 
ATOM     26  N1  NH7 d   1      19.970 126.565   1.864  0.00  0.00    -0.345 N 
ATOM     27  C2  NH7 d   1      20.129 126.286   3.192  0.00  0.00     0.065 A 
ATOM     28  N3  NH7 d   1      19.367 127.088   3.913  0.00  0.00    -0.254 NA
ATOM     29  H1  NH7 d   1      20.786 125.517   3.596  0.00  0.00     0.143 H 
ATOM     30  C4  NH7 d   1      18.708 127.896   3.054  0.00  0.00     0.029 A 
ATOM     31  H10 NH7 d   1      18.003 128.671   3.352  0.00  0.00     0.118 H 
BRANCH  26  32
ATOM     32  C6  NH7 d   1      20.658 125.853   0.781  0.00  0.00    -0.013 C 
ATOM     33  H11 NH7 d   1      21.320 125.086   1.209  0.00  0.00     0.057 H 
ATOM     34  H12 NH7 d   1      21.255 126.567   0.194  0.00  0.00     0.057 H 
ATOM     35  H13 NH7 d   1      19.915 125.373   0.128  0.00  0.00     0.057 H 
ENDBRANCH  26  32
ENDBRANCH  13  25
BRANCH  13  36
ATOM     36  O8  NH7 d   1      19.714 128.835  -0.205  0.00  0.00    -0.372 OA
ATOM     37  H14 NH7 d   1      20.139 129.441   0.390  0.00  0.00     0.212 HD
ENDBRANCH  13  36
ENDBRANCH   1  13
BRANCH   7  38
ATOM     38  C31 NH7 d   1      13.376 129.662  -0.439  0.00  0.00    -0.023 A 
ATOM     39  C32 NH7 d   1      12.530 130.148  -1.457  0.00  0.00    -0.072 A 
ATOM     40  C33 NH7 d   1      11.789 129.291  -2.273  0.00  0.00    -0.082 A 
ATOM     41  H6  NH7 d   1      12.453 131.218  -1.611  0.00  0.00     0.084 H 
ATOM     42  C34 NH7 d   1      11.883 127.914  -2.062  0.00  0.00    -0.083 A 
ATOM     43  H7  NH7 d   1      11.152 129.687  -3.056  0.00  0.00     0.083 H 
ATOM     44  C35 NH7 d   1      12.722 127.406  -1.053  0.00  0.00    -0.082 A 
ATOM     45  H8  NH7 d   1      11.307 127.233  -2.678  0.00  0.00     0.083 H 
ATOM     46  C36 NH7 d   1      13.461 128.267  -0.239  0.00  0.00    -0.072 A 
ATOM     47  H9  NH7 d   1      12.796 126.335  -0.906  0.00  0.00     0.083 H 
ATOM     48  H18 NH7 d   1      14.097 127.866   0.542  0.00  0.00     0.084 H 
ENDBRANCH   7  38
BRANCH   5  49
ATOM     49  C41 NH7 d   1      13.943 133.733   2.494  0.00  0.00     0.275 C 
ATOM     50  O42 NH7 d   1      12.759 133.779   2.851  0.00  0.00    -0.266 OA
ATOM     51  N43 NH7 d   1      14.792 134.794   2.719  0.00  0.00    -0.182 N 
ATOM     52  H19 NH7 d   1      15.752 134.717   2.448  0.00  0.00     0.197 HD
BRANCH  51  53
ATOM     53  N44 NH7 d   1      14.326 136.024   3.341  0.00  0.00     0.015 N 
ATOM     54  C45 NH7 d   1      13.687 136.873   2.315  0.00  0.00     0.123 C 
ATOM     55  C46 NH7 d   1      13.264 138.201   2.923  0.00  0.00     0.044 C 
ATOM     56  H21 NH7 d   1      12.801 136.357   1.916  0.00  0.00     0.082 H 
ATOM     57  H22 NH7 d   1      14.402 137.058   1.499  0.00  0.00     0.082 H 
ATOM     58  O47 NH7 d   1      14.336 138.800   3.625  0.00  0.00    -0.388 OA
ATOM     59  H23 NH7 d   1      12.430 138.029   3.619  0.00  0.00     0.077 H 
ATOM     60  H24 NH7 d   1      12.938 138.877   2.119  0.00  0.00     0.077 H 
ATOM     61  C48 NH7 d   1      14.829 138.001   4.693  0.00  0.00     0.044 C 
ATOM     62  C49 NH7 d   1      15.402 136.713   4.104  0.00  0.00     0.123 C 
ATOM     63  H25 NH7 d   1      14.010 137.761   5.386  0.00  0.00     0.077 H 
ATOM     64  H26 NH7 d   1      15.618 138.546   5.232  0.00  0.00     0.077 H 
ATOM     65  H27 NH7 d   1      16.239 136.953   3.432  0.00  0.00     0.082 H 
ATOM     66  H28 NH7 d   1      15.758 136.060   4.915  0.00  0.00     0.082 H 
ATOM     67  H20 NH7 d   1      13.613 135.775   4.009  0.00  0.00     0.309 HD
ENDBRANCH  51  53
ENDBRANCH   5  49
TORSDOF 8
