REMARK  7 active torsions:
REMARK  status: ('A' for Active; 'I' for Inactive)
REMARK    1  A    between atoms: C7_2  and  C10_3 
REMARK    2  A    between atoms: C7_2  and  C21_10 
REMARK    3  A    between atoms: C5_22  and  C7_2 
REMARK    4  A    between atoms: C7_2  and  O8_24 
REMARK    5  A    between atoms: C14_7  and  N41_34 
REMARK    6  A    between atoms: C16_9  and  C31_14 
REMARK    7  A    between atoms: N1_19  and  C6_23 
ROOT
ATOM      1  C21 NH8 d   1      70.534  79.110  -0.560  0.00  0.00    -0.011 A 
ATOM      2  C22 NH8 d   1      71.023  77.917  -0.021  0.00  0.00    -0.072 A 
ATOM      3  C24 NH8 d   1      71.326  77.065  -2.271  0.00  0.00     0.044 A 
ATOM      4  C27 NH8 d   1      71.718  75.986  -3.116  0.00  0.00     0.099 C 
ATOM      5  C23 NH8 d   1      71.424  76.895  -0.884  0.00  0.00    -0.062 A 
ATOM      6  C25 NH8 d   1      70.835  78.271  -2.803  0.00  0.00    -0.062 A 
ATOM      7  C26 NH8 d   1      70.432  79.297  -1.942  0.00  0.00    -0.072 A 
ATOM      8  N28 NH8 d   1      71.985  75.090  -3.778  0.00  0.00    -0.191 NA
ATOM      9  H5  NH8 d   1      71.090  77.787   1.053  0.00  0.00     0.084 H 
ATOM     10  H14 NH8 d   1      71.812  75.967  -0.479  0.00  0.00     0.085 H 
ATOM     11  H15 NH8 d   1      70.769  78.405  -3.877  0.00  0.00     0.085 H 
ATOM     12  H16 NH8 d   1      70.045  80.227  -2.342  0.00  0.00     0.084 H 
ENDROOT
BRANCH   1  13
ATOM     13  C7  NH8 d   1      70.040  80.209   0.336  0.00  0.00     0.178 C 
BRANCH  13  14
ATOM     14  C10 NH8 d   1      68.590  79.856   0.594  0.00  0.00     0.100 C 
ATOM     15  C11 NH8 d   1      67.566  80.517   1.218  0.00  0.00    -0.038 C 
ATOM     16  C12 NH8 d   1      66.488  79.606   1.336  0.00  0.00     0.004 A 
ATOM     17  H2  NH8 d   1      67.578  81.551   1.560  0.00  0.00     0.088 H 
ATOM     18  C13 NH8 d   1      65.231  79.610   1.990  0.00  0.00    -0.038 A 
ATOM     19  C17 NH8 d   1      66.867  78.470   0.594  0.00  0.00     0.097 A 
ATOM     20  C14 NH8 d   1      64.441  78.462   1.855  0.00  0.00     0.104 A 
ATOM     21  H3  NH8 d   1      64.896  80.463   2.569  0.00  0.00     0.088 H 
ATOM     22  C15 NH8 d   1      64.819  77.335   1.055  0.00  0.00    -0.037 A 
ATOM     23  C16 NH8 d   1      66.031  77.330   0.356  0.00  0.00     0.011 A 
ATOM     24  H4  NH8 d   1      64.159  76.477   0.991  0.00  0.00     0.088 H 
ATOM     25  O9  NH8 d   1      68.140  78.640   0.151  0.00  0.00    -0.309 OA
BRANCH  20  26
ATOM     26  N41 NH8 d   1      63.159  78.412   2.580  0.00  0.00    -0.116 N 
ATOM     27  O42 NH8 d   1      62.566  79.488   2.793  0.00  0.00    -0.532 OA
ATOM     28  O43 NH8 d   1      62.703  77.308   2.955  0.00  0.00    -0.532 OA
ENDBRANCH  20  26
BRANCH  23  29
ATOM     29  C31 NH8 d   1      66.452  76.252  -0.570  0.00  0.00    -0.022 A 
ATOM     30  C32 NH8 d   1      65.616  75.833  -1.623  0.00  0.00    -0.072 A 
ATOM     31  C33 NH8 d   1      66.002  74.833  -2.509  0.00  0.00    -0.081 A 
ATOM     32  H6  NH8 d   1      64.647  76.302  -1.746  0.00  0.00     0.084 H 
ATOM     33  C34 NH8 d   1      67.250  74.228  -2.355  0.00  0.00    -0.063 A 
ATOM     34  H7  NH8 d   1      65.340  74.527  -3.311  0.00  0.00     0.083 H 
ATOM     35  C35 NH8 d   1      68.116  74.618  -1.315  0.00  0.00     0.045 A 
ATOM     36  H8  NH8 d   1      67.556  73.449  -3.044  0.00  0.00     0.085 H 
ATOM     37  C36 NH8 d   1      67.710  75.628  -0.429  0.00  0.00    -0.052 A 
ATOM     38  C37 NH8 d   1      69.404  73.985  -1.181  0.00  0.00     0.099 C 
ATOM     39  H17 NH8 d   1      68.371  75.933   0.374  0.00  0.00     0.087 H 
ATOM     40  N38 NH8 d   1      70.440  73.491  -1.108  0.00  0.00    -0.191 NA
ENDBRANCH  23  29
ENDBRANCH  13  14
BRANCH  13  41
ATOM     41  C5  NH8 d   1      70.767  80.287   1.664  0.00  0.00     0.076 A 
ATOM     42  N1  NH8 d   1      72.067  80.700   1.842  0.00  0.00    -0.345 N 
ATOM     43  C2  NH8 d   1      72.325  80.627   3.180  0.00  0.00     0.065 A 
ATOM     44  N3  NH8 d   1      71.298  80.202   3.861  0.00  0.00    -0.254 NA
ATOM     45  H1  NH8 d   1      73.281  80.894   3.628  0.00  0.00     0.143 H 
ATOM     46  C4  NH8 d   1      70.375  80.003   2.939  0.00  0.00     0.029 A 
ATOM     47  H9  NH8 d   1      69.377  79.640   3.178  0.00  0.00     0.118 H 
BRANCH  42  48
ATOM     48  C6  NH8 d   1      73.049  81.113   0.810  0.00  0.00    -0.013 C 
ATOM     49  H10 NH8 d   1      73.999  81.384   1.295  0.00  0.00     0.057 H 
ATOM     50  H11 NH8 d   1      72.658  81.981   0.259  0.00  0.00     0.057 H 
ATOM     51  H12 NH8 d   1      73.219  80.281   0.111  0.00  0.00     0.057 H 
ENDBRANCH  42  48
ENDBRANCH  13  41
BRANCH  13  52
ATOM     52  O8  NH8 d   1      70.139  81.477  -0.300  0.00  0.00    -0.372 OA
ATOM     53  H13 NH8 d   1      69.820  82.151   0.289  0.00  0.00     0.212 HD
ENDBRANCH  13  52
ENDBRANCH   1  13
TORSDOF 7
