REMARK  16 active torsions:
REMARK  status: ('A' for Active; 'I' for Inactive)
REMARK    1  A    between atoms: PA_1  and  O5B_4 
REMARK    2  A    between atoms: PA_1  and  O3_23 
REMARK    3  A    between atoms: O5B_4  and  C5B_5 
REMARK    4  A    between atoms: C5B_5  and  C4B_6 
REMARK    5  A    between atoms: C3B_8  and  O3B_9 
REMARK    6  A    between atoms: C2B_10  and  O2B_11 
REMARK    7  A    between atoms: C1B_12  and  N9A_13 
REMARK    8  A    between atoms: C6A_17  and  N6A_18 
REMARK    9  A    between atoms: O3_23  and  PN_24 
REMARK   10  A    between atoms: PN_24  and  O5D_27 
REMARK   11  A    between atoms: O5D_27  and  C5D_28 
REMARK   12  A    between atoms: C5D_28  and  C4D_29 
REMARK   13  A    between atoms: C3D_31  and  O3D_32 
REMARK   14  A    between atoms: C2D_33  and  O2D_34 
REMARK   15  A    between atoms: C1D_35  and  N1N_36 
REMARK   16  A    between atoms: C3N_38  and  C7N_39 
REMARK       I    between atoms: C7N_39  and  N7N_41 
ROOT
ATOM      1  O3  NON d   1       3.291  -6.051  92.766  0.00  0.00    -0.180 OA
ENDROOT
BRANCH   1   2
ATOM      2  PA  NON d   1       3.339  -5.001  93.986  0.00  0.00     0.417 P 
ATOM      3  O1A NON d   1       1.938  -4.613  94.358  0.00  0.00    -0.624 OA
ATOM      4  O2A NON d   1       4.247  -5.534  95.053  0.00  0.00    -0.624 OA
BRANCH   2   5
ATOM      5  O5B NON d   1       3.998  -3.703  93.314  0.00  0.00    -0.287 OA
BRANCH   5   6
ATOM      6  C5B NON d   1       3.154  -2.976  92.423  0.00  0.00     0.058 C 
ATOM      7  H   NON d   1       2.968  -2.005  92.882  0.00  0.00     0.079 H 
ATOM      8  H   NON d   1       2.262  -3.582  92.265  0.00  0.00     0.079 H 
BRANCH   6   9
ATOM      9  C4B NON d   1       3.761  -2.709  91.048  0.00  0.00     0.089 C 
ATOM     10  O4B NON d   1       4.139  -1.341  90.876  0.00  0.00    -0.353 OA
ATOM     11  C1B NON d   1       5.055  -1.324  89.783  0.00  0.00     0.139 C 
ATOM     12  C2B NON d   1       5.866  -2.608  89.902  0.00  0.00     0.105 C 
ATOM     13  H   NON d   1       4.513  -1.283  88.838  0.00  0.00     0.122 H 
ATOM     14  C3B NON d   1       4.976  -3.559  90.691  0.00  0.00     0.091 C 
ATOM     15  H   NON d   1       6.828  -2.458  90.393  0.00  0.00     0.093 H 
ATOM     16  H   NON d   1       5.485  -3.964  91.565  0.00  0.00     0.091 H 
ATOM     17  H   NON d   1       2.947  -2.985  90.378  0.00  0.00     0.090 H 
BRANCH  11  18
ATOM     18  N9A NON d   1       5.906  -0.104  89.725  0.00  0.00    -0.294 N 
ATOM     19  C8A NON d   1       5.823   0.857  88.792  0.00  0.00     0.071 A 
ATOM     20  N7A NON d   1       6.735   1.814  89.065  0.00  0.00    -0.236 NA
ATOM     21  H   NON d   1       5.131   0.864  87.950  0.00  0.00     0.144 H 
ATOM     22  C5A NON d   1       7.390   1.450  90.183  0.00  0.00     0.149 A 
ATOM     23  C6A NON d   1       8.416   2.038  90.914  0.00  0.00     0.155 A 
ATOM     24  C4A NON d   1       6.852   0.244  90.605  0.00  0.00     0.167 A 
ATOM     25  N1A NON d   1       8.869   1.412  92.022  0.00  0.00    -0.222 NA
ATOM     26  C2A NON d   1       8.343   0.243  92.412  0.00  0.00     0.091 A 
ATOM     27  N3A NON d   1       7.352  -0.344  91.723  0.00  0.00    -0.222 NA
ATOM     28  H   NON d   1       8.729  -0.242  93.309  0.00  0.00     0.146 H 
BRANCH  23  29
ATOM     29  N6A NON d   1       8.954   3.225  90.530  0.00  0.00    -0.382 N 
ATOM     30  H   NON d   1       8.605   3.697  89.695  0.00  0.00     0.157 HD
ATOM     31  H   NON d   1       9.706   3.644  91.076  0.00  0.00     0.157 HD
ENDBRANCH  23  29
ENDBRANCH  11  18
BRANCH  12  32
ATOM     32  O2B NON d   1       6.140  -3.126  88.598  0.00  0.00    -0.388 OA
ATOM     33  H   NON d   1       5.315  -3.243  88.121  0.00  0.00     0.210 HD
ENDBRANCH  12  32
BRANCH  14  34
ATOM     34  O3B NON d   1       4.596  -4.709  89.923  0.00  0.00    -0.390 OA
ATOM     35  H   NON d   1       3.985  -5.246  90.433  0.00  0.00     0.210 HD
ENDBRANCH  14  34
ENDBRANCH   6   9
ENDBRANCH   5   6
ENDBRANCH   2   5
ENDBRANCH   1   2
BRANCH   1  36
ATOM     36  PN  NON d   1       4.509  -7.056  92.444  0.00  0.00     0.417 P 
ATOM     37  O1N NON d   1       5.710  -6.705  93.275  0.00  0.00    -0.624 OA
ATOM     38  O2N NON d   1       4.654  -7.156  90.950  0.00  0.00    -0.624 OA
BRANCH  36  39
ATOM     39  O5D NON d   1       3.890  -8.428  92.993  0.00  0.00    -0.287 OA
BRANCH  39  40
ATOM     40  C5D NON d   1       3.839  -8.633  94.401  0.00  0.00     0.058 C 
ATOM     41  H   NON d   1       2.985  -8.083  94.796  0.00  0.00     0.079 H 
ATOM     42  H   NON d   1       4.779  -8.287  94.832  0.00  0.00     0.079 H 
BRANCH  40  43
ATOM     43  C4D NON d   1       3.665 -10.105  94.753  0.00  0.00     0.089 C 
ATOM     44  O4D NON d   1       4.229 -10.917  93.725  0.00  0.00    -0.353 OA
ATOM     45  C1D NON d   1       5.082 -11.925  94.267  0.00  0.00     0.136 C 
ATOM     46  C2D NON d   1       5.230 -11.653  95.754  0.00  0.00     0.105 C 
ATOM     47  H   NON d   1       4.671 -12.922  94.110  0.00  0.00     0.122 H 
ATOM     48  C3D NON d   1       4.425 -10.401  96.034  0.00  0.00     0.091 C 
ATOM     49  H   NON d   1       6.275 -11.523  96.036  0.00  0.00     0.093 H 
ATOM     50  H   NON d   1       5.069  -9.568  96.316  0.00  0.00     0.091 H 
ATOM     51  H   NON d   1       2.602 -10.318  94.867  0.00  0.00     0.090 H 
BRANCH  45  52
ATOM     52  N1N NON d   1       6.389 -11.834  93.606  0.00  0.00    -0.336 N 
ATOM     53  C2N NON d   1       6.562 -10.964  92.603  0.00  0.00    -0.003 A 
ATOM     54  C3N NON d   1       7.782 -10.861  91.943  0.00  0.00     0.047 A 
ATOM     55  H   NON d   1       5.733 -10.326  92.299  0.00  0.00     0.113 H 
ATOM     56  C4N NON d   1       8.834 -11.685  92.322  0.00  0.00    -0.065 A 
ATOM     57  C5N NON d   1       8.633 -12.585  93.357  0.00  0.00    -0.067 A 
ATOM     58  H   NON d   1       9.798 -11.625  91.816  0.00  0.00     0.085 H 
ATOM     59  C6N NON d   1       7.389 -12.644  93.978  0.00  0.00    -0.018 A 
ATOM     60  H   NON d   1       9.441 -13.240  93.681  0.00  0.00     0.085 H 
ATOM     61  H   NON d   1       7.225 -13.362  94.781  0.00  0.00     0.111 H 
BRANCH  54  62
ATOM     62  C7N NON d   1       7.935  -9.871  90.824  0.00  0.00     0.250 C 
ATOM     63  O7N NON d   1       8.896  -9.947  90.076  0.00  0.00    -0.268 OA
ATOM     64  N7N NON d   1       6.996  -8.943  90.664  0.00  0.00    -0.366 N 
ATOM     65  H   NON d   1       7.068  -8.271  89.900  0.00  0.00     0.159 HD
ATOM     66  H   NON d   1       6.204  -8.903  91.305  0.00  0.00     0.159 HD
ENDBRANCH  54  62
ENDBRANCH  45  52
BRANCH  46  67
ATOM     67  O2D NON d   1       4.718 -12.758  96.512  0.00  0.00    -0.388 OA
ATOM     68  H   NON d   1       4.772 -12.554  97.449  0.00  0.00     0.210 HD
ENDBRANCH  46  67
BRANCH  48  69
ATOM     69  O3D NON d   1       3.531 -10.598  97.132  0.00  0.00    -0.390 OA
ATOM     70  H   NON d   1       2.950 -11.338  96.942  0.00  0.00     0.210 HD
ENDBRANCH  48  69
ENDBRANCH  40  43
ENDBRANCH  39  40
ENDBRANCH  36  39
ENDBRANCH   1  36
TORSDOF 16
