REMARK  2 active torsions:
REMARK  status: ('A' for Active; 'I' for Inactive)
REMARK       I    between atoms: N7_1  and  C8_2 
REMARK    1  A    between atoms: N7_1  and  C5_5 
REMARK       I    between atoms: C8_2  and  N9_3 
REMARK    2  A    between atoms: N9_3  and  C10_11 
ROOT
ATOM      1  N7  BSU d   1      -3.683  -0.138  19.858  0.00  0.00    -0.309 N 
ATOM      2  C8  BSU d   1      -4.180   1.119  19.861  0.00  0.00     0.325 C 
ATOM      3  N9  BSU d   1      -3.225   2.072  19.792  0.00  0.00    -0.309 N 
ATOM      4  O11 BSU d   1      -5.383   1.359  19.927  0.00  0.00    -0.247 OA
ATOM      5  H1  BSU d   1      -2.686  -0.195  19.816  0.00  0.00     0.170 HD
ATOM      6  H2  BSU d   1      -2.287   1.730  19.739  0.00  0.00     0.170 HD
ENDROOT
BRANCH   1   7
ATOM      7  C5  BSU d   1      -4.319  -1.335  19.903  0.00  0.00     0.036 A 
ATOM      8  C4  BSU d   1      -3.438  -2.473  19.908  0.00  0.00    -0.057 A 
ATOM      9  C3  BSU d   1      -3.971  -3.803  19.956  0.00  0.00    -0.081 A 
ATOM     10  H3  BSU d   1      -2.365  -2.324  19.875  0.00  0.00     0.086 H 
ATOM     11  C2  BSU d   1      -5.393  -3.990  19.996  0.00  0.00    -0.083 A 
ATOM     12  H4  BSU d   1      -3.306  -4.659  19.962  0.00  0.00     0.083 H 
ATOM     13  C1  BSU d   1      -6.284  -2.884  19.991  0.00  0.00    -0.081 A 
ATOM     14  H5  BSU d   1      -5.795  -4.996  20.031  0.00  0.00     0.083 H 
ATOM     15  C6  BSU d   1      -5.751  -1.554  19.946  0.00  0.00    -0.057 A 
ATOM     16  H6  BSU d   1      -7.356  -3.044  20.021  0.00  0.00     0.083 H 
ATOM     17  H7  BSU d   1      -6.425  -0.705  19.944  0.00  0.00     0.086 H 
ENDBRANCH   1   7
BRANCH   3  18
ATOM     18  C10 BSU d   1      -3.347   3.433  19.784  0.00  0.00     0.036 A 
ATOM     19  C16 BSU d   1      -4.583   4.197  19.850  0.00  0.00    -0.057 A 
ATOM     20  C15 BSU d   1      -4.570   5.625  19.840  0.00  0.00    -0.081 A 
ATOM     21  H8  BSU d   1      -5.530   3.673  19.908  0.00  0.00     0.086 H 
ATOM     22  C14 BSU d   1      -3.308   6.306  19.763  0.00  0.00    -0.083 A 
ATOM     23  H9  BSU d   1      -5.497   6.185  19.890  0.00  0.00     0.083 H 
ATOM     24  C13 BSU d   1      -2.069   5.570  19.695  0.00  0.00    -0.081 A 
ATOM     25  H10 BSU d   1      -3.286   7.390  19.756  0.00  0.00     0.083 H 
ATOM     26  C12 BSU d   1      -2.098   4.139  19.706  0.00  0.00    -0.057 A 
ATOM     27  H11 BSU d   1      -1.123   6.097  19.636  0.00  0.00     0.083 H 
ATOM     28  H12 BSU d   1      -1.169   3.583  19.655  0.00  0.00     0.086 H 
ENDBRANCH   3  18
TORSDOF 2
