REMARK  3 active torsions:
REMARK  status: ('A' for Active; 'I' for Inactive)
REMARK    1  A    between atoms: C4_7  and  C8_8 
REMARK    2  A    between atoms: C8_8  and  N9_9 
REMARK    3  A    between atoms: N14_14  and  N15_15 
ROOT
ATOM      1  N9  IM4 d   1      30.474 -27.572 -27.810  0.00  0.00    -0.211 N 
ATOM      2  C13 IM4 d   1      31.277 -26.665 -26.973  0.00  0.00     0.027 A 
ATOM      3  C12 IM4 d   1      30.519 -26.532 -25.636  0.00  0.00     0.025 A 
ATOM      4  N11 IM4 d   1      29.327 -27.368 -25.782  0.00  0.00    -0.223 N 
ATOM      5  C10 IM4 d   1      29.313 -27.957 -27.066  0.00  0.00     0.695 A 
ATOM      6  N14 IM4 d   1      28.416 -28.768 -27.502  0.00  0.00    -0.072 N 
ATOM      7  H6  IM4 d   1      31.372 -25.682 -27.457  0.00  0.00     0.067 H 
ATOM      8  H7  IM4 d   1      32.278 -27.088 -26.804  0.00  0.00     0.067 H 
ATOM      9  H8  IM4 d   1      30.235 -25.485 -25.457  0.00  0.00     0.067 H 
ATOM     10  H9  IM4 d   1      31.141 -26.891 -24.803  0.00  0.00     0.067 H 
ATOM     11  H10 IM4 d   1      28.607 -27.506 -25.058  0.00  0.00     0.177 HD
ATOM     12  H11 IM4 d   1      28.623 -29.117 -28.449  0.00  0.00     0.212 HD
ENDROOT
BRANCH   1  13
ATOM     13  C8  IM4 d   1      30.862 -27.959 -29.182  0.00  0.00     0.037 C 
ATOM     14  H4  IM4 d   1      31.961 -27.958 -29.225  0.00  0.00     0.072 H 
ATOM     15  H5  IM4 d   1      30.489 -28.980 -29.353  0.00  0.00     0.072 H 
BRANCH  13  16
ATOM     16  C4  IM4 d   1      30.356 -27.084 -30.342  0.00  0.00    -0.022 A 
ATOM     17  C5  IM4 d   1      29.931 -27.673 -31.565  0.00  0.00    -0.071 A 
ATOM     18  C6  IM4 d   1      29.472 -26.852 -32.627  0.00  0.00    -0.043 A 
ATOM     19  H1  IM4 d   1      29.958 -28.750 -31.686  0.00  0.00     0.084 H 
ATOM     20  C1  IM4 d   1      29.452 -25.445 -32.427  0.00  0.00     0.125 A 
ATOM     21  H2  IM4 d   1      29.145 -27.286 -33.565  0.00  0.00     0.088 H 
ATOM     22 CL7  IM4 d   1      28.903 -24.405 -33.708  0.00  0.00    -0.062 Cl
ATOM     23  N2  IM4 d   1      29.853 -24.901 -31.270  0.00  0.00    -0.248 NA
ATOM     24  C3  IM4 d   1      30.293 -25.652 -30.244  0.00  0.00     0.011 A 
ATOM     25  H3  IM4 d   1      30.606 -25.168 -29.326  0.00  0.00     0.115 H 
ENDBRANCH  13  16
ENDBRANCH   1  13
BRANCH   6  26
ATOM     26  N15 IM4 d   1      27.243 -29.276 -26.993  0.00  0.00    -0.024 N 
ATOM     27  O16 IM4 d   1      26.805 -29.009 -25.796  0.00  0.00    -0.516 OA
ATOM     28  O17 IM4 d   1      26.552 -30.073 -27.729  0.00  0.00    -0.516 OA
ENDBRANCH   6  26
TORSDOF 3
