REMARK  4 active torsions:
REMARK  status: ('A' for Active; 'I' for Inactive)
REMARK       I    between atoms: N_1  and  C_2 
REMARK    1  A    between atoms: N_1  and  C1_5 
REMARK       I    between atoms: C_2  and  N1_3 
REMARK    2  A    between atoms: N1_3  and  C3_7 
REMARK    3  A    between atoms: N2_4  and  N5_13 
REMARK    4  A    between atoms: C1_5  and  C2_6 
ROOT
ATOM      1  N   CT4 d   1      30.848 -27.081 -28.519  0.00  0.00    -0.220 N 
ATOM      2  C   CT4 d   1      30.004 -27.387 -27.462  0.00  0.00     0.693 C 
ATOM      3  N1  CT4 d   1      30.611 -26.970 -26.284  0.00  0.00    -0.229 N 
ATOM      4  N2  CT4 d   1      28.841 -27.965 -27.736  0.00  0.00    -0.072 N 
ATOM      5  H1  CT4 d   1      31.744 -26.622 -28.300  0.00  0.00     0.178 HD
ATOM      6  H2  CT4 d   1      30.061 -27.140 -25.430  0.00  0.00     0.177 HD
ATOM      7  H3  CT4 d   1      28.607 -28.167 -28.718  0.00  0.00     0.212 HD
ENDROOT
BRANCH   1   8
ATOM      8  C1  CT4 d   1      30.554 -27.364 -29.918  0.00  0.00     0.040 C 
ATOM      9  H4  CT4 d   1      29.713 -28.072 -29.956  0.00  0.00     0.073 H 
ATOM     10  H5  CT4 d   1      31.444 -27.828 -30.369  0.00  0.00     0.073 H 
BRANCH   8  11
ATOM     11  C2  CT4 d   1      30.189 -26.159 -30.736  0.00  0.00     0.021 A 
ATOM     12  S   CT4 d   1      29.771 -26.317 -32.399  0.00  0.00    -0.060 SA
ATOM     13  C4  CT4 d   1      29.547 -24.630 -32.469  0.00  0.00     0.167 A 
ATOM     14  N4  CT4 d   1      29.751 -23.941 -31.370  0.00  0.00    -0.240 NA
ATOM     15 CL   CT4 d   1      29.074 -23.893 -33.939  0.00  0.00    -0.054 Cl
ATOM     16  C5  CT4 d   1      30.121 -24.821 -30.373  0.00  0.00     0.019 A 
ATOM     17  H9  CT4 d   1      30.346 -24.485 -29.362  0.00  0.00     0.116 H 
ENDBRANCH   8  11
ENDBRANCH   1   8
BRANCH   3  18
ATOM     18  C3  CT4 d   1      31.899 -26.332 -26.063  0.00  0.00    -0.005 C 
ATOM     19  H6  CT4 d   1      32.038 -26.149 -24.987  0.00  0.00     0.057 H 
ATOM     20  H7  CT4 d   1      31.932 -25.375 -26.605  0.00  0.00     0.057 H 
ATOM     21  H8  CT4 d   1      32.701 -26.989 -26.430  0.00  0.00     0.057 H 
ENDBRANCH   3  18
BRANCH   4  22
ATOM     22  N5  CT4 d   1      27.950 -28.299 -26.770  0.00  0.00    -0.024 N 
ATOM     23  O1  CT4 d   1      26.888 -28.847 -27.136  0.00  0.00    -0.516 OA
ATOM     24  O2  CT4 d   1      28.191 -28.053 -25.561  0.00  0.00    -0.516 OA
ENDBRANCH   4  22
TORSDOF 4
