REMARK  30 active torsions:
REMARK  status: ('A' for Active; 'I' for Inactive)
REMARK    1  A    between atoms: N_1  and  CA_2 
REMARK    2  A    between atoms: CA_2  and  C_3 
REMARK    3  A    between atoms: CA_2  and  CB_5 
REMARK       I    between atoms: C_3  and  N_12 
REMARK    4  A    between atoms: CB_5  and  CG_6 
REMARK    5  A    between atoms: N_12  and  CA_13 
REMARK    6  A    between atoms: CA_13  and  C_14 
REMARK    7  A    between atoms: CA_13  and  CB_16 
REMARK       I    between atoms: C_14  and  N_19 
REMARK    8  A    between atoms: CB_16  and  OG1_17 
REMARK    9  A    between atoms: CB_16  and  CG2_18 
REMARK   10  A    between atoms: N_19  and  CA_20 
REMARK   11  A    between atoms: CA_20  and  C_21 
REMARK   12  A    between atoms: CA_20  and  CB_23 
REMARK       I    between atoms: C_21  and  N_27 
REMARK   13  A    between atoms: CB_23  and  CG_24 
REMARK   14  A    between atoms: CG_24  and  CD1_25 
REMARK   15  A    between atoms: CG_24  and  CD2_26 
REMARK   16  A    between atoms: N_27  and  CA_28 
REMARK   17  A    between atoms: CA_28  and  C_29 
REMARK   18  A    between atoms: CA_28  and  CB_31 
REMARK       I    between atoms: C_29  and  N_35 
REMARK   19  A    between atoms: CB_31  and  CG_32 
REMARK   20  A    between atoms: N_35  and  CA_36 
REMARK   21  A    between atoms: CA_36  and  C_37 
REMARK   22  A    between atoms: CA_36  and  CB_39 
REMARK       I    between atoms: C_37  and  N_40 
REMARK   23  A    between atoms: N_40  and  CA_41 
REMARK   24  A    between atoms: CA_41  and  C_42 
REMARK   25  A    between atoms: CA_41  and  CB_44 
REMARK       I    between atoms: C_42  and  N_48 
REMARK   26  A    between atoms: CB_44  and  CG_45 
REMARK   27  A    between atoms: N_48  and  CA_49 
REMARK   28  A    between atoms: CA_49  and  C_50 
REMARK   29  A    between atoms: CA_49  and  CB_52 
REMARK   30  A    between atoms: CB_52  and  CG_53 
ROOT
ATOM      1  C   LEU d   1      18.844  21.494   2.677  0.00  0.00     0.241 C 
ATOM      2  O   LEU d   1      19.827  21.861   3.335  0.00  0.00    -0.271 OA
ATOM      3  N   ASP d   1      18.953  20.822   1.532  0.00  0.00    -0.346 N 
ATOM      4  H30 ASP d   1      18.124  20.544   1.046  0.00  0.00     0.163 HD
ENDROOT
BRANCH   1   5
ATOM      5  CA  LEU d   1      17.423  21.805   3.146  0.00  0.00     0.089 C 
ATOM      6  H20 LEU d   1      17.337  22.889   3.309  0.00  0.00     0.087 H 
BRANCH   5   7
ATOM      7  N   LEU d   1      16.462  21.418   2.118  0.00  0.00    -0.346 N 
ATOM      8  C   THR d   1      15.851  22.310   1.340  0.00  0.00     0.243 C 
ATOM      9  O   THR d   1      15.987  23.527   1.474  0.00  0.00    -0.271 OA
ATOM     10  H19 LEU d   1      16.255  20.448   1.993  0.00  0.00     0.163 HD
BRANCH   8  11
ATOM     11  CA  THR d   1      14.944  21.735   0.242  0.00  0.00     0.113 C 
ATOM     12  H13 THR d   1      14.712  20.697   0.523  0.00  0.00     0.091 H 
BRANCH  11  13
ATOM     13  N   THR d   1      13.660  22.429   0.104  0.00  0.00    -0.344 N 
ATOM     14  C   PHE d   1      12.517  21.763  -0.051  0.00  0.00     0.249 C 
ATOM     15  O   PHE d   1      12.448  20.531  -0.025  0.00  0.00    -0.271 OA
ATOM     16  H12 THR d   1      13.642  23.429   0.127  0.00  0.00     0.163 HD
BRANCH  14  17
ATOM     17  CA  PHE d   1      11.260  22.618  -0.256  0.00  0.00     0.179 C 
ATOM     18  H4  PHE d   1      11.565  23.675  -0.245  0.00  0.00     0.099 H 
BRANCH  17  19
ATOM     19  N   PHE d   1      10.621  22.347  -1.542  0.00  0.00    -0.066 N 
ATOM     20  H1  PHE d   1       9.802  22.926  -1.639  0.00  0.00     0.275 HD
ATOM     21  H2  PHE d   1      10.353  21.376  -1.586  0.00  0.00     0.275 HD
ATOM     22  H3  PHE d   1      11.267  22.552  -2.288  0.00  0.00     0.275 HD
ENDBRANCH  17  19
BRANCH  17  23
ATOM     23  CB  PHE d   1      10.264  22.396   0.885  0.00  0.00    -0.006 C 
ATOM     24  H5  PHE d   1       9.852  21.381   0.791  0.00  0.00     0.043 H 
ATOM     25  H6  PHE d   1       9.453  23.132   0.784  0.00  0.00     0.043 H 
BRANCH  23  26
ATOM     26  CG  PHE d   1      10.862  22.538   2.257  0.00  0.00    -0.056 A 
ATOM     27  CD1 PHE d   1      10.707  23.713   2.971  0.00  0.00    -0.077 A 
ATOM     28  CE1 PHE d   1      11.246  23.842   4.237  0.00  0.00    -0.082 A 
ATOM     29  H7  PHE d   1      10.158  24.539   2.534  0.00  0.00     0.084 H 
ATOM     30  CZ  PHE d   1      11.952  22.792   4.798  0.00  0.00    -0.083 A 
ATOM     31  H9  PHE d   1      11.116  24.765   4.790  0.00  0.00     0.083 H 
ATOM     32  CE2 PHE d   1      12.109  21.616   4.096  0.00  0.00    -0.082 A 
ATOM     33  H11 PHE d   1      12.381  22.894   5.788  0.00  0.00     0.083 H 
ATOM     34  CD2 PHE d   1      11.566  21.492   2.837  0.00  0.00    -0.077 A 
ATOM     35  H10 PHE d   1      12.659  20.791   4.534  0.00  0.00     0.083 H 
ATOM     36  H8  PHE d   1      11.690  20.564   2.291  0.00  0.00     0.084 H 
ENDBRANCH  23  26
ENDBRANCH  17  23
ENDBRANCH  14  17
ENDBRANCH  11  13
BRANCH  11  37
ATOM     37  CB  THR d   1      15.729  21.694  -1.100  0.00  0.00     0.060 C 
ATOM     38  H14 THR d   1      15.243  20.973  -1.774  0.00  0.00     0.086 H 
BRANCH  37  39
ATOM     39  OG1 THR d   1      17.078  21.273  -0.851  0.00  0.00    -0.393 OA
ATOM     40  H15 THR d   1      17.557  21.248  -1.671  0.00  0.00     0.210 HD
ENDBRANCH  37  39
BRANCH  37  41
ATOM     41  CG2 THR d   1      15.746  23.067  -1.773  0.00  0.00    -0.050 C 
ATOM     42  H16 THR d   1      16.307  23.006  -2.717  0.00  0.00     0.031 H 
ATOM     43  H17 THR d   1      16.229  23.796  -1.106  0.00  0.00     0.031 H 
ATOM     44  H18 THR d   1      14.714  23.387  -1.980  0.00  0.00     0.031 H 
ENDBRANCH  37  41
ENDBRANCH  11  37
ENDBRANCH   8  11
ENDBRANCH   5   7
BRANCH   5  45
ATOM     45  CB  LEU d   1      17.142  21.092   4.480  0.00  0.00    -0.035 C 
ATOM     46  H21 LEU d   1      17.883  21.468   5.201  0.00  0.00     0.037 H 
ATOM     47  H22 LEU d   1      17.311  20.019   4.306  0.00  0.00     0.037 H 
BRANCH  45  48
ATOM     48  CG  LEU d   1      15.767  21.217   5.156  0.00  0.00    -0.059 C 
ATOM     49  H23 LEU d   1      15.065  20.566   4.615  0.00  0.00     0.038 H 
BRANCH  48  50
ATOM     50  CD1 LEU d   1      15.833  20.748   6.603  0.00  0.00    -0.073 C 
ATOM     51  H24 LEU d   1      14.840  20.846   7.066  0.00  0.00     0.028 H 
ATOM     52  H25 LEU d   1      16.558  21.364   7.155  0.00  0.00     0.028 H 
ATOM     53  H26 LEU d   1      16.149  19.695   6.633  0.00  0.00     0.028 H 
ENDBRANCH  48  50
BRANCH  48  54
ATOM     54  CD2 LEU d   1      15.235  22.631   5.093  0.00  0.00    -0.073 C 
ATOM     55  H27 LEU d   1      15.191  22.960   4.044  0.00  0.00     0.028 H 
ATOM     56  H28 LEU d   1      15.901  23.299   5.659  0.00  0.00     0.028 H 
ATOM     57  H29 LEU d   1      14.226  22.663   5.529  0.00  0.00     0.028 H 
ENDBRANCH  48  54
ENDBRANCH  45  48
ENDBRANCH   5  45
ENDBRANCH   1   5
BRANCH   3  58
ATOM     58  CA  ASP d   1      20.265  20.482   0.969  0.00  0.00     0.098 C 
ATOM     59  H31 ASP d   1      21.031  20.762   1.707  0.00  0.00     0.088 H 
BRANCH  58  60
ATOM     60  C   ASP d   1      20.549  21.254  -0.320  0.00  0.00     0.241 C 
ATOM     61  O   ASP d   1      20.265  20.772  -1.421  0.00  0.00    -0.271 OA
ATOM     62  N   ALA d   1      21.107  22.451  -0.174  0.00  0.00    -0.346 N 
ATOM     63  H34 ALA d   1      21.296  22.791   0.748  0.00  0.00     0.163 HD
BRANCH  62  64
ATOM     64  CA  ALA d   1      21.452  23.283  -1.321  0.00  0.00     0.086 C 
ATOM     65  H35 ALA d   1      21.546  22.631  -2.202  0.00  0.00     0.086 H 
BRANCH  64  66
ATOM     66  C   ALA d   1      22.802  23.987  -1.106  0.00  0.00     0.240 C 
ATOM     67  O   ALA d   1      23.231  24.178   0.033  0.00  0.00    -0.271 OA
ATOM     68  N   ASP d   1      23.472  24.348  -2.202  0.00  0.00    -0.346 N 
ATOM     69  H39 ASP d   1      23.066  24.167  -3.098  0.00  0.00     0.163 HD
BRANCH  68  70
ATOM     70  CA  ASP d   1      24.784  25.002  -2.137  0.00  0.00     0.098 C 
ATOM     71  H40 ASP d   1      25.394  24.473  -1.390  0.00  0.00     0.088 H 
BRANCH  70  72
ATOM     72  C   ASP d   1      24.647  26.458  -1.707  0.00  0.00     0.241 C 
ATOM     73  O   ASP d   1      24.153  27.298  -2.467  0.00  0.00    -0.271 OA
ATOM     74  N   PHE d   1      25.071  26.767  -0.487  0.00  0.00    -0.344 N 
ATOM     75  H43 PHE d   1      25.453  26.059   0.107  0.00  0.00     0.163 HD
BRANCH  74  76
ATOM     76  CA  PHE d   1      24.976  28.148  -0.018  0.00  0.00     0.100 C 
ATOM     77  H44 PHE d   1      24.893  28.783  -0.913  0.00  0.00     0.090 H 
BRANCH  76  78
ATOM     78  C   PHE d   1      26.237  28.599   0.726  0.00  0.00     0.197 C 
ATOM     79  O   PHE d   1      26.418  29.801   0.949  0.00  0.00    -0.646 OA
ATOM     80  OXT PHE d   1      27.091  27.783   1.102  0.00  0.00    -0.646 OA
ENDBRANCH  76  78
BRANCH  76  81
ATOM     81  CB  PHE d   1      23.696  28.378   0.814  0.00  0.00    -0.013 C 
ATOM     82  H45 PHE d   1      22.846  27.948   0.265  0.00  0.00     0.043 H 
ATOM     83  H46 PHE d   1      23.548  29.462   0.927  0.00  0.00     0.043 H 
BRANCH  81  84
ATOM     84  CG  PHE d   1      23.733  27.760   2.188  0.00  0.00    -0.056 A 
ATOM     85  CD1 PHE d   1      24.271  28.455   3.262  0.00  0.00    -0.077 A 
ATOM     86  CE1 PHE d   1      24.303  27.895   4.521  0.00  0.00    -0.082 A 
ATOM     87  H47 PHE d   1      24.671  29.451   3.109  0.00  0.00     0.084 H 
ATOM     88  CZ  PHE d   1      23.797  26.632   4.725  0.00  0.00    -0.083 A 
ATOM     89  H49 PHE d   1      24.727  28.450   5.350  0.00  0.00     0.083 H 
ATOM     90  CE2 PHE d   1      23.254  25.929   3.665  0.00  0.00    -0.082 A 
ATOM     91  H51 PHE d   1      23.824  26.189   5.714  0.00  0.00     0.083 H 
ATOM     92  CD2 PHE d   1      23.221  26.495   2.407  0.00  0.00    -0.077 A 
ATOM     93  H50 PHE d   1      22.855  24.934   3.822  0.00  0.00     0.083 H 
ATOM     94  H48 PHE d   1      22.789  25.941   1.581  0.00  0.00     0.084 H 
ENDBRANCH  81  84
ENDBRANCH  76  81
ENDBRANCH  74  76
ENDBRANCH  70  72
BRANCH  70  95
ATOM     95  CB  ASP d   1      25.510  24.938  -3.491  0.00  0.00     0.043 C 
ATOM     96  H41 ASP d   1      26.246  25.755  -3.534  0.00  0.00     0.052 H 
ATOM     97  H42 ASP d   1      24.769  25.070  -4.293  0.00  0.00     0.052 H 
BRANCH  95  98
ATOM     98  CG  ASP d   1      26.240  23.610  -3.713  0.00  0.00     0.175 C 
ATOM     99  OD1 ASP d   1      26.479  23.251  -4.892  0.00  0.00    -0.648 OA
ATOM    100  OD2 ASP d   1      26.578  22.927  -2.716  0.00  0.00    -0.648 OA
ENDBRANCH  95  98
ENDBRANCH  70  95
ENDBRANCH  68  70
ENDBRANCH  64  66
BRANCH  64 101
ATOM    101  CB  ALA d   1      20.340  24.291  -1.594  0.00  0.00    -0.049 C 
ATOM    102  H36 ALA d   1      20.612  24.912  -2.461  0.00  0.00     0.030 H 
ATOM    103  H37 ALA d   1      20.203  24.933  -0.712  0.00  0.00     0.030 H 
ATOM    104  H38 ALA d   1      19.403  23.755  -1.807  0.00  0.00     0.030 H 
ENDBRANCH  64 101
ENDBRANCH  62  64
ENDBRANCH  58  60
BRANCH  58 105
ATOM    105  CB  ASP d   1      20.373  18.974   0.717  0.00  0.00     0.043 C 
ATOM    106  H32 ASP d   1      21.428  18.676   0.805  0.00  0.00     0.052 H 
ATOM    107  H33 ASP d   1      20.015  18.759  -0.301  0.00  0.00     0.052 H 
BRANCH 105 108
ATOM    108  CG  ASP d   1      19.554  18.163   1.703  0.00  0.00     0.175 C 
ATOM    109  OD1 ASP d   1      18.347  17.952   1.439  0.00  0.00    -0.648 OA
ATOM    110  OD2 ASP d   1      20.117  17.736   2.737  0.00  0.00    -0.648 OA
ENDBRANCH 105 108
ENDBRANCH  58 105
ENDBRANCH   3  58
TORSDOF 30
