REMARK  30 active torsions:
REMARK  status: ('A' for Active; 'I' for Inactive)
REMARK    1  A    between atoms: O2_2  and  C3_3 
REMARK    2  A    between atoms: C17_17  and  O2_2 
REMARK    3  A    between atoms: C3_3  and  C4_4 
REMARK       I    between atoms: N28_28  and  C17_17 
REMARK    4  A    between atoms: C18_18  and  C19_19 
REMARK    5  A    between atoms: N37_37  and  C18_18 
REMARK    6  A    between atoms: C19_19  and  C21_21 
REMARK    7  A    between atoms: C21_21  and  C22_22 
REMARK    8  A    between atoms: C21_21  and  N28_28 
REMARK    9  A    between atoms: N28_28  and  C29_29 
REMARK   10  A    between atoms: C32_32  and  C31_31 
REMARK       I    between atoms: C31_31  and  N38_38 
REMARK   11  A    between atoms: C32_32  and  C33_33 
REMARK   12  A    between atoms: C32_32  and  N37_37 
REMARK   13  A    between atoms: C33_33  and  C34_34 
REMARK   14  A    between atoms: C34_34  and  C35_35 
REMARK   15  A    between atoms: C34_34  and  C36_36 
REMARK   16  A    between atoms: N38_38  and  C39_39 
REMARK   17  A    between atoms: C39_39  and  C40_40 
REMARK   18  A    between atoms: C39_39  and  C44_44 
REMARK   19  A    between atoms: C40_40  and  C41_41 
REMARK       I    between atoms: C44_44  and  N46_46 
REMARK   20  A    between atoms: N46_46  and  C47_47 
REMARK   21  A    between atoms: C47_47  and  C48_48 
REMARK   22  A    between atoms: C47_47  and  C54_54 
REMARK       I    between atoms: C54_54  and  N56_56 
REMARK   23  A    between atoms: N56_56  and  C57_57 
REMARK   24  A    between atoms: C57_57  and  C58_58 
REMARK   25  A    between atoms: C57_57  and  C62_62 
REMARK   26  A    between atoms: C58_58  and  C59_59 
REMARK       I    between atoms: C62_62  and  N64_64 
REMARK   27  A    between atoms: N64_64  and  C65_65 
REMARK   28  A    between atoms: C65_65  and  C66_66 
REMARK   29  A    between atoms: C65_65  and  C69_69 
REMARK   30  A    between atoms: C69_69  and  C70_70 
ROOT
ATOM      1  O30 MRT d   1      19.326  21.121  -2.271  0.00  0.00    -0.271 OA
ATOM      2  C31 MRT d   1      19.171  21.726  -1.218  0.00  0.00     0.249 C 
ATOM      3  N38 MRT d   1      20.198  22.209  -0.504  0.00  0.00    -0.345 N 
ATOM      4  H35 MRT d   1      20.007  22.690   0.352  0.00  0.00     0.163 HD
ENDROOT
BRANCH   2   5
ATOM      5  C32 MRT d   1      17.791  21.941  -0.639  0.00  0.00     0.178 C 
ATOM      6  H23 MRT d   1      17.620  23.022  -0.533  0.00  0.00     0.099 H 
BRANCH   5   7
ATOM      7  C33 MRT d   1      17.800  21.265   0.734  0.00  0.00    -0.027 C 
ATOM      8  H24 MRT d   1      18.516  21.793   1.380  0.00  0.00     0.037 H 
ATOM      9  H25 MRT d   1      18.121  20.220   0.608  0.00  0.00     0.037 H 
BRANCH   7  10
ATOM     10  C34 MRT d   1      16.436  21.276   1.411  0.00  0.00    -0.059 C 
ATOM     11  H26 MRT d   1      15.667  21.360   0.629  0.00  0.00     0.038 H 
BRANCH  10  12
ATOM     12  C35 MRT d   1      16.294  22.464   2.352  0.00  0.00    -0.073 C 
ATOM     13  H27 MRT d   1      15.300  22.442   2.823  0.00  0.00     0.028 H 
ATOM     14  H28 MRT d   1      16.409  23.398   1.783  0.00  0.00     0.028 H 
ATOM     15  H29 MRT d   1      17.070  22.410   3.130  0.00  0.00     0.028 H 
ENDBRANCH  10  12
BRANCH  10  16
ATOM     16  C36 MRT d   1      16.202  19.983   2.179  0.00  0.00    -0.073 C 
ATOM     17  H30 MRT d   1      16.305  19.127   1.496  0.00  0.00     0.028 H 
ATOM     18  H31 MRT d   1      15.189  19.989   2.608  0.00  0.00     0.028 H 
ATOM     19  H32 MRT d   1      16.942  19.898   2.988  0.00  0.00     0.028 H 
ENDBRANCH  10  16
ENDBRANCH   7  10
ENDBRANCH   5   7
BRANCH   5  20
ATOM     20  N37 MRT d   1      16.678  21.371  -1.396  0.00  0.00    -0.056 N 
ATOM     21  H33 MRT d   1      16.759  20.374  -1.271  0.00  0.00     0.278 HD
ATOM     22  H34 MRT d   1      15.848  21.701  -0.930  0.00  0.00     0.278 HD
BRANCH  20  23
ATOM     23  C18 MRT d   1      16.412  21.554  -2.819  0.00  0.00     0.138 C 
ATOM     24  H12 MRT d   1      15.685  22.370  -2.942  0.00  0.00     0.087 H 
ATOM     25  H13 MRT d   1      17.352  21.820  -3.325  0.00  0.00     0.087 H 
BRANCH  23  26
ATOM     26  C19 MRT d   1      15.848  20.290  -3.461  0.00  0.00     0.174 C 
ATOM     27  O20 MRT d   1      16.469  19.792  -4.395  0.00  0.00    -0.294 OA
BRANCH  26  28
ATOM     28  C21 MRT d   1      14.566  19.617  -2.989  0.00  0.00     0.088 C 
ATOM     29  H14 MRT d   1      14.261  18.928  -3.791  0.00  0.00     0.084 H 
BRANCH  28  30
ATOM     30  C22 MRT d   1      14.898  18.749  -1.813  0.00  0.00    -0.033 A 
ATOM     31  C23 MRT d   1      16.076  18.005  -1.865  0.00  0.00    -0.075 A 
ATOM     32  C24 MRT d   1      16.434  17.172  -0.808  0.00  0.00    -0.082 A 
ATOM     33  H15 MRT d   1      16.718  18.076  -2.735  0.00  0.00     0.084 H 
ATOM     34  C25 MRT d   1      15.620  17.068   0.316  0.00  0.00    -0.083 A 
ATOM     35  H16 MRT d   1      17.354  16.600  -0.861  0.00  0.00     0.083 H 
ATOM     36  C26 MRT d   1      14.443  17.804   0.378  0.00  0.00    -0.082 A 
ATOM     37  H17 MRT d   1      15.902  16.418   1.137  0.00  0.00     0.083 H 
ATOM     38  C27 MRT d   1      14.091  18.637  -0.680  0.00  0.00    -0.075 A 
ATOM     39  H18 MRT d   1      13.801  17.730   1.248  0.00  0.00     0.083 H 
ATOM     40  H19 MRT d   1      13.172  19.210  -0.623  0.00  0.00     0.084 H 
ENDBRANCH  28  30
BRANCH  28  41
ATOM     41  N28 MRT d   1      13.415  20.565  -2.844  0.00  0.00    -0.216 NA
ATOM     42  C17 MRT d   1      12.103  19.957  -2.719  0.00  0.00     0.341 C 
ATOM     43  O1  MRT d   1      11.878  19.023  -1.968  0.00  0.00    -0.245 OA
BRANCH  42  44
ATOM     44  O2  MRT d   1      10.992  20.440  -3.532  0.00  0.00    -0.307 OA
BRANCH  44  45
ATOM     45  C3  MRT d   1      10.573  21.797  -3.427  0.00  0.00     0.041 C 
ATOM     46  H1  MRT d   1      10.306  22.037  -2.387  0.00  0.00     0.076 H 
ATOM     47  H2  MRT d   1       9.708  21.983  -4.080  0.00  0.00     0.076 H 
BRANCH  45  48
ATOM     48  C4  MRT d   1      11.766  22.629  -3.875  0.00  0.00     0.020 A 
ATOM     49  C5  MRT d   1      11.570  24.054  -3.617  0.00  0.00    -0.036 A 
ATOM     50  C6  MRT d   1      11.409  24.664  -2.383  0.00  0.00    -0.075 A 
ATOM     51  C15 MRT d   1      11.567  24.782  -4.786  0.00  0.00    -0.018 A 
ATOM     52  C7  MRT d   1      11.237  26.045  -2.373  0.00  0.00    -0.082 A 
ATOM     53  H4  MRT d   1      11.417  24.089  -1.464  0.00  0.00     0.084 H 
ATOM     54  C8  MRT d   1      11.229  26.774  -3.566  0.00  0.00    -0.082 A 
ATOM     55  H5  MRT d   1      11.108  26.562  -1.429  0.00  0.00     0.083 H 
ATOM     56  C16 MRT d   1      11.398  26.153  -4.801  0.00  0.00    -0.072 A 
ATOM     57  H6  MRT d   1      11.088  27.848  -3.529  0.00  0.00     0.083 H 
ATOM     58  H11 MRT d   1      11.397  26.717  -5.727  0.00  0.00     0.084 H 
ATOM     59  C14 MRT d   1      11.749  23.914  -5.841  0.00  0.00    -0.018 A 
ATOM     60  C9  MRT d   1      11.869  22.643  -5.334  0.00  0.00    -0.036 A 
ATOM     61  C13 MRT d   1      11.812  24.180  -7.197  0.00  0.00    -0.072 A 
ATOM     62  C10 MRT d   1      12.062  21.553  -6.167  0.00  0.00    -0.075 A 
ATOM     63  C11 MRT d   1      12.130  21.795  -7.536  0.00  0.00    -0.082 A 
ATOM     64  H7  MRT d   1      12.156  20.550  -5.768  0.00  0.00     0.084 H 
ATOM     65  C12 MRT d   1      12.007  23.090  -8.044  0.00  0.00    -0.082 A 
ATOM     66  H8  MRT d   1      12.281  20.966  -8.218  0.00  0.00     0.083 H 
ATOM     67  H9  MRT d   1      12.064  23.250  -9.115  0.00  0.00     0.083 H 
ATOM     68  H10 MRT d   1      11.714  25.188  -7.583  0.00  0.00     0.084 H 
ATOM     69  H3  MRT d   1      12.683  22.250  -3.399  0.00  0.00     0.058 H 
ENDBRANCH  45  48
ENDBRANCH  44  45
ENDBRANCH  42  44
BRANCH  41  70
ATOM     70  C29 MRT d   1      13.671  21.554  -1.773  0.00  0.00    -0.023 C 
ATOM     71  H20 MRT d   1      12.811  22.235  -1.690  0.00  0.00     0.049 H 
ATOM     72  H21 MRT d   1      14.575  22.132  -2.016  0.00  0.00     0.049 H 
ATOM     73  H22 MRT d   1      13.818  21.030  -0.817  0.00  0.00     0.049 H 
ENDBRANCH  41  70
ENDBRANCH  28  41
ENDBRANCH  26  28
ENDBRANCH  23  26
ENDBRANCH  20  23
ENDBRANCH   5  20
ENDBRANCH   2   5
BRANCH   3  74
ATOM     74  C39 MRT d   1      21.589  22.057  -0.933  0.00  0.00     0.098 C 
ATOM     75  H36 MRT d   1      21.755  21.007  -1.217  0.00  0.00     0.088 H 
BRANCH  74  76
ATOM     76  C40 MRT d   1      21.811  22.949  -2.157  0.00  0.00     0.043 C 
ATOM     77  H37 MRT d   1      21.013  22.749  -2.887  0.00  0.00     0.052 H 
ATOM     78  H38 MRT d   1      22.786  22.699  -2.602  0.00  0.00     0.052 H 
BRANCH  76  79
ATOM     79  C41 MRT d   1      21.798  24.424  -1.818  0.00  0.00     0.175 C 
ATOM     80  O42 MRT d   1      22.649  24.881  -1.021  0.00  0.00    -0.648 OA
ATOM     81  O43 MRT d   1      20.934  25.143  -2.368  0.00  0.00    -0.648 OA
ENDBRANCH  76  79
ENDBRANCH  74  76
BRANCH  74  82
ATOM     82  C44 MRT d   1      22.578  22.415   0.148  0.00  0.00     0.241 C 
ATOM     83  O45 MRT d   1      22.186  22.841   1.222  0.00  0.00    -0.271 OA
ATOM     84  N46 MRT d   1      23.873  22.238  -0.139  0.00  0.00    -0.346 N 
ATOM     85  H39 MRT d   1      24.119  21.890  -1.044  0.00  0.00     0.163 HD
BRANCH  84  86
ATOM     86  C47 MRT d   1      24.944  22.531   0.813  0.00  0.00     0.093 C 
ATOM     87  H40 MRT d   1      24.519  23.035   1.694  0.00  0.00     0.088 H 
BRANCH  86  88
ATOM     88  C48 MRT d   1      25.531  21.180   1.218  0.00  0.00    -0.026 C 
ATOM     89  C49 MRT d   1      26.441  21.316   2.437  0.00  0.00    -0.059 C 
ATOM     90  C50 MRT d   1      25.653  21.712   3.681  0.00  0.00    -0.065 C 
ATOM     91  H42 MRT d   1      27.199  22.087   2.233  0.00  0.00     0.033 H 
ATOM     92  H43 MRT d   1      26.939  20.352   2.621  0.00  0.00     0.033 H 
ATOM     93  C51 MRT d   1      24.548  20.700   3.965  0.00  0.00    -0.065 C 
ATOM     94  H44 MRT d   1      25.203  22.703   3.523  0.00  0.00     0.033 H 
ATOM     95  H45 MRT d   1      26.335  21.753   4.543  0.00  0.00     0.033 H 
ATOM     96  C52 MRT d   1      23.636  20.546   2.754  0.00  0.00    -0.065 C 
ATOM     97  H46 MRT d   1      23.953  21.046   4.823  0.00  0.00     0.033 H 
ATOM     98  H47 MRT d   1      25.002  19.726   4.202  0.00  0.00     0.033 H 
ATOM     99  C53 MRT d   1      24.438  20.158   1.515  0.00  0.00    -0.059 C 
ATOM    100  H48 MRT d   1      23.122  21.500   2.566  0.00  0.00     0.033 H 
ATOM    101  H49 MRT d   1      22.892  19.763   2.961  0.00  0.00     0.033 H 
ATOM    102  H50 MRT d   1      24.903  19.175   1.683  0.00  0.00     0.033 H 
ATOM    103  H51 MRT d   1      23.758  20.100   0.652  0.00  0.00     0.033 H 
ATOM    104  H41 MRT d   1      26.133  20.807   0.376  0.00  0.00     0.043 H 
ENDBRANCH  86  88
BRANCH  86 105
ATOM    105  C54 MRT d   1      26.031  23.408   0.237  0.00  0.00     0.241 C 
ATOM    106  O55 MRT d   1      26.889  23.881   0.973  0.00  0.00    -0.271 OA
ATOM    107  N56 MRT d   1      26.004  23.641  -1.084  0.00  0.00    -0.345 N 
ATOM    108  H52 MRT d   1      25.288  23.212  -1.634  0.00  0.00     0.163 HD
BRANCH 107 109
ATOM    109  C57 MRT d   1      26.984  24.500  -1.750  0.00  0.00     0.098 C 
ATOM    110  H53 MRT d   1      28.004  24.274  -1.406  0.00  0.00     0.088 H 
BRANCH 109 111
ATOM    111  C58 MRT d   1      26.869  24.228  -3.248  0.00  0.00     0.043 C 
ATOM    112  H54 MRT d   1      26.722  23.150  -3.409  0.00  0.00     0.052 H 
ATOM    113  H55 MRT d   1      27.796  24.550  -3.746  0.00  0.00     0.052 H 
BRANCH 111 114
ATOM    114  C59 MRT d   1      25.700  24.982  -3.840  0.00  0.00     0.175 C 
ATOM    115  O60 MRT d   1      25.914  26.084  -4.398  0.00  0.00    -0.648 OA
ATOM    116  O61 MRT d   1      24.559  24.470  -3.764  0.00  0.00    -0.648 OA
ENDBRANCH 111 114
ENDBRANCH 109 111
BRANCH 109 117
ATOM    117  C62 MRT d   1      26.629  25.917  -1.400  0.00  0.00     0.241 C 
ATOM    118  O63 MRT d   1      27.184  26.886  -1.892  0.00  0.00    -0.271 OA
ATOM    119  N64 MRT d   1      25.643  25.946  -0.509  0.00  0.00    -0.344 N 
ATOM    120  H56 MRT d   1      25.294  25.042  -0.263  0.00  0.00     0.163 HD
BRANCH 119 121
ATOM    121  C65 MRT d   1      24.980  27.034   0.171  0.00  0.00     0.100 C 
ATOM    122  H57 MRT d   1      24.309  27.630  -0.466  0.00  0.00     0.090 H 
BRANCH 121 123
ATOM    123  C66 MRT d   1      26.062  27.879   0.766  0.00  0.00     0.197 C 
ATOM    124  O67 MRT d   1      25.933  29.132   0.781  0.00  0.00    -0.646 OA
ATOM    125  O68 MRT d   1      27.074  27.270   1.212  0.00  0.00    -0.646 OA
ENDBRANCH 121 123
BRANCH 121 126
ATOM    126  C69 MRT d   1      24.243  26.212   1.200  0.00  0.00    -0.013 C 
ATOM    127  H58 MRT d   1      24.693  25.212   1.110  0.00  0.00     0.043 H 
ATOM    128  H59 MRT d   1      23.210  26.184   0.823  0.00  0.00     0.043 H 
BRANCH 126 129
ATOM    129  C70 MRT d   1      24.082  26.397   2.661  0.00  0.00    -0.056 A 
ATOM    130  C71 MRT d   1      24.588  27.488   3.352  0.00  0.00    -0.077 A 
ATOM    131  C72 MRT d   1      24.389  27.591   4.721  0.00  0.00    -0.082 A 
ATOM    132  H60 MRT d   1      25.138  28.258   2.824  0.00  0.00     0.084 H 
ATOM    133  C73 MRT d   1      23.682  26.608   5.397  0.00  0.00    -0.083 A 
ATOM    134  H61 MRT d   1      24.787  28.441   5.263  0.00  0.00     0.083 H 
ATOM    135  C74 MRT d   1      23.171  25.514   4.711  0.00  0.00    -0.082 A 
ATOM    136  H62 MRT d   1      23.527  26.694   6.466  0.00  0.00     0.083 H 
ATOM    137  C75 MRT d   1      23.374  25.413   3.342  0.00  0.00    -0.077 A 
ATOM    138  H63 MRT d   1      22.619  24.746   5.240  0.00  0.00     0.083 H 
ATOM    139  H64 MRT d   1      22.978  24.562   2.800  0.00  0.00     0.084 H 
ENDBRANCH 126 129
ENDBRANCH 121 126
ENDBRANCH 119 121
ENDBRANCH 109 117
ENDBRANCH 107 109
ENDBRANCH  86 105
ENDBRANCH  84  86
ENDBRANCH  74  82
ENDBRANCH   3  74
TORSDOF 30
