REMARK  3 active torsions:
REMARK  status: ('A' for Active; 'I' for Inactive)
REMARK    1  A    between atoms: C17_3  and  N16_8 
REMARK    2  A    between atoms: N16_8  and  C2_9 
REMARK    3  A    between atoms: C5_12  and  C10_18 
ROOT
ATOM      1  C2  KSF d   1      22.239  36.971   8.093  0.00  0.00     0.156 A 
ATOM      2  N3  KSF d   1      22.558  35.924   7.300  0.00  0.00    -0.239 NA
ATOM      3  C4  KSF d   1      23.824  35.504   7.178  0.00  0.00     0.032 A 
ATOM      4  C5  KSF d   1      24.900  36.075   7.828  0.00  0.00     0.068 A 
ATOM      5  N6  KSF d   1      24.657  37.122   8.659  0.00  0.00    -0.299 N 
ATOM      6  C7  KSF d   1      25.473  37.877   9.405  0.00  0.00     0.071 A 
ATOM      7  N8  KSF d   1      24.749  38.804  10.058  0.00  0.00    -0.253 NA
ATOM      8  C9  KSF d   1      23.448  38.680   9.742  0.00  0.00     0.033 A 
ATOM      9  C1  KSF d   1      23.387  37.592   8.816  0.00  0.00     0.104 A 
ATOM     10  H6  KSF d   1      24.017  34.656   6.523  0.00  0.00     0.118 H 
ATOM     11  H7  KSF d   1      26.553  37.759   9.473  0.00  0.00     0.144 H 
ATOM     12  H8  KSF d   1      22.618  39.280  10.112  0.00  0.00     0.118 H 
ENDROOT
BRANCH   1  13
ATOM     13  N16 KSF d   1      20.941  37.420   8.252  0.00  0.00    -0.338 N 
ATOM     14  H5  KSF d   1      20.755  38.071   9.028  0.00  0.00     0.167 HD
BRANCH  13  15
ATOM     15  C17 KSF d   1      19.882  37.066   7.457  0.00  0.00     0.055 A 
ATOM     16  C18 KSF d   1      19.775  37.624   6.076  0.00  0.00     0.060 A 
ATOM     17 CL23 KSF d   1      21.026  38.793   5.523  0.00  0.00    -0.082 Cl
ATOM     18  C19 KSF d   1      18.696  37.273   5.255  0.00  0.00    -0.060 A 
ATOM     19  C20 KSF d   1      17.740  36.363   5.735  0.00  0.00    -0.081 A 
ATOM     20  H4  KSF d   1      18.600  37.698   4.262  0.00  0.00     0.086 H 
ATOM     21  C21 KSF d   1      17.848  35.840   7.030  0.00  0.00    -0.081 A 
ATOM     22  H3  KSF d   1      16.914  36.064   5.100  0.00  0.00     0.083 H 
ATOM     23  C22 KSF d   1      18.903  36.169   7.891  0.00  0.00    -0.056 A 
ATOM     24  H2  KSF d   1      17.085  35.154   7.380  0.00  0.00     0.083 H 
ATOM     25  H1  KSF d   1      18.959  35.733   8.882  0.00  0.00     0.087 H 
ENDBRANCH  13  15
ENDBRANCH   1  13
BRANCH   4  26
ATOM     26  C10 KSF d   1      26.260  35.461   7.566  0.00  0.00    -0.007 A 
ATOM     27  C11 KSF d   1      26.570  34.972   6.270  0.00  0.00    -0.071 A 
ATOM     28  C12 KSF d   1      27.809  34.359   5.977  0.00  0.00    -0.082 A 
ATOM     29  H9  KSF d   1      25.834  35.072   5.481  0.00  0.00     0.084 H 
ATOM     30  C13 KSF d   1      28.748  34.218   7.007  0.00  0.00    -0.083 A 
ATOM     31  H10 KSF d   1      28.028  34.005   4.976  0.00  0.00     0.083 H 
ATOM     32  C14 KSF d   1      28.434  34.665   8.316  0.00  0.00    -0.082 A 
ATOM     33  H11 KSF d   1      29.713  33.768   6.804  0.00  0.00     0.083 H 
ATOM     34  C15 KSF d   1      27.202  35.285   8.587  0.00  0.00    -0.071 A 
ATOM     35  H12 KSF d   1      29.152  34.527   9.116  0.00  0.00     0.083 H 
ATOM     36  H13 KSF d   1      26.980  35.629   9.591  0.00  0.00     0.084 H 
ENDBRANCH   4  26
TORSDOF 3
