REMARK  5 active torsions:
REMARK  status: ('A' for Active; 'I' for Inactive)
REMARK    1  A    between atoms: C3_3  and  N2_13 
REMARK    2  A    between atoms: C6_6  and  C7_7 
REMARK    3  A    between atoms: C7_7  and  N1_8 
REMARK    4  A    between atoms: N2_13  and  C12_14 
REMARK    5  A    between atoms: C12_14  and  C13_15 
ROOT
ATOM      1  C1  575 d   1      36.412  82.261  56.894  0.00  0.00    -0.073 A 
ATOM      2  C2  575 d   1      36.736  80.965  56.476  0.00  0.00    -0.057 A 
ATOM      3  C3  575 d   1      37.063  79.959  57.404  0.00  0.00     0.031 A 
ATOM      4  C4  575 d   1      37.050  80.294  58.763  0.00  0.00    -0.057 A 
ATOM      5  C5  575 d   1      36.727  81.586  59.181  0.00  0.00    -0.073 A 
ATOM      6  C6  575 d   1      36.402  82.583  58.257  0.00  0.00    -0.032 A 
ATOM      7  H1  575 d   1      36.168  83.019  56.159  0.00  0.00     0.084 H 
ATOM      8  H2  575 d   1      36.735  80.732  55.417  0.00  0.00     0.086 H 
ATOM      9  H3  575 d   1      37.294  79.539  59.502  0.00  0.00     0.086 H 
ATOM     10  H4  575 d   1      36.728  81.820  60.239  0.00  0.00     0.084 H 
ENDROOT
BRANCH   3  11
ATOM     11  N2  575 d   1      37.385  78.667  56.945  0.00  0.00    -0.365 N 
ATOM     12  H16 575 d   1      37.116  78.441  55.977  0.00  0.00     0.165 HD
BRANCH  11  13
ATOM     13  C12 575 d   1      38.020  77.678  57.653  0.00  0.00    -0.006 C 
ATOM     14  H17 575 d   1      38.087  77.877  58.722  0.00  0.00     0.112 H 
BRANCH  13  15
ATOM     15  C13 575 d   1      38.578  76.506  57.282  0.00  0.00     0.059 A 
ATOM     16  C14 575 d   1      39.050  75.544  58.305  0.00  0.00    -0.002 A 
ATOM     17  C15 575 d   1      39.209  75.911  59.651  0.00  0.00    -0.054 A 
ATOM     18  C19 575 d   1      39.353  74.222  57.948  0.00  0.00     0.043 A 
ATOM     19  C16 575 d   1      39.654  74.999  60.608  0.00  0.00     0.011 A 
ATOM     20  H18 575 d   1      38.981  76.927  59.953  0.00  0.00     0.086 H 
ATOM     21  C17 575 d   1      39.951  73.691  60.241  0.00  0.00    -0.065 A 
ATOM     22 BR1  575 d   1      39.839  75.582  62.409  0.00  0.00    -0.051 Br
ATOM     23  C18 575 d   1      39.802  73.302  58.914  0.00  0.00    -0.066 A 
ATOM     24  H19 575 d   1      40.296  72.980  60.983  0.00  0.00     0.085 H 
ATOM     25  H20 575 d   1      40.033  72.284  58.622  0.00  0.00     0.085 H 
ATOM     26  C20 575 d   1      39.207  73.775  56.544  0.00  0.00     0.259 A 
ATOM     27  O1  575 d   1      39.470  72.623  56.219  0.00  0.00    -0.267 OA
ATOM     28  N3  575 d   1      38.764  74.725  55.636  0.00  0.00    -0.289 N 
ATOM     29  C21 575 d   1      38.432  76.054  55.862  0.00  0.00     0.260 A 
ATOM     30  H21 575 d   1      38.671  74.410  54.691  0.00  0.00     0.172 HD
ATOM     31  O2  575 d   1      38.054  76.795  54.959  0.00  0.00    -0.267 OA
ENDBRANCH  13  15
ENDBRANCH  11  13
ENDBRANCH   3  11
BRANCH   6  32
ATOM     32  C7  575 d   1      36.071  83.968  58.757  0.00  0.00     0.107 C 
ATOM     33  H5  575 d   1      36.853  84.642  58.377  0.00  0.00     0.083 H 
ATOM     34  H6  575 d   1      36.119  83.933  59.855  0.00  0.00     0.083 H 
BRANCH  32  35
ATOM     35  N1  575 d   1      34.739  84.587  58.392  0.00  0.00    -0.067 N 
ATOM     36  C8  575 d   1      34.136  85.414  59.514  0.00  0.00     0.084 C 
ATOM     37  C9  575 d   1      32.633  85.373  59.277  0.00  0.00    -0.041 C 
ATOM     38  H8  575 d   1      34.505  86.449  59.471  0.00  0.00     0.076 H 
ATOM     39  H9  575 d   1      34.384  84.976  60.492  0.00  0.00     0.076 H 
ATOM     40  C10 575 d   1      32.432  84.575  57.998  0.00  0.00    -0.041 C 
ATOM     41  H10 575 d   1      32.237  86.392  59.158  0.00  0.00     0.035 H 
ATOM     42  H11 575 d   1      32.127  84.879  60.119  0.00  0.00     0.035 H 
ATOM     43  C11 575 d   1      33.636  83.656  57.947  0.00  0.00     0.084 C 
ATOM     44  H12 575 d   1      32.410  85.240  57.122  0.00  0.00     0.035 H 
ATOM     45  H13 575 d   1      31.499  83.995  58.042  0.00  0.00     0.035 H 
ATOM     46  H14 575 d   1      33.523  82.806  58.637  0.00  0.00     0.076 H 
ATOM     47  H15 575 d   1      33.813  83.280  56.928  0.00  0.00     0.076 H 
ATOM     48  H7  575 d   1      34.932  85.206  57.620  0.00  0.00     0.280 HD
ENDBRANCH  32  35
ENDBRANCH   6  32
TORSDOF 5
