REMARK  0 active torsions:
REMARK  status: ('A' for Active; 'I' for Inactive)
ROOT
ATOM      1  C1  537 d   1     -34.353 -15.219  -9.123  0.00  0.00    -0.082 A 
ATOM      2  C2  537 d   1     -34.684 -16.545  -9.383  0.00  0.00    -0.070 A 
ATOM      3  C3  537 d   1     -35.483 -16.854 -10.476  0.00  0.00     0.007 A 
ATOM      4  C4  537 d   1     -35.947 -15.832 -11.316  0.00  0.00     0.027 A 
ATOM      5  C5  537 d   1     -35.611 -14.506 -11.054  0.00  0.00    -0.068 A 
ATOM      6  C6  537 d   1     -34.814 -14.201  -9.956  0.00  0.00    -0.082 A 
ATOM      7  C11 537 d   1     -36.609 -18.535 -11.824  0.00  0.00     0.038 A 
ATOM      8  C12 537 d   1     -36.825 -19.882 -11.915  0.00  0.00     0.090 A 
ATOM      9  C13 537 d   1     -37.607 -20.364 -12.960  0.00  0.00    -0.052 A 
ATOM     10  C14 537 d   1     -38.151 -19.460 -13.883  0.00  0.00    -0.080 A 
ATOM     11  C15 537 d   1     -37.915 -18.086 -13.767  0.00  0.00    -0.068 A 
ATOM     12  C16 537 d   1     -37.130 -17.620 -12.718  0.00  0.00     0.030 A 
ATOM     13  C20 537 d   1     -36.808 -16.183 -12.490  0.00  0.00     0.194 A 
ATOM     14  C21 537 d   1     -35.831 -18.173 -10.763  0.00  0.00     0.075 A 
ATOM     15  O22 537 d   1     -37.243 -15.303 -13.260  0.00  0.00    -0.287 OA
ATOM     16  N23 537 d   1     -35.525 -19.333 -10.133  0.00  0.00    -0.276 N 
ATOM     17  N24 537 d   1     -36.147 -20.395 -10.855  0.00  0.00    -0.174 NA
ATOM     18  H1  537 d   1     -33.733 -14.976  -8.268  0.00  0.00     0.083 H 
ATOM     19  H2  537 d   1     -34.320 -17.334  -8.735  0.00  0.00     0.084 H 
ATOM     20  H3  537 d   1     -35.969 -13.715 -11.703  0.00  0.00     0.085 H 
ATOM     21  H4  537 d   1     -34.551 -13.170  -9.748  0.00  0.00     0.083 H 
ATOM     22  H5  537 d   1     -37.794 -21.427 -13.059  0.00  0.00     0.087 H 
ATOM     23  H6  537 d   1     -38.763 -19.831 -14.698  0.00  0.00     0.083 H 
ATOM     24  H7  537 d   1     -38.339 -17.394 -14.486  0.00  0.00     0.085 H 
ATOM     25  H8  537 d   1     -34.947 -19.431  -9.286  0.00  0.00     0.189 HD
ENDROOT
TORSDOF 0
