REMARK  12 active torsions:
REMARK  status: ('A' for Active; 'I' for Inactive)
REMARK    1  A    between atoms: C20_23  and  C21_2 
REMARK    2  A    between atoms: C13_5  and  C18_14 
REMARK    3  A    between atoms: C6_29  and  C7_17 
REMARK    4  A    between atoms: C23_19  and  C24_21 
REMARK    5  A    between atoms: C20_23  and  C22_20 
REMARK    6  A    between atoms: C24_21  and  C25_22 
REMARK    7  A    between atoms: C25_22  and  C26_24 
REMARK    8  A    between atoms: C25_22  and  O3_37 
REMARK    9  A    between atoms: C17_25  and  C20_23 
REMARK   10  A    between atoms: C26_24  and  C29_26 
REMARK   11  A    between atoms: C3_27  and  O2_39 
REMARK   12  A    between atoms: C1_34  and  O1_38 
ROOT
ATOM      1  C16 MI4 d   1      15.910   6.684  25.746  0.00  0.00    -0.060 C 
ATOM      2  C15 MI4 d   1      16.230   7.903  24.892  0.00  0.00    -0.057 C 
ATOM      3  C13 MI4 d   1      14.176   8.369  26.137  0.00  0.00    -0.032 C 
ATOM      4  C14 MI4 d   1      15.478   9.007  25.600  0.00  0.00    -0.025 C 
ATOM      5  C8  MI4 d   1      15.117  10.273  24.822  0.00  0.00    -0.075 C 
ATOM      6  C12 MI4 d   1      13.571   9.408  27.153  0.00  0.00    -0.057 C 
ATOM      7  C11 MI4 d   1      13.415  10.846  26.548  0.00  0.00    -0.061 C 
ATOM      8  C7  MI4 d   1      15.188  10.390  23.459  0.00  0.00    -0.080 C 
ATOM      9  C17 MI4 d   1      14.808   7.079  26.759  0.00  0.00    -0.040 C 
ATOM     10  C9  MI4 d   1      14.634  11.353  25.758  0.00  0.00    -0.044 C 
ATOM     11  H1  MI4 d   1      16.812   6.360  26.285  0.00  0.00     0.033 H 
ATOM     12  H2  MI4 d   1      15.551   5.865  25.106  0.00  0.00     0.033 H 
ATOM     13  H8  MI4 d   1      15.867   7.773  23.862  0.00  0.00     0.034 H 
ATOM     14  H9  MI4 d   1      17.311   8.105  24.877  0.00  0.00     0.034 H 
ATOM     15  H14 MI4 d   1      16.100   9.327  26.449  0.00  0.00     0.048 H 
ATOM     16  H19 MI4 d   1      14.234   9.467  28.029  0.00  0.00     0.034 H 
ATOM     17  H20 MI4 d   1      12.579   9.052  27.468  0.00  0.00     0.034 H 
ATOM     18  H25 MI4 d   1      13.229  11.546  27.375  0.00  0.00     0.033 H 
ATOM     19  H26 MI4 d   1      12.548  10.840  25.871  0.00  0.00     0.033 H 
ATOM     20  H27 MI4 d   1      15.522   9.520  22.896  0.00  0.00     0.083 H 
ATOM     21  H38 MI4 d   1      15.288   7.367  27.706  0.00  0.00     0.042 H 
ATOM     22  H40 MI4 d   1      14.349  12.241  25.175  0.00  0.00     0.039 H 
ATOM     23  H41 MI4 d   1      15.440  11.617  26.459  0.00  0.00     0.039 H 
ENDROOT
BRANCH   9  24
ATOM     24  C20 MI4 d   1      13.849   5.893  27.108  0.00  0.00    -0.037 C 
ATOM     25  H35 MI4 d   1      13.166   5.753  26.258  0.00  0.00     0.046 H 
BRANCH  24  26
ATOM     26  C21 MI4 d   1      14.585   4.571  27.372  0.00  0.00    -0.069 C 
ATOM     27  H3  MI4 d   1      13.853   3.785  27.610  0.00  0.00     0.028 H 
ATOM     28  H4  MI4 d   1      15.275   4.698  28.219  0.00  0.00     0.028 H 
ATOM     29  H5  MI4 d   1      15.154   4.283  26.476  0.00  0.00     0.028 H 
ENDBRANCH  24  26
BRANCH  24  30
ATOM     30  C22 MI4 d   1      13.045   6.183  28.343  0.00  0.00    -0.102 C 
ATOM     31  C23 MI4 d   1      11.739   6.476  28.269  0.00  0.00    -0.104 C 
ATOM     32  H30 MI4 d   1      11.278   6.500  27.283  0.00  0.00     0.076 H 
ATOM     33  H31 MI4 d   1      13.532   6.155  29.317  0.00  0.00     0.076 H 
BRANCH  31  34
ATOM     34  C24 MI4 d   1      10.872   6.773  29.453  0.00  0.00    -0.026 C 
ATOM     35  H32 MI4 d   1      10.322   7.708  29.271  0.00  0.00     0.042 H 
ATOM     36  H33 MI4 d   1      11.506   6.887  30.344  0.00  0.00     0.042 H 
BRANCH  34  37
ATOM     37  C25 MI4 d   1       9.878   5.651  29.691  0.00  0.00     0.039 C 
ATOM     38  H34 MI4 d   1      10.392   4.681  29.617  0.00  0.00     0.083 H 
BRANCH  37  39
ATOM     39  C26 MI4 d   1       8.754   5.718  28.648  0.00  0.00    -0.034 C 
ATOM     40  H36 MI4 d   1       9.046   6.448  27.879  0.00  0.00     0.037 H 
ATOM     41  H37 MI4 d   1       7.840   6.063  29.153  0.00  0.00     0.037 H 
BRANCH  39  42
ATOM     42  C29 MI4 d   1       8.436   4.383  27.944  0.00  0.00    -0.037 C 
ATOM     43  C34 MI4 d   1       8.198   3.208  28.967  0.00  0.00    -0.054 C 
ATOM     44  C33 MI4 d   1       7.911   1.867  28.209  0.00  0.00    -0.053 C 
ATOM     45  H6  MI4 d   1       9.095   3.085  29.592  0.00  0.00     0.034 H 
ATOM     46  H7  MI4 d   1       7.337   3.454  29.606  0.00  0.00     0.034 H 
ATOM     47  C32 MI4 d   1       6.632   2.050  27.338  0.00  0.00    -0.058 C 
ATOM     48  C38 MI4 d   1       9.117   1.527  27.281  0.00  0.00    -0.058 C 
ATOM     49  H15 MI4 d   1       7.758   1.054  28.933  0.00  0.00     0.040 H 
ATOM     50  C31 MI4 d   1       6.843   3.212  26.301  0.00  0.00    -0.053 C 
ATOM     51  H28 MI4 d   1       5.780   2.295  27.990  0.00  0.00     0.034 H 
ATOM     52  H29 MI4 d   1       6.423   1.115  26.798  0.00  0.00     0.034 H 
ATOM     53  C30 MI4 d   1       7.153   4.542  27.068  0.00  0.00    -0.054 C 
ATOM     54  C36 MI4 d   1       8.054   2.860  25.378  0.00  0.00    -0.058 C 
ATOM     55  H24 MI4 d   1       5.935   3.337  25.693  0.00  0.00     0.040 H 
ATOM     56  H17 MI4 d   1       6.301   4.793  27.717  0.00  0.00     0.034 H 
ATOM     57  H18 MI4 d   1       7.310   5.351  26.340  0.00  0.00     0.034 H 
ATOM     58  C35 MI4 d   1       9.343   2.672  26.242  0.00  0.00    -0.053 C 
ATOM     59  H43 MI4 d   1       7.840   1.928  24.835  0.00  0.00     0.034 H 
ATOM     60  H44 MI4 d   1       8.213   3.676  24.658  0.00  0.00     0.034 H 
ATOM     61  C37 MI4 d   1       9.632   4.002  26.997  0.00  0.00    -0.054 C 
ATOM     62  H16 MI4 d   1      10.194   2.419  25.592  0.00  0.00     0.040 H 
ATOM     63  H12 MI4 d   1       9.780   4.808  26.263  0.00  0.00     0.034 H 
ATOM     64  H13 MI4 d   1      10.544   3.883  27.600  0.00  0.00     0.034 H 
ATOM     65  H45 MI4 d   1       8.910   0.588  26.747  0.00  0.00     0.034 H 
ATOM     66  H46 MI4 d   1      10.023   1.409  27.893  0.00  0.00     0.034 H 
ENDBRANCH  39  42
ENDBRANCH  37  39
BRANCH  37  67
ATOM     67  O3  MI4 d   1       9.320   5.799  30.980  0.00  0.00    -0.395 OA
ATOM     68  H52 MI4 d   1      10.012   5.758  31.630  0.00  0.00     0.210 HD
ENDBRANCH  37  67
ENDBRANCH  34  37
ENDBRANCH  31  34
ENDBRANCH  24  30
ENDBRANCH   9  24
BRANCH   3  69
ATOM     69  C18 MI4 d   1      13.135   8.028  25.022  0.00  0.00    -0.068 C 
ATOM     70  H21 MI4 d   1      13.573   7.302  24.321  0.00  0.00     0.028 H 
ATOM     71  H22 MI4 d   1      12.866   8.946  24.478  0.00  0.00     0.028 H 
ATOM     72  H23 MI4 d   1      12.234   7.596  25.482  0.00  0.00     0.028 H 
ENDBRANCH   3  69
BRANCH   8  73
ATOM     73  C6  MI4 d   1      14.846  11.608  22.694  0.00  0.00    -0.080 C 
ATOM     74  C5  MI4 d   1      14.863  11.666  21.342  0.00  0.00    -0.074 C 
ATOM     75  C10 MI4 d   1      15.206  10.421  20.471  0.00  0.00    -0.017 C 
ATOM     76  C4  MI4 d   1      14.501  12.999  20.670  0.00  0.00    -0.017 C 
ATOM     77  C1  MI4 d   1      15.197  10.598  18.936  0.00  0.00     0.062 C 
ATOM     78  H47 MI4 d   1      14.475   9.636  20.716  0.00  0.00     0.043 H 
ATOM     79  H48 MI4 d   1      16.214  10.086  20.758  0.00  0.00     0.043 H 
ATOM     80  C2  MI4 d   1      14.750  11.962  18.450  0.00  0.00    -0.032 C 
ATOM     81  H49 MI4 d   1      16.223  10.444  18.572  0.00  0.00     0.090 H 
ATOM     82  C28 MI4 d   1      14.045  12.142  17.320  0.00  0.00    -0.114 C 
ATOM     83  C3  MI4 d   1      15.131  13.138  19.287  0.00  0.00     0.062 C 
ATOM     84  H10 MI4 d   1      13.749  13.145  17.017  0.00  0.00     0.067 H 
ATOM     85  H11 MI4 d   1      13.770  11.285  16.708  0.00  0.00     0.067 H 
ATOM     86  H39 MI4 d   1      14.769  14.060  18.808  0.00  0.00     0.090 H 
ATOM     87  H50 MI4 d   1      13.407  13.059  20.569  0.00  0.00     0.043 H 
ATOM     88  H51 MI4 d   1      14.856  13.824  21.305  0.00  0.00     0.043 H 
ATOM     89  H42 MI4 d   1      14.566  12.504  23.246  0.00  0.00     0.083 H 
BRANCH  77  90
ATOM     90  O1  MI4 d   1      14.368   9.579  18.408  0.00  0.00    -0.391 OA
ATOM     91  H53 MI4 d   1      13.472   9.725  18.687  0.00  0.00     0.210 HD
ENDBRANCH  77  90
BRANCH  83  92
ATOM     92  O2  MI4 d   1      16.540  13.201  19.428  0.00  0.00    -0.391 OA
ATOM     93  H54 MI4 d   1      16.939  13.286  18.570  0.00  0.00     0.210 HD
ENDBRANCH  83  92
ENDBRANCH   8  73
TORSDOF 12
