REMARK  5 active torsions:
REMARK  status: ('A' for Active; 'I' for Inactive)
REMARK    1  A    between atoms: N_1  and  CA_2 
REMARK    2  A    between atoms: CA_2  and  C_3 
REMARK    3  A    between atoms: CA_2  and  CB_5 
REMARK    4  A    between atoms: CB_5  and  CG_6 
REMARK    5  A    between atoms: CG_6  and  CD_7 
ROOT
ATOM      1  CA  GLU d   1      21.596  -2.668  10.841  0.00  0.00     0.183 C 
ATOM      2  H4  GLU d   1      22.238  -2.208  10.075  0.00  0.00     0.101 H 
ENDROOT
BRANCH   1   3
ATOM      3  N   GLU d   1      20.301  -1.880  10.968  0.00  0.00    -0.065 N 
ATOM      4  H1  GLU d   1      20.510  -0.931  11.238  0.00  0.00     0.275 HD
ATOM      5  H2  GLU d   1      19.715  -2.307  11.668  0.00  0.00     0.275 HD
ATOM      6  H3  GLU d   1      19.820  -1.879  10.082  0.00  0.00     0.275 HD
ENDBRANCH   1   3
BRANCH   1   7
ATOM      7  C   GLU d   1      21.232  -4.076  10.437  0.00  0.00     0.204 C 
ATOM      8  O   GLU d   1      22.078  -4.966  10.361  0.00  0.00    -0.646 OA
ATOM      9  OXT GLU d   1      20.060  -4.361  10.141  0.00  0.00    -0.646 OA
ENDBRANCH   1   7
BRANCH   1  10
ATOM     10  CB  GLU d   1      22.356  -2.707  12.199  0.00  0.00    -0.020 C 
ATOM     11  H5  GLU d   1      23.010  -3.591  12.200  0.00  0.00     0.037 H 
ATOM     12  H6  GLU d   1      21.613  -2.800  13.005  0.00  0.00     0.037 H 
BRANCH  10  13
ATOM     13  CG  GLU d   1      23.220  -1.475  12.488  0.00  0.00     0.018 C 
ATOM     14  H7  GLU d   1      23.601  -1.546  13.518  0.00  0.00     0.049 H 
ATOM     15  H8  GLU d   1      22.595  -0.575  12.389  0.00  0.00     0.049 H 
BRANCH  13  16
ATOM     16  CD  GLU d   1      24.412  -1.352  11.531  0.00  0.00     0.172 C 
ATOM     17  OE1 GLU d   1      24.776  -2.385  10.970  0.00  0.00    -0.648 OA
ATOM     18  OE2 GLU d   1      24.976  -0.229  11.371  0.00  0.00    -0.648 OA
ENDBRANCH  13  16
ENDBRANCH  10  13
ENDBRANCH   1  10
TORSDOF 5
