REMARK  7 active torsions:
REMARK  status: ('A' for Active; 'I' for Inactive)
REMARK    1  A    between atoms: C_2  and  CA_4 
REMARK    2  A    between atoms: CA_4  and  N_5 
REMARK    3  A    between atoms: CA_4  and  CB_6 
REMARK    4  A    between atoms: CB_6  and  CAJ_7 
REMARK    5  A    between atoms: CAJ_7  and  CAD_8 
REMARK    6  A    between atoms: CAF_17  and  OAB_18 
REMARK    7  A    between atoms: CAG_19  and  OAC_20 
ROOT
ATOM      1  CAJ NDZ d   1      23.572  -1.728  12.812  0.00  0.00     0.154 C 
ATOM      2  CAR NDZ d   1      24.322  -2.068  14.126  0.00  0.00     0.000 C 
ATOM      3  OAI NDZ d   1      22.666  -0.619  13.120  0.00  0.00    -0.358 OA
ATOM      4  CAH NDZ d   1      22.793  -0.304  14.535  0.00  0.00     0.092 C 
ATOM      5  CAQ NDZ d   1      24.202  -0.793  14.957  0.00  0.00     0.069 C 
ATOM      6  OAP NDZ d   1      25.251   0.091  14.508  0.00  0.00    -0.381 OA
ATOM      7  CAO NDZ d   1      25.060   1.467  14.948  0.00  0.00     0.046 C 
ATOM      8  CAF NDZ d   1      23.774   2.071  14.358  0.00  0.00     0.083 C 
ATOM      9  CAG NDZ d   1      22.544   1.212  14.748  0.00  0.00     0.089 C 
ATOM     10  H7  NDZ d   1      25.377  -2.306  13.924  0.00  0.00     0.042 H 
ATOM     11  H8  NDZ d   1      23.846  -2.916  14.640  0.00  0.00     0.042 H 
ATOM     12  H9  NDZ d   1      22.038  -0.859  15.111  0.00  0.00     0.091 H 
ATOM     13  H10 NDZ d   1      24.272  -0.969  16.041  0.00  0.00     0.087 H 
ATOM     14  H11 NDZ d   1      25.921   2.070  14.622  0.00  0.00     0.078 H 
ATOM     15  H12 NDZ d   1      24.993   1.486  16.046  0.00  0.00     0.078 H 
ATOM     16  H13 NDZ d   1      23.641   3.084  14.765  0.00  0.00     0.090 H 
ATOM     17  H15 NDZ d   1      22.355   1.375  15.819  0.00  0.00     0.091 H 
ENDROOT
BRANCH   1  18
ATOM     18  CB  NDZ d   1      22.735  -2.950  12.404  0.00  0.00     0.010 C 
ATOM     19  H5  NDZ d   1      23.405  -3.811  12.264  0.00  0.00     0.042 H 
ATOM     20  H6  NDZ d   1      22.014  -3.173  13.204  0.00  0.00     0.042 H 
BRANCH  18  21
ATOM     21  CA  NDZ d   1      21.967  -2.697  11.097  0.00  0.00     0.185 C 
ATOM     22  H1  NDZ d   1      22.614  -2.198  10.360  0.00  0.00     0.101 H 
BRANCH  21  23
ATOM     23  C   NDZ d   1      21.528  -4.060  10.595  0.00  0.00     0.204 C 
ATOM     24  O   NDZ d   1      20.313  -4.205  10.351  0.00  0.00    -0.646 OA
ATOM     25  OXT NDZ d   1      22.416  -4.943  10.485  0.00  0.00    -0.646 OA
ENDBRANCH  21  23
BRANCH  21  26
ATOM     26  N   NDZ d   1      20.776  -1.881  11.353  0.00  0.00    -0.065 N 
ATOM     27  H2  NDZ d   1      21.057  -0.972  11.687  0.00  0.00     0.275 HD
ATOM     28  H3  NDZ d   1      20.203  -2.332  12.048  0.00  0.00     0.275 HD
ATOM     29  H4  NDZ d   1      20.250  -1.777  10.499  0.00  0.00     0.275 HD
ENDBRANCH  21  26
ENDBRANCH  18  21
ENDBRANCH   1  18
BRANCH   1  30
ATOM     30  CAD NDZ d   1      24.579  -1.302  11.685  0.00  0.00     0.209 C 
ATOM     31  OAA NDZ d   1      24.665  -0.089  11.399  0.00  0.00    -0.646 OA
ATOM     32  OAE NDZ d   1      25.251  -2.215  11.144  0.00  0.00    -0.646 OA
ENDBRANCH   1  30
BRANCH   9  33
ATOM     33  OAC NDZ d   1      21.349   1.621  14.013  0.00  0.00    -0.390 OA
ATOM     34  H16 NDZ d   1      21.155   2.530  14.207  0.00  0.00     0.210 HD
ENDBRANCH   9  33
BRANCH   8  35
ATOM     35  OAB NDZ d   1      23.880   2.157  12.920  0.00  0.00    -0.391 OA
ATOM     36  H14 NDZ d   1      24.010   1.287  12.561  0.00  0.00     0.210 HD
ENDBRANCH   8  35
TORSDOF 7
