REMARK  11 active torsions:
REMARK  status: ('A' for Active; 'I' for Inactive)
REMARK    1  A    between atoms: C7_6  and  C8_7 
REMARK    2  A    between atoms: C8_7  and  C9_8 
REMARK    3  A    between atoms: C8_7  and  C1_30 
REMARK    4  A    between atoms: C9_8  and  C10_9 
REMARK    5  A    between atoms: C9_8  and  N2_29 
REMARK       I    between atoms: C10_9  and  N1_10 
REMARK    6  A    between atoms: C14_11  and  C15_12 
REMARK       I    between atoms: C15_12  and  N23_14 
REMARK    7  A    between atoms: N23_14  and  C16_15 
REMARK    8  A    between atoms: C16_15  and  C17_16 
REMARK    9  A    between atoms: C24_19  and  C27_20 
REMARK   10  A    between atoms: C27_20  and  N35_21 
REMARK   11  A    between atoms: C27_20  and  N34_22 
ROOT
ATOM      1  C10 33U d   1      17.723 -13.880  22.621  0.00  0.00     0.252 C 
ATOM      2  N1  33U d   1      18.611 -13.451  21.683  0.00  0.00    -0.337 N 
ATOM      3  C14 33U d   1      18.476 -12.108  21.129  0.00  0.00     0.091 C 
ATOM      4  C13 33U d   1      19.561 -12.108  20.010  0.00  0.00    -0.036 C 
ATOM      5  C12 33U d   1      20.505 -13.245  20.468  0.00  0.00    -0.048 C 
ATOM      6  C11 33U d   1      19.502 -14.345  20.929  0.00  0.00    -0.001 C 
ATOM      7  O32 33U d   1      16.808 -13.140  22.993  0.00  0.00    -0.271 OA
ATOM      8  H8  33U d   1      18.613 -11.310  21.873  0.00  0.00     0.087 H 
ATOM      9  H20 33U d   1      20.089 -11.144  19.967  0.00  0.00     0.036 H 
ATOM     10  H21 33U d   1      19.120 -12.328  19.027  0.00  0.00     0.036 H 
ATOM     11  H22 33U d   1      21.148 -12.919  21.299  0.00  0.00     0.035 H 
ATOM     12  H23 33U d   1      21.132 -13.601  19.637  0.00  0.00     0.035 H 
ATOM     13  H24 33U d   1      18.994 -14.835  20.085  0.00  0.00     0.064 H 
ATOM     14  H25 33U d   1      19.974 -15.108  21.566  0.00  0.00     0.064 H 
ENDROOT
BRANCH   1  15
ATOM     15  C9  33U d   1      17.761 -15.252  23.279  0.00  0.00     0.187 C 
ATOM     16  H7  33U d   1      18.512 -15.863  22.757  0.00  0.00     0.100 H 
BRANCH  15  17
ATOM     17  C8  33U d   1      18.226 -15.072  24.751  0.00  0.00     0.033 C 
ATOM     18  H6  33U d   1      17.514 -14.375  25.217  0.00  0.00     0.058 H 
BRANCH  17  19
ATOM     19  C7  33U d   1      18.238 -16.349  25.627  0.00  0.00    -0.047 A 
ATOM     20  C37 33U d   1      18.596 -17.543  24.992  0.00  0.00    -0.076 A 
ATOM     21  C26 33U d   1      18.629 -18.739  25.725  0.00  0.00    -0.082 A 
ATOM     22  H1  33U d   1      18.847 -17.544  23.938  0.00  0.00     0.084 H 
ATOM     23  C25 33U d   1      18.304 -18.725  27.081  0.00  0.00    -0.083 A 
ATOM     24  H2  33U d   1      18.905 -19.668  25.240  0.00  0.00     0.083 H 
ATOM     25  C34 33U d   1      17.947 -17.543  27.720  0.00  0.00    -0.082 A 
ATOM     26  H3  33U d   1      18.330 -19.650  27.646  0.00  0.00     0.083 H 
ATOM     27  C23 33U d   1      17.915 -16.350  26.988  0.00  0.00    -0.076 A 
ATOM     28  H4  33U d   1      17.696 -17.545  28.774  0.00  0.00     0.083 H 
ATOM     29  H5  33U d   1      17.639 -15.423  27.478  0.00  0.00     0.084 H 
ENDBRANCH  17  19
BRANCH  17  30
ATOM     30  C1  33U d   1      19.629 -14.424  24.807  0.00  0.00    -0.047 A 
ATOM     31  C6  33U d   1      20.722 -14.967  24.122  0.00  0.00    -0.076 A 
ATOM     32  C5  33U d   1      21.973 -14.333  24.210  0.00  0.00    -0.082 A 
ATOM     33  H29 33U d   1      20.605 -15.867  23.530  0.00  0.00     0.084 H 
ATOM     34  C4  33U d   1      22.154 -13.182  24.961  0.00  0.00    -0.083 A 
ATOM     35  H30 33U d   1      22.818 -14.755  23.677  0.00  0.00     0.083 H 
ATOM     36  C3  33U d   1      21.062 -12.636  25.647  0.00  0.00    -0.082 A 
ATOM     37  H31 33U d   1      23.128 -12.710  25.017  0.00  0.00     0.083 H 
ATOM     38  C2  33U d   1      19.819 -13.266  25.558  0.00  0.00    -0.076 A 
ATOM     39  H32 33U d   1      21.180 -11.736  26.239  0.00  0.00     0.083 H 
ATOM     40  H33 33U d   1      18.976 -12.841  26.090  0.00  0.00     0.084 H 
ENDBRANCH  17  30
ENDBRANCH  15  17
BRANCH  15  41
ATOM     41  N2  33U d   1      16.449 -15.968  23.165  0.00  0.00    -0.065 N 
ATOM     42  H26 33U d   1      16.198 -16.056  22.193  0.00  0.00     0.275 HD
ATOM     43  H27 33U d   1      15.737 -15.444  23.650  0.00  0.00     0.275 HD
ATOM     44  H28 33U d   1      16.530 -16.885  23.576  0.00  0.00     0.275 HD
ENDBRANCH  15  41
ENDBRANCH   1  15
BRANCH   3  45
ATOM     45  C15 33U d   1      17.120 -12.038  20.443  0.00  0.00     0.240 C 
ATOM     46  O22 33U d   1      16.752 -13.026  19.823  0.00  0.00    -0.271 OA
ATOM     47  N23 33U d   1      16.455 -10.870  20.546  0.00  0.00    -0.355 N 
ATOM     48  H9  33U d   1      16.799 -10.103  21.087  0.00  0.00     0.162 HD
BRANCH  47  49
ATOM     49  C16 33U d   1      15.169 -10.806  19.793  0.00  0.00     0.019 C 
ATOM     50  H10 33U d   1      15.029 -11.723  19.202  0.00  0.00     0.071 H 
ATOM     51  H11 33U d   1      15.164  -9.934  19.123  0.00  0.00     0.071 H 
BRANCH  49  52
ATOM     52  C17 33U d   1      14.059 -10.676  20.837  0.00  0.00    -0.040 A 
ATOM     53  C22 33U d   1      13.616 -11.818  21.486  0.00  0.00    -0.074 A 
ATOM     54  C21 33U d   1      12.614 -11.793  22.446  0.00  0.00    -0.069 A 
ATOM     55  H12 33U d   1      14.071 -12.769  21.233  0.00  0.00     0.084 H 
ATOM     56  C24 33U d   1      12.015 -10.571  22.785  0.00  0.00     0.007 A 
ATOM     57  H13 33U d   1      12.297 -12.710  22.930  0.00  0.00     0.085 H 
ATOM     58  C19 33U d   1      12.449  -9.415  22.144  0.00  0.00    -0.069 A 
ATOM     59  C18 33U d   1      13.464  -9.454  21.173  0.00  0.00    -0.074 A 
ATOM     60  H18 33U d   1      11.995  -8.464  22.399  0.00  0.00     0.085 H 
ATOM     61  H19 33U d   1      13.785  -8.541  20.686  0.00  0.00     0.084 H 
BRANCH  56  62
ATOM     62  C27 33U d   1      10.922 -10.560  23.839  0.00  0.00     0.102 C 
BRANCH  62  63
ATOM     63  N35 33U d   1      10.239 -11.689  24.131  0.00  0.00    -0.385 N 
ATOM     64  H14 33U d   1       9.499 -11.673  24.847  0.00  0.00     0.157 HD
ATOM     65  H15 33U d   1      10.458 -12.566  23.637  0.00  0.00     0.157 HD
ENDBRANCH  62  63
BRANCH  62  66
ATOM     66  N34 33U d   1      10.644  -9.483  24.453  0.00  0.00    -0.385 N 
ATOM     67  H16 33U d   1      11.160  -8.618  24.236  0.00  0.00     0.157 HD
ATOM     68  H17 33U d   1       9.902  -9.474  25.168  0.00  0.00     0.157 HD
ENDBRANCH  62  66
ENDBRANCH  56  62
ENDBRANCH  49  52
ENDBRANCH  47  49
ENDBRANCH   3  45
TORSDOF 11
