REMARK  6 active torsions:
REMARK  status: ('A' for Active; 'I' for Inactive)
REMARK    1  A    between atoms: O5'_1  and  C5'_2 
REMARK    2  A    between atoms: C5'_2  and  C4'_3 
REMARK    3  A    between atoms: C1'_5  and  N9_6 
REMARK    4  A    between atoms: C6_10  and  N6_15 
REMARK    5  A    between atoms: C2'_16  and  O2'_17 
REMARK    6  A    between atoms: C3'_18  and  O3'_19 
ROOT
ATOM      1  C4' 5ID d   1      28.961   9.189  15.723  0.00  0.00     0.088 C 
ATOM      2  O4' 5ID d   1      28.808   9.205  17.141  0.00  0.00    -0.353 OA
ATOM      3  C1' 5ID d   1      29.736   8.305  17.681  0.00  0.00     0.138 C 
ATOM      4  C2' 5ID d   1      30.411   7.634  16.465  0.00  0.00     0.105 C 
ATOM      5  C3' 5ID d   1      29.454   7.825  15.297  0.00  0.00     0.091 C 
ATOM      6  H4  5ID d   1      29.699   9.950  15.431  0.00  0.00     0.090 H 
ATOM      7  H5  5ID d   1      30.483   8.829  18.296  0.00  0.00     0.122 H 
ATOM      8  H10 5ID d   1      30.712   6.590  16.633  0.00  0.00     0.093 H 
ATOM      9  H12 5ID d   1      28.660   7.065  15.238  0.00  0.00     0.091 H 
ENDROOT
BRANCH   3  10
ATOM     10  N9  5ID d   1      29.021   7.331  18.493  0.00  0.00    -0.310 N 
ATOM     11  C8  5ID d   1      27.839   6.736  18.218  0.00  0.00     0.001 A 
ATOM     12  C7  5ID d   1      27.457   5.855  19.265  0.00  0.00     0.040 A 
ATOM     13  H6  5ID d   1      27.257   6.909  17.314  0.00  0.00     0.113 H 
ATOM     14  C5  5ID d   1      28.547   5.944  20.241  0.00  0.00     0.073 A 
ATOM     15  IAE 5ID d   1      25.751   4.720  19.330  0.00  0.00    -0.042 I 
ATOM     16  C6  5ID d   1      28.910   5.423  21.447  0.00  0.00     0.138 A 
ATOM     17  C4  5ID d   1      29.431   6.881  19.672  0.00  0.00     0.148 A 
ATOM     18  N1  5ID d   1      30.081   5.862  21.988  0.00  0.00    -0.224 NA
ATOM     19  C2  5ID d   1      30.873   6.762  21.410  0.00  0.00     0.091 A 
ATOM     20  N3  5ID d   1      30.587   7.312  20.231  0.00  0.00    -0.223 NA
ATOM     21  H7  5ID d   1      31.784   7.058  21.917  0.00  0.00     0.146 H 
BRANCH  16  22
ATOM     22  N6  5ID d   1      28.177   4.512  22.114  0.00  0.00    -0.383 N 
ATOM     23  H8  5ID d   1      28.503   4.154  23.023  0.00  0.00     0.157 HD
ATOM     24  H9  5ID d   1      27.290   4.173  21.715  0.00  0.00     0.157 HD
ENDBRANCH  16  22
ENDBRANCH   3  10
BRANCH   4  25
ATOM     25  O2' 5ID d   1      31.480   8.524  16.175  0.00  0.00    -0.388 OA
ATOM     26  H11 5ID d   1      31.968   8.198  15.428  0.00  0.00     0.210 HD
ENDBRANCH   4  25
BRANCH   1  27
ATOM     27  C5' 5ID d   1      27.645   9.494  15.045  0.00  0.00     0.043 C 
ATOM     28  H2  5ID d   1      27.159  10.313  15.596  0.00  0.00     0.078 H 
ATOM     29  H3  5ID d   1      27.859   9.820  14.017  0.00  0.00     0.078 H 
BRANCH  27  30
ATOM     30  O5' 5ID d   1      26.755   8.429  14.983  0.00  0.00    -0.398 OA
ATOM     31  H1  5ID d   1      25.960   8.707  14.544  0.00  0.00     0.209 HD
ENDBRANCH  27  30
ENDBRANCH   1  27
BRANCH   5  32
ATOM     32  O3' 5ID d   1      30.194   7.896  14.061  0.00  0.00    -0.390 OA
ATOM     33  H13 5ID d   1      30.681   7.090  13.938  0.00  0.00     0.210 HD
ENDBRANCH   5  32
TORSDOF 6
