REMARK  18 active torsions:
REMARK  status: ('A' for Active; 'I' for Inactive)
REMARK    1  A    between atoms: C1_1  and  C4_4 
REMARK    2  A    between atoms: C5_30  and  C1_1 
REMARK    3  A    between atoms: C1_1  and  C3_31 
REMARK    4  A    between atoms: C20_14  and  C2_2 
REMARK       I    between atoms: C2_2  and  N3_28 
REMARK    5  A    between atoms: C4_4  and  C6_5 
REMARK    6  A    between atoms: S1_32  and  C9_7 
REMARK    7  A    between atoms: C9_7  and  C8_34 
REMARK       I    between atoms: C15_9  and  N17_21 
REMARK    8  A    between atoms: C5_30  and  C15_9 
REMARK    9  A    between atoms: C18_12  and  C19_13 
REMARK   10  A    between atoms: C18_12  and  C28_18 
REMARK   11  A    between atoms: N17_21  and  C18_12 
REMARK   12  A    between atoms: C19_13  and  C20_14 
REMARK   13  A    between atoms: C22_24  and  C26_17 
REMARK   14  A    between atoms: C26_17  and  N1_26 
REMARK       I    between atoms: C28_18  and  N31_23 
REMARK   15  A    between atoms: N31_23  and  C32_19 
REMARK   16  A    between atoms: C32_19  and  C25_25 
REMARK   17  A    between atoms: N4_29  and  C5_30 
REMARK   18  A    between atoms: N4_29  and  S1_32 
ROOT
ATOM      1  C15 PI0 d   1      35.330   6.810  10.144  0.00  0.00     0.242 C 
ATOM      2  O1  PI0 d   1      34.519   7.078  11.028  0.00  0.00    -0.271 OA
ATOM      3  N17 PI0 d   1      35.299   7.215   8.851  0.00  0.00    -0.346 N 
ATOM      4  H22 PI0 d   1      35.998   6.898   8.210  0.00  0.00     0.163 HD
ENDROOT
BRANCH   3   5
ATOM      5  C18 PI0 d   1      34.245   8.113   8.396  0.00  0.00     0.090 C 
ATOM      6  H13 PI0 d   1      34.276   9.031   9.002  0.00  0.00     0.087 H 
BRANCH   5   7
ATOM      7  C19 PI0 d   1      34.392   8.505   6.935  0.00  0.00    -0.030 C 
ATOM      8  H14 PI0 d   1      33.586   9.210   6.685  0.00  0.00     0.037 H 
ATOM      9  H15 PI0 d   1      34.288   7.597   6.323  0.00  0.00     0.037 H 
BRANCH   7  10
ATOM     10  C20 PI0 d   1      35.725   9.163   6.590  0.00  0.00     0.011 C 
ATOM     11  H16 PI0 d   1      35.933   9.982   7.294  0.00  0.00     0.047 H 
ATOM     12  H17 PI0 d   1      36.535   8.421   6.642  0.00  0.00     0.047 H 
BRANCH  10  13
ATOM     13  C2  PI0 d   1      35.611   9.715   5.161  0.00  0.00     0.215 C 
ATOM     14  O2  PI0 d   1      35.380   8.957   4.220  0.00  0.00    -0.274 OA
ATOM     15  N3  PI0 d   1      35.669  11.072   5.045  0.00  0.00    -0.370 N 
ATOM     16  H26 PI0 d   1      35.601  11.500   4.144  0.00  0.00     0.159 HD
ATOM     17  H27 PI0 d   1      35.779  11.639   5.861  0.00  0.00     0.159 HD
ENDBRANCH  10  13
ENDBRANCH   7  10
ENDBRANCH   5   7
BRANCH   5  18
ATOM     18  C28 PI0 d   1      32.916   7.403   8.627  0.00  0.00     0.240 C 
ATOM     19  O30 PI0 d   1      32.778   6.194   8.416  0.00  0.00    -0.271 OA
ATOM     20  N31 PI0 d   1      31.966   8.247   9.081  0.00  0.00    -0.355 N 
ATOM     21  H23 PI0 d   1      32.190   9.211   9.226  0.00  0.00     0.162 HD
BRANCH  20  22
ATOM     22  C32 PI0 d   1      30.621   7.773   9.362  0.00  0.00     0.019 C 
ATOM     23  H20 PI0 d   1      30.454   6.846   8.793  0.00  0.00     0.071 H 
ATOM     24  H21 PI0 d   1      29.907   8.541   9.030  0.00  0.00     0.071 H 
BRANCH  22  25
ATOM     25  C25 PI0 d   1      30.369   7.490  10.803  0.00  0.00    -0.040 A 
ATOM     26  C16 PI0 d   1      31.155   6.534  11.459  0.00  0.00    -0.074 A 
ATOM     27  C17 PI0 d   1      30.950   6.260  12.820  0.00  0.00    -0.069 A 
ATOM     28  H11 PI0 d   1      31.926   6.003  10.912  0.00  0.00     0.084 H 
ATOM     29  C22 PI0 d   1      29.947   6.928  13.550  0.00  0.00     0.007 A 
ATOM     30  H12 PI0 d   1      31.572   5.524  13.317  0.00  0.00     0.085 H 
ATOM     31  C23 PI0 d   1      29.146   7.888  12.893  0.00  0.00    -0.069 A 
ATOM     32  C24 PI0 d   1      29.366   8.177  11.527  0.00  0.00    -0.074 A 
ATOM     33  H18 PI0 d   1      28.362   8.403  13.437  0.00  0.00     0.085 H 
ATOM     34  H19 PI0 d   1      28.763   8.929  11.031  0.00  0.00     0.084 H 
BRANCH  29  35
ATOM     35  C26 PI0 d   1      29.764   6.631  14.981  0.00  0.00     0.102 C 
ATOM     36  N2  PI0 d   1      28.815   7.211  15.704  0.00  0.00    -0.385 N 
ATOM     37  H36 PI0 d   1      28.152   7.861  15.258  0.00  0.00     0.157 HD
ATOM     38  H37 PI0 d   1      28.741   7.011  16.712  0.00  0.00     0.157 HD
BRANCH  35  39
ATOM     39  N1  PI0 d   1      30.582   5.806  15.620  0.00  0.00    -0.385 N 
ATOM     40  H24 PI0 d   1      30.438   5.611  16.621  0.00  0.00     0.157 HD
ATOM     41  H25 PI0 d   1      31.362   5.360  15.115  0.00  0.00     0.157 HD
ENDBRANCH  35  39
ENDBRANCH  29  35
ENDBRANCH  22  25
ENDBRANCH  20  22
ENDBRANCH   5  18
ENDBRANCH   3   5
BRANCH   1  42
ATOM     42  C5  PI0 d   1      36.521   5.930  10.451  0.00  0.00     0.099 C 
ATOM     43  H29 PI0 d   1      36.817   5.398   9.535  0.00  0.00     0.089 H 
BRANCH  42  44
ATOM     44  C1  PI0 d   1      37.722   6.723  10.984  0.00  0.00    -0.029 C 
ATOM     45  H1  PI0 d   1      37.538   6.948  12.045  0.00  0.00     0.043 H 
BRANCH  44  46
ATOM     46  C4  PI0 d   1      38.933   5.806  10.891  0.00  0.00    -0.063 C 
ATOM     47  H2  PI0 d   1      39.336   5.833   9.868  0.00  0.00     0.033 H 
ATOM     48  H3  PI0 d   1      38.634   4.777  11.140  0.00  0.00     0.033 H 
BRANCH  46  49
ATOM     49  C6  PI0 d   1      39.988   6.272  11.860  0.00  0.00    -0.076 C 
ATOM     50  H4  PI0 d   1      40.864   5.610  11.794  0.00  0.00     0.027 H 
ATOM     51  H5  PI0 d   1      39.584   6.245  12.883  0.00  0.00     0.027 H 
ATOM     52  H6  PI0 d   1      40.286   7.301  11.611  0.00  0.00     0.027 H 
ENDBRANCH  46  49
ENDBRANCH  44  46
BRANCH  44  53
ATOM     53  C3  PI0 d   1      37.950   8.080  10.267  0.00  0.00    -0.071 C 
ATOM     54  H30 PI0 d   1      38.824   8.584  10.705  0.00  0.00     0.028 H 
ATOM     55  H31 PI0 d   1      37.060   8.715  10.392  0.00  0.00     0.028 H 
ATOM     56  H32 PI0 d   1      38.127   7.904   9.196  0.00  0.00     0.028 H 
ENDBRANCH  44  53
ENDBRANCH  42  44
BRANCH  42  57
ATOM     57  N4  PI0 d   1      36.138   4.973  11.481  0.00  0.00    -0.305 N 
ATOM     58  H28 PI0 d   1      36.272   5.156  12.455  0.00  0.00     0.173 HD
BRANCH  57  59
ATOM     59  S1  PI0 d   1      35.449   3.528  10.918  0.00  0.00     0.231 S 
ATOM     60  O3  PI0 d   1      36.254   3.285   9.774  0.00  0.00    -0.206 OA
ATOM     61  O4  PI0 d   1      35.527   2.652  12.038  0.00  0.00    -0.206 OA
BRANCH  59  62
ATOM     62  C9  PI0 d   1      33.778   3.852  10.542  0.00  0.00     0.070 C 
ATOM     63  H8  PI0 d   1      33.755   4.545   9.688  0.00  0.00     0.066 H 
ATOM     64  H9  PI0 d   1      33.325   4.336  11.420  0.00  0.00     0.066 H 
BRANCH  62  65
ATOM     65  C8  PI0 d   1      32.941   2.675  10.192  0.00  0.00    -0.043 A 
ATOM     66  C7  PI0 d   1      32.939   2.172   8.870  0.00  0.00    -0.076 A 
ATOM     67  C12 PI0 d   1      32.101   1.102   8.515  0.00  0.00    -0.082 A 
ATOM     68  H7  PI0 d   1      33.589   2.616   8.125  0.00  0.00     0.084 H 
ATOM     69  C10 PI0 d   1      31.283   0.507   9.488  0.00  0.00    -0.083 A 
ATOM     70  H33 PI0 d   1      32.086   0.738   7.494  0.00  0.00     0.083 H 
ATOM     71  C11 PI0 d   1      31.297   0.994  10.813  0.00  0.00    -0.082 A 
ATOM     72  H10 PI0 d   1      30.641  -0.325   9.222  0.00  0.00     0.083 H 
ATOM     73  C13 PI0 d   1      32.123   2.083  11.165  0.00  0.00    -0.076 A 
ATOM     74  H34 PI0 d   1      30.670   0.529  11.565  0.00  0.00     0.083 H 
ATOM     75  H35 PI0 d   1      32.125   2.459  12.181  0.00  0.00     0.084 H 
ENDBRANCH  62  65
ENDBRANCH  59  62
ENDBRANCH  57  59
ENDBRANCH  42  57
ENDBRANCH   1  42
TORSDOF 18
