REMARK  24 active torsions:
REMARK  status: ('A' for Active; 'I' for Inactive)
REMARK    1  A    between atoms: CA_2  and  C_3 
REMARK       I    between atoms: C_3  and  N_8 
REMARK    2  A    between atoms: N_8  and  CA_9 
REMARK    3  A    between atoms: CA_9  and  C_10 
REMARK    4  A    between atoms: CA_9  and  CB_12 
REMARK       I    between atoms: C_10  and  N_13 
REMARK    5  A    between atoms: N_13  and  CA_14 
REMARK    6  A    between atoms: CA_14  and  C_15 
REMARK       I    between atoms: C_15  and  N_17 
REMARK    7  A    between atoms: N_17  and  CA_18 
REMARK    8  A    between atoms: CA_18  and  C_19 
REMARK    9  A    between atoms: CA_18  and  CB_21 
REMARK       I    between atoms: C_19  and  N_29 
REMARK   10  A    between atoms: CB_21  and  CG_22 
REMARK   11  A    between atoms: CZ_27  and  OH_28 
REMARK   12  A    between atoms: CA_30  and  C_31 
REMARK       I    between atoms: C_31  and  N_36 
REMARK   13  A    between atoms: N_36  and  CA_37 
REMARK   14  A    between atoms: CA_37  and  C_38 
REMARK       I    between atoms: C_38  and  N_40 
REMARK   15  A    between atoms: N_40  and  CA_41 
REMARK   16  A    between atoms: CA_41  and  C_42 
REMARK   17  A    between atoms: CA_41  and  CB_44 
REMARK       I    between atoms: C_42  and  N_49 
REMARK   18  A    between atoms: CB_44  and  CG_45 
REMARK   19  A    between atoms: CG_45  and  CD_46 
REMARK       I    between atoms: CD_46  and  NE2_48 
REMARK   20  A    between atoms: N_49  and  CA_50 
REMARK   21  A    between atoms: CA_50  and  C_51 
REMARK   22  A    between atoms: CA_50  and  CB_53 
REMARK   23  A    between atoms: CB_53  and  CG1_54 
REMARK   24  A    between atoms: CB_53  and  CG2_55 
ROOT
ATOM      1  N   PRO d   1       3.702 -15.188  47.072  0.00  0.00    -0.337 N 
ATOM      2  CA  PRO d   1       2.825 -15.471  45.929  0.00  0.00     0.091 C 
ATOM      3  CB  PRO d   1       1.537 -14.709  46.273  0.00  0.00    -0.036 C 
ATOM      4  CG  PRO d   1       1.987 -13.569  47.130  0.00  0.00    -0.048 C 
ATOM      5  CD  PRO d   1       3.307 -13.953  47.779  0.00  0.00    -0.001 C 
ATOM      6  H27 PRO d   1       2.623 -16.552  45.891  0.00  0.00     0.087 H 
ATOM      7  H28 PRO d   1       0.839 -15.356  46.824  0.00  0.00     0.036 H 
ATOM      8  H29 PRO d   1       1.050 -14.338  45.359  0.00  0.00     0.036 H 
ATOM      9  H30 PRO d   1       1.235 -13.368  47.907  0.00  0.00     0.035 H 
ATOM     10  H31 PRO d   1       2.124 -12.670  46.511  0.00  0.00     0.035 H 
ATOM     11  H32 PRO d   1       4.058 -13.162  47.636  0.00  0.00     0.064 H 
ATOM     12  H33 PRO d   1       3.174 -14.143  48.854  0.00  0.00     0.064 H 
ATOM     13  C   TYR d   1       4.683 -16.059  47.376  0.00  0.00     0.243 C 
ATOM     14  O   TYR d   1       4.971 -17.031  46.670  0.00  0.00    -0.271 OA
ENDROOT
BRANCH  13  15
ATOM     15  CA  TYR d   1       5.451 -15.836  48.662  0.00  0.00     0.093 C 
ATOM     16  H19 TYR d   1       5.040 -14.981  49.219  0.00  0.00     0.088 H 
BRANCH  15  17
ATOM     17  N   TYR d   1       5.349 -17.063  49.460  0.00  0.00    -0.346 N 
ATOM     18  C   GLY d   1       4.426 -17.236  50.403  0.00  0.00     0.236 C 
ATOM     19  O   GLY d   1       3.628 -16.362  50.723  0.00  0.00    -0.272 OA
ATOM     20  H18 TYR d   1       6.001 -17.801  49.288  0.00  0.00     0.163 HD
BRANCH  18  21
ATOM     21  CA  GLY d   1       4.410 -18.594  51.084  0.00  0.00     0.069 C 
ATOM     22  H16 GLY d   1       3.787 -19.268  50.478  0.00  0.00     0.078 H 
ATOM     23  H17 GLY d   1       5.443 -18.972  51.108  0.00  0.00     0.078 H 
BRANCH  21  24
ATOM     24  N   GLY d   1       3.894 -18.614  52.451  0.00  0.00    -0.351 N 
ATOM     25  C   ARG d   1       4.446 -17.909  53.438  0.00  0.00     0.240 C 
ATOM     26  O   ARG d   1       5.305 -17.039  53.254  0.00  0.00    -0.271 OA
ATOM     27  H15 GLY d   1       3.095 -19.179  52.654  0.00  0.00     0.163 HD
BRANCH  25  28
ATOM     28  CA  ARG d   1       3.962 -18.219  54.854  0.00  0.00     0.086 C 
ATOM     29  H11 ARG d   1       3.419 -19.176  54.850  0.00  0.00     0.086 H 
BRANCH  28  30
ATOM     30  N   ARG d   1       5.127 -18.330  55.730  0.00  0.00    -0.346 N 
ATOM     31  C   PRO d   1       6.020 -19.313  55.613  0.00  0.00     0.249 C 
ATOM     32  O   PRO d   1       5.856 -20.300  54.886  0.00  0.00    -0.271 OA
ATOM     33  H10 ARG d   1       5.259 -17.642  56.444  0.00  0.00     0.163 HD
BRANCH  31  34
ATOM     34  CA  PRO d   1       7.304 -19.166  56.433  0.00  0.00     0.178 C 
ATOM     35  N   PRO d   1       8.043 -20.416  56.560  0.00  0.00    -0.062 N 
ATOM     36  CD  PRO d   1       9.170 -20.502  55.610  0.00  0.00     0.083 C 
ATOM     37  H1  PRO d   1       7.413 -21.184  56.386  0.00  0.00     0.278 HD
ATOM     38  H2  PRO d   1       8.405 -20.485  57.498  0.00  0.00     0.278 HD
ATOM     39  CG  PRO d   1       9.100 -19.204  54.837  0.00  0.00    -0.040 C 
ATOM     40  H8  PRO d   1       9.049 -21.364  54.938  0.00  0.00     0.075 H 
ATOM     41  H9  PRO d   1      10.127 -20.586  56.146  0.00  0.00     0.075 H 
ATOM     42  CB  PRO d   1       8.290 -18.265  55.678  0.00  0.00    -0.028 C 
ATOM     43  H6  PRO d   1      10.110 -18.799  54.678  0.00  0.00     0.035 H 
ATOM     44  H7  PRO d   1       8.611 -19.364  53.865  0.00  0.00     0.035 H 
ATOM     45  H4  PRO d   1       8.936 -17.721  56.383  0.00  0.00     0.036 H 
ATOM     46  H5  PRO d   1       7.750 -17.545  55.045  0.00  0.00     0.036 H 
ATOM     47  H3  PRO d   1       7.061 -18.755  57.424  0.00  0.00     0.099 H 
ENDBRANCH  31  34
ENDBRANCH  28  30
BRANCH  28  48
ATOM     48  CB  ARG d   1       3.021 -17.118  55.350  0.00  0.00    -0.049 C 
ATOM     49  H12 ARG d   1       2.152 -17.049  54.680  0.00  0.00     0.030 H 
ATOM     50  H13 ARG d   1       3.554 -16.156  55.358  0.00  0.00     0.030 H 
ATOM     51  H14 ARG d   1       2.681 -17.358  56.368  0.00  0.00     0.030 H 
ENDBRANCH  28  48
ENDBRANCH  25  28
ENDBRANCH  21  24
ENDBRANCH  18  21
ENDBRANCH  15  17
BRANCH  15  52
ATOM     52  CB  TYR d   1       6.907 -15.578  48.295  0.00  0.00    -0.014 C 
ATOM     53  H20 TYR d   1       7.297 -16.471  47.785  0.00  0.00     0.043 H 
ATOM     54  H21 TYR d   1       7.472 -15.409  49.224  0.00  0.00     0.043 H 
BRANCH  52  55
ATOM     55  CG  TYR d   1       7.119 -14.383  47.387  0.00  0.00    -0.056 A 
ATOM     56  CD1 TYR d   1       6.831 -13.087  47.825  0.00  0.00    -0.074 A 
ATOM     57  CE1 TYR d   1       7.035 -11.989  46.997  0.00  0.00    -0.051 A 
ATOM     58  H22 TYR d   1       6.443 -12.936  48.826  0.00  0.00     0.084 H 
ATOM     59  CZ  TYR d   1       7.558 -12.187  45.713  0.00  0.00     0.065 A 
ATOM     60  H24 TYR d   1       6.792 -10.990  47.342  0.00  0.00     0.087 H 
ATOM     61  CE2 TYR d   1       7.864 -13.461  45.260  0.00  0.00    -0.051 A 
ATOM     62  CD2 TYR d   1       7.632 -14.554  46.092  0.00  0.00    -0.074 A 
ATOM     63  H25 TYR d   1       8.279 -13.605  44.269  0.00  0.00     0.087 H 
ATOM     64  H23 TYR d   1       7.851 -15.553  45.733  0.00  0.00     0.084 H 
BRANCH  59  65
ATOM     65  OH  TYR d   1       7.781 -11.100  44.886  0.00  0.00    -0.361 OA
ATOM     66  H26 TYR d   1       7.268 -11.197  44.092  0.00  0.00     0.217 HD
ENDBRANCH  59  65
ENDBRANCH  52  55
ENDBRANCH  15  52
ENDBRANCH  13  15
BRANCH   2  67
ATOM     67  C   PRO d   1       3.367 -15.053  44.555  0.00  0.00     0.241 C 
ATOM     68  O   PRO d   1       2.656 -15.195  43.556  0.00  0.00    -0.271 OA
ATOM     69  N   GLY d   1       4.602 -14.557  44.511  0.00  0.00    -0.351 N 
ATOM     70  H34 GLY d   1       5.113 -14.470  45.366  0.00  0.00     0.163 HD
BRANCH  69  71
ATOM     71  CA  GLY d   1       5.242 -14.134  43.269  0.00  0.00     0.069 C 
ATOM     72  H35 GLY d   1       6.066 -13.447  43.509  0.00  0.00     0.078 H 
ATOM     73  H36 GLY d   1       4.500 -13.614  42.645  0.00  0.00     0.078 H 
BRANCH  71  74
ATOM     74  C   GLY d   1       5.795 -15.312  42.494  0.00  0.00     0.236 C 
ATOM     75  O   GLY d   1       5.800 -16.436  43.005  0.00  0.00    -0.272 OA
ATOM     76  N   GLN d   1       6.237 -15.067  41.258  0.00  0.00    -0.346 N 
ATOM     77  H37 GLN d   1       6.241 -14.126  40.920  0.00  0.00     0.163 HD
BRANCH  76  78
ATOM     78  CA  GLN d   1       6.717 -16.143  40.382  0.00  0.00     0.090 C 
ATOM     79  H38 GLN d   1       6.180 -17.064  40.651  0.00  0.00     0.087 H 
BRANCH  78  80
ATOM     80  C   GLN d   1       8.214 -16.383  40.598  0.00  0.00     0.241 C 
ATOM     81  O   GLN d   1       9.068 -15.657  40.064  0.00  0.00    -0.271 OA
ATOM     82  N   VAL d   1       8.501 -17.400  41.414  0.00  0.00    -0.344 N 
ATOM     83  H45 VAL d   1       7.743 -17.928  41.798  0.00  0.00     0.163 HD
BRANCH  82  84
ATOM     84  CA  VAL d   1       9.866 -17.783  41.776  0.00  0.00     0.099 C 
ATOM     85  H46 VAL d   1      10.574 -17.185  41.183  0.00  0.00     0.090 H 
BRANCH  84  86
ATOM     86  C   VAL d   1      10.056 -19.262  41.437  0.00  0.00     0.197 C 
ATOM     87  O   VAL d   1       9.085 -20.025  41.352  0.00  0.00    -0.646 OA
ATOM     88  OXT VAL d   1      11.176 -19.731  41.233  0.00  0.00    -0.646 OA
ENDBRANCH  84  86
BRANCH  84  89
ATOM     89  CB  VAL d   1      10.143 -17.518  43.296  0.00  0.00    -0.032 C 
ATOM     90  H47 VAL d   1       9.384 -18.060  43.880  0.00  0.00     0.042 H 
BRANCH  89  91
ATOM     91  CG1 VAL d   1      11.520 -18.013  43.721  0.00  0.00    -0.071 C 
ATOM     92  H48 VAL d   1      11.670 -17.807  44.791  0.00  0.00     0.028 H 
ATOM     93  H49 VAL d   1      12.293 -17.494  43.136  0.00  0.00     0.028 H 
ATOM     94  H50 VAL d   1      11.591 -19.096  43.543  0.00  0.00     0.028 H 
ENDBRANCH  89  91
BRANCH  89  95
ATOM     95  CG2 VAL d   1      10.032 -16.046  43.610  0.00  0.00    -0.071 C 
ATOM     96  H51 VAL d   1       9.040 -15.680  43.306  0.00  0.00     0.028 H 
ATOM     97  H52 VAL d   1      10.810 -15.494  43.062  0.00  0.00     0.028 H 
ATOM     98  H53 VAL d   1      10.165 -15.891  44.691  0.00  0.00     0.028 H 
ENDBRANCH  89  95
ENDBRANCH  84  89
ENDBRANCH  82  84
ENDBRANCH  78  80
BRANCH  78  99
ATOM     99  CB  GLN d   1       6.427 -15.839  38.905  0.00  0.00    -0.030 C 
ATOM    100  H39 GLN d   1       6.927 -14.894  38.645  0.00  0.00     0.037 H 
ATOM    101  H40 GLN d   1       5.340 -15.723  38.786  0.00  0.00     0.037 H 
BRANCH  99 102
ATOM    102  CG  GLN d   1       6.904 -16.919  37.923  0.00  0.00     0.011 C 
ATOM    103  H41 GLN d   1       6.175 -17.742  37.923  0.00  0.00     0.047 H 
ATOM    104  H42 GLN d   1       7.881 -17.295  38.260  0.00  0.00     0.047 H 
BRANCH 102 105
ATOM    105  CD  GLN d   1       7.047 -16.391  36.498  0.00  0.00     0.215 C 
ATOM    106  OE1 GLN d   1       6.889 -15.192  36.251  0.00  0.00    -0.274 OA
ATOM    107  NE2 GLN d   1       7.391 -17.265  35.579  0.00  0.00    -0.370 N 
ATOM    108  H43 GLN d   1       7.499 -16.974  34.628  0.00  0.00     0.159 HD
ATOM    109  H44 GLN d   1       7.545 -18.221  35.830  0.00  0.00     0.159 HD
ENDBRANCH 102 105
ENDBRANCH  99 102
ENDBRANCH  78  99
ENDBRANCH  76  78
ENDBRANCH  71  74
ENDBRANCH  69  71
ENDBRANCH   2  67
TORSDOF 24
