REMARK  8 active torsions:
REMARK  status: ('A' for Active; 'I' for Inactive)
REMARK       I    between atoms: N1_1  and  C14_2 
REMARK    1  A    between atoms: C14_2  and  C15_4 
REMARK    2  A    between atoms: C15_4  and  N5_22 
REMARK    3  A    between atoms: C2_8  and  C7_9 
REMARK       I    between atoms: C7_9  and  N23_10 
REMARK    4  A    between atoms: N23_10  and  C24_11 
REMARK    5  A    between atoms: C24_11  and  C25_12 
REMARK    6  A    between atoms: C28_15  and  C31_16 
REMARK    7  A    between atoms: C31_16  and  N49_17 
REMARK    8  A    between atoms: N5_22  and  C16_23 
ROOT
ATOM      1  N1  11U d   1     -28.810   0.573  15.778  0.00  0.00    -0.337 N 
ATOM      2  C14 11U d   1     -28.550   0.615  17.092  0.00  0.00     0.246 C 
ATOM      3  O32 11U d   1     -27.406   0.469  17.526  0.00  0.00    -0.272 OA
ATOM      4  C5  11U d   1     -30.134   0.952  15.186  0.00  0.00    -0.001 C 
ATOM      5  C4  11U d   1     -29.914   1.126  13.690  0.00  0.00    -0.048 C 
ATOM      6  C3  11U d   1     -28.696   0.251  13.483  0.00  0.00    -0.036 C 
ATOM      7  C2  11U d   1     -27.806   0.263  14.716  0.00  0.00     0.091 C 
ATOM      8  H   11U d   1     -30.508   1.873  15.632  0.00  0.00     0.064 H 
ATOM      9  H   11U d   1     -30.880   0.182  15.381  0.00  0.00     0.064 H 
ATOM     10  H   11U d   1     -29.776   2.161  13.379  0.00  0.00     0.035 H 
ATOM     11  H   11U d   1     -30.772   0.845  13.079  0.00  0.00     0.035 H 
ATOM     12  H   11U d   1     -28.128   0.635  12.636  0.00  0.00     0.036 H 
ATOM     13  H   11U d   1     -29.025  -0.771  13.297  0.00  0.00     0.036 H 
ATOM     14  H   11U d   1     -27.260  -0.655  14.933  0.00  0.00     0.087 H 
ENDROOT
BRANCH   2  15
ATOM     15  C15 11U d   1     -29.730   0.866  17.993  0.00  0.00     0.154 C 
ATOM     16  H   11U d   1     -30.590   0.352  17.564  0.00  0.00     0.090 H 
ATOM     17  H   11U d   1     -29.870   1.945  18.064  0.00  0.00     0.090 H 
BRANCH  15  18
ATOM     18  N5  11U d   1     -29.538   0.362  19.321  0.00  0.00    -0.063 N 
ATOM     19  H   11U d   1     -30.338   0.678  19.869  0.00  0.00     0.278 HD
ATOM     20  H   11U d   1     -28.628   0.704  19.631  0.00  0.00     0.278 HD
BRANCH  18  21
ATOM     21  C16 11U d   1     -29.499  -1.084  19.445  0.00  0.00     0.102 C 
ATOM     22  C17 11U d   1     -30.743  -1.639  18.795  0.00  0.00    -0.038 C 
ATOM     23  C18 11U d   1     -30.847  -3.154  18.896  0.00  0.00    -0.063 C 
ATOM     24  H   11U d   1     -30.706  -1.380  17.737  0.00  0.00     0.036 H 
ATOM     25  H   11U d   1     -31.604  -1.214  19.311  0.00  0.00     0.036 H 
ATOM     26  C19 11U d   1     -30.772  -3.602  20.340  0.00  0.00    -0.065 C 
ATOM     27  H   11U d   1     -30.019  -3.601  18.346  0.00  0.00     0.033 H 
ATOM     28  H   11U d   1     -31.803  -3.470  18.479  0.00  0.00     0.033 H 
ATOM     29  C20 11U d   1     -29.464  -3.118  20.949  0.00  0.00    -0.063 C 
ATOM     30  H   11U d   1     -30.816  -4.690  20.387  0.00  0.00     0.033 H 
ATOM     31  H   11U d   1     -31.611  -3.183  20.896  0.00  0.00     0.033 H 
ATOM     32  C21 11U d   1     -29.369  -1.599  20.851  0.00  0.00    -0.038 C 
ATOM     33  H   11U d   1     -28.631  -3.564  20.406  0.00  0.00     0.033 H 
ATOM     34  H   11U d   1     -29.428  -3.411  21.998  0.00  0.00     0.033 H 
ATOM     35  H   11U d   1     -30.190  -1.180  21.432  0.00  0.00     0.036 H 
ATOM     36  H   11U d   1     -28.386  -1.306  21.219  0.00  0.00     0.036 H 
ATOM     37  H   11U d   1     -28.591  -1.423  18.947  0.00  0.00     0.084 H 
ENDBRANCH  18  21
ENDBRANCH  15  18
ENDBRANCH   2  15
BRANCH   7  38
ATOM     38  C7  11U d   1     -26.690   1.232  14.565  0.00  0.00     0.240 C 
ATOM     39  N23 11U d   1     -25.526   0.913  14.142  0.00  0.00    -0.355 N 
ATOM     40  H   11U d   1     -25.351  -0.085  14.021  0.00  0.00     0.162 HD
ATOM     41  O22 11U d   1     -26.913   2.389  14.891  0.00  0.00    -0.271 OA
BRANCH  39  42
ATOM     42  C24 11U d   1     -24.452   1.775  13.822  0.00  0.00     0.019 C 
ATOM     43  H   11U d   1     -24.804   2.806  13.866  0.00  0.00     0.071 H 
ATOM     44  H   11U d   1     -24.092   1.530  12.823  0.00  0.00     0.071 H 
BRANCH  42  45
ATOM     45  C25 11U d   1     -23.330   1.609  14.791  0.00  0.00    -0.040 A 
ATOM     46  C30 11U d   1     -23.388   2.009  16.111  0.00  0.00    -0.074 A 
ATOM     47  C29 11U d   1     -22.271   1.800  16.921  0.00  0.00    -0.069 A 
ATOM     48  H   11U d   1     -24.287   2.478  16.512  0.00  0.00     0.084 H 
ATOM     49  C28 11U d   1     -21.098   1.215  16.496  0.00  0.00     0.007 A 
ATOM     50  H   11U d   1     -22.331   2.121  17.961  0.00  0.00     0.085 H 
ATOM     51  C27 11U d   1     -21.073   0.825  15.160  0.00  0.00    -0.069 A 
ATOM     52  C26 11U d   1     -22.165   1.014  14.315  0.00  0.00    -0.074 A 
ATOM     53  H   11U d   1     -20.172   0.358  14.763  0.00  0.00     0.085 H 
ATOM     54  H   11U d   1     -22.107   0.694  13.275  0.00  0.00     0.084 H 
BRANCH  49  55
ATOM     55  C31 11U d   1     -19.923   1.015  17.416  0.00  0.00     0.102 C 
ATOM     56  N48 11U d   1     -19.072   0.006  17.202  0.00  0.00    -0.385 N 
ATOM     57  H   11U d   1     -19.219  -0.627  16.416  0.00  0.00     0.157 HD
ATOM     58  H   11U d   1     -18.276  -0.130  17.825  0.00  0.00     0.157 HD
BRANCH  55  59
ATOM     59  N49 11U d   1     -19.754   1.862  18.445  0.00  0.00    -0.385 N 
ATOM     60  H   11U d   1     -20.416   2.624  18.592  0.00  0.00     0.157 HD
ATOM     61  H   11U d   1     -18.964   1.743  19.079  0.00  0.00     0.157 HD
ENDBRANCH  55  59
ENDBRANCH  49  55
ENDBRANCH  42  45
ENDBRANCH  39  42
ENDBRANCH   7  38
TORSDOF 8
