REMARK  5 active torsions:
REMARK  status: ('A' for Active; 'I' for Inactive)
REMARK    1  A    between atoms: C11_1  and  C10_4 
REMARK    2  A    between atoms: C10_4  and  C9_5 
REMARK    3  A    between atoms: C9_5  and  C8_6 
REMARK    4  A    between atoms: C8_6  and  C7_7 
REMARK    5  A    between atoms: C7_7  and  C2_8 
ROOT
ATOM      1  C2  BTN d   1      10.121  21.473   6.468  0.00  0.00     0.012 C 
ATOM      2  S1  BTN d   1       8.713  22.268   5.947  0.00  0.00    -0.160 SA
ATOM      3  C6  BTN d   1       7.757  20.833   6.492  0.00  0.00    -0.002 C 
ATOM      4  C5  BTN d   1       8.322  20.452   7.846  0.00  0.00     0.041 A 
ATOM      5  N1  BTN d   1       7.762  21.258   8.908  0.00  0.00    -0.347 N 
ATOM      6  C3  BTN d   1       8.676  22.052   9.442  0.00  0.00     0.248 A 
ATOM      7  O3  BTN d   1       8.416  22.881  10.526  0.00  0.00    -0.152 OA
ATOM      8  N2  BTN d   1       9.864  21.848   8.924  0.00  0.00    -0.347 N 
ATOM      9  C4  BTN d   1       9.783  20.877   7.843  0.00  0.00     0.045 A 
ATOM     10  H9  BTN d   1      10.311  20.643   5.772  0.00  0.00     0.059 H 
ATOM     11  H10 BTN d   1       7.873  20.002   5.781  0.00  0.00     0.052 H 
ATOM     12  H11 BTN d   1       6.692  21.093   6.581  0.00  0.00     0.052 H 
ATOM     13  H12 BTN d   1       8.191  19.377   8.038  0.00  0.00     0.076 H 
ATOM     14  H13 BTN d   1       6.807  21.220   9.201  0.00  0.00     0.163 HD
ATOM     15  H14 BTN d   1      10.705  22.296   9.228  0.00  0.00     0.163 HD
ATOM     16  H15 BTN d   1      10.447  20.024   8.045  0.00  0.00     0.077 H 
ENDROOT
BRANCH   1  17
ATOM     17  C7  BTN d   1      11.404  22.326   6.482  0.00  0.00    -0.051 C 
ATOM     18  H7  BTN d   1      11.192  23.294   6.960  0.00  0.00     0.034 H 
ATOM     19  H8  BTN d   1      12.185  21.799   7.050  0.00  0.00     0.034 H 
BRANCH  17  20
ATOM     20  C8  BTN d   1      11.890  22.563   5.056  0.00  0.00    -0.063 C 
ATOM     21  H5  BTN d   1      12.141  21.595   4.597  0.00  0.00     0.033 H 
ATOM     22  H6  BTN d   1      11.087  23.045   4.479  0.00  0.00     0.033 H 
BRANCH  20  23
ATOM     23  C9  BTN d   1      13.123  23.458   5.036  0.00  0.00    -0.056 C 
ATOM     24  H3  BTN d   1      12.868  24.432   5.479  0.00  0.00     0.033 H 
ATOM     25  H4  BTN d   1      13.921  22.985   5.627  0.00  0.00     0.033 H 
BRANCH  23  26
ATOM     26  C10 BTN d   1      13.622  23.674   3.602  0.00  0.00     0.016 C 
ATOM     27  H1  BTN d   1      12.786  24.049   2.993  0.00  0.00     0.049 H 
ATOM     28  H2  BTN d   1      14.427  24.423   3.620  0.00  0.00     0.049 H 
BRANCH  26  29
ATOM     29  C11 BTN d   1      14.156  22.405   2.962  0.00  0.00     0.172 C 
ATOM     30  O11 BTN d   1      13.985  22.216   1.737  0.00  0.00    -0.648 OA
ATOM     31  O12 BTN d   1      14.760  21.530   3.628  0.00  0.00    -0.648 OA
ENDBRANCH  26  29
ENDBRANCH  23  26
ENDBRANCH  20  23
ENDBRANCH  17  20
ENDBRANCH   1  17
TORSDOF 5
