REMARK  24 active torsions:
REMARK  status: ('A' for Active; 'I' for Inactive)
REMARK    1  A    between atoms: C4_3  and  C13_7 
REMARK    2  A    between atoms: C13_7  and  O15_8 
REMARK    3  A    between atoms: O15_8  and  C17_9 
REMARK       I    between atoms: C17_9  and  N21_11 
REMARK    4  A    between atoms: N21_11  and  C23_12 
REMARK    5  A    between atoms: C23_12  and  C25_13 
REMARK    6  A    between atoms: C23_12  and  C31_16 
REMARK    7  A    between atoms: C25_13  and  N27_14 
REMARK       I    between atoms: N27_14  and  C29_15 
REMARK    8  A    between atoms: C29_15  and  C45_23 
REMARK       I    between atoms: C31_16  and  N33_17 
REMARK    9  A    between atoms: N33_17  and  C37_19 
REMARK   10  A    between atoms: C37_19  and  C39_20 
REMARK   11  A    between atoms: C37_19  and  C41_21 
REMARK       I    between atoms: C39_20  and  N49_25 
REMARK   12  A    between atoms: C41_21  and  C51_26 
REMARK   13  A    between atoms: C45_23  and  C76_38 
REMARK   14  A    between atoms: C45_23  and  C78_39 
REMARK   15  A    between atoms: C45_23  and  C80_40 
REMARK   16  A    between atoms: N49_25  and  C57_29 
REMARK   17  A    between atoms: C51_26  and  C53_27 
REMARK   18  A    between atoms: C51_26  and  C55_28 
REMARK   19  A    between atoms: C57_29  and  C59_30 
REMARK   20  A    between atoms: C57_29  and  C63_32 
REMARK   21  A    between atoms: C59_30  and  C61_31 
REMARK   22  A    between atoms: C63_32  and  C82_41 
REMARK   23  A    between atoms: C82_41  and  C84_42 
REMARK   24  A    between atoms: C84_42  and  C86_43 
ROOT
ATOM      1  C37 ZU3 d   1      15.440  10.388  25.315  0.00  0.00     0.089 C 
ATOM      2  H14 ZU3 d   1      15.316   9.296  25.270  0.00  0.00     0.087 H 
ENDROOT
BRANCH   1   3
ATOM      3  N33 ZU3 d   1      15.327  10.927  26.794  0.00  0.00    -0.346 N 
ATOM      4  C31 ZU3 d   1      16.079   9.933  27.588  0.00  0.00     0.242 C 
ATOM      5  O35 ZU3 d   1      16.852   9.169  27.051  0.00  0.00    -0.271 OA
ATOM      6  H13 ZU3 d   1      14.857  11.748  27.118  0.00  0.00     0.163 HD
BRANCH   4   7
ATOM      7  C23 ZU3 d   1      16.028   9.839  29.125  0.00  0.00     0.106 C 
ATOM      8  H9  ZU3 d   1      16.407   8.839  29.384  0.00  0.00     0.090 H 
BRANCH   7   9
ATOM      9  N21 ZU3 d   1      16.914  10.824  29.743  0.00  0.00    -0.322 N 
ATOM     10  C17 ZU3 d   1      17.553  11.985  29.158  0.00  0.00     0.361 C 
ATOM     11  O19 ZU3 d   1      17.447  12.309  27.960  0.00  0.00    -0.238 OA
ATOM     12  H8  ZU3 d   1      17.108  10.674  30.713  0.00  0.00     0.165 HD
BRANCH  10  13
ATOM     13  O15 ZU3 d   1      18.250  12.850  30.028  0.00  0.00    -0.299 OA
BRANCH  13  14
ATOM     14  C13 ZU3 d   1      17.406  13.332  31.121  0.00  0.00     0.054 C 
ATOM     15  H6  ZU3 d   1      16.983  12.470  31.657  0.00  0.00     0.082 H 
ATOM     16  H7  ZU3 d   1      18.018  13.930  31.812  0.00  0.00     0.082 H 
BRANCH  14  17
ATOM     17  C4  ZU3 d   1      16.272  14.192  30.590  0.00  0.00    -0.034 A 
ATOM     18  C2  ZU3 d   1      16.497  15.166  29.636  0.00  0.00    -0.075 A 
ATOM     19  C1  ZU3 d   1      15.367  15.991  29.124  0.00  0.00    -0.082 A 
ATOM     20  H2  ZU3 d   1      17.500  15.331  29.259  0.00  0.00     0.084 H 
ATOM     21  C10 ZU3 d   1      14.109  15.779  29.607  0.00  0.00    -0.083 A 
ATOM     22  H1  ZU3 d   1      15.543  16.753  28.374  0.00  0.00     0.083 H 
ATOM     23  C8  ZU3 d   1      13.877  14.723  30.645  0.00  0.00    -0.082 A 
ATOM     24  H5  ZU3 d   1      13.279  16.373  29.241  0.00  0.00     0.083 H 
ATOM     25  C6  ZU3 d   1      14.904  13.968  31.111  0.00  0.00    -0.075 A 
ATOM     26  H4  ZU3 d   1      12.876  14.560  31.028  0.00  0.00     0.083 H 
ATOM     27  H3  ZU3 d   1      14.724  13.206  31.860  0.00  0.00     0.084 H 
ENDBRANCH  14  17
ENDBRANCH  13  14
ENDBRANCH  10  13
ENDBRANCH   7   9
BRANCH   7  28
ATOM     28  C25 ZU3 d   1      14.631   9.962  29.765  0.00  0.00     0.022 C 
ATOM     29  H10 ZU3 d   1      14.019   9.109  29.437  0.00  0.00     0.067 H 
ATOM     30  H11 ZU3 d   1      14.169  10.899  29.420  0.00  0.00     0.067 H 
BRANCH  28  31
ATOM     31  N27 ZU3 d   1      14.670   9.973  31.269  0.00  0.00    -0.358 N 
ATOM     32  C29 ZU3 d   1      15.320   8.923  32.044  0.00  0.00     0.225 C 
ATOM     33  O43 ZU3 d   1      15.869   7.985  31.452  0.00  0.00    -0.273 OA
ATOM     34  H12 ZU3 d   1      14.233  10.730  31.756  0.00  0.00     0.162 HD
BRANCH  32  35
ATOM     35  C45 ZU3 d   1      15.331   8.945  33.581  0.00  0.00     0.030 C 
BRANCH  35  36
ATOM     36  C76 ZU3 d   1      13.944   8.590  34.166  0.00  0.00    -0.061 C 
ATOM     37  H36 ZU3 d   1      13.992   8.616  35.265  0.00  0.00     0.029 H 
ATOM     38  H37 ZU3 d   1      13.654   7.582  33.836  0.00  0.00     0.029 H 
ATOM     39  H38 ZU3 d   1      13.200   9.320  33.814  0.00  0.00     0.029 H 
ENDBRANCH  35  36
BRANCH  35  40
ATOM     40  C78 ZU3 d   1      15.786  10.354  34.071  0.00  0.00    -0.061 C 
ATOM     41  H39 ZU3 d   1      16.773  10.589  33.646  0.00  0.00     0.029 H 
ATOM     42  H40 ZU3 d   1      15.850  10.357  35.169  0.00  0.00     0.029 H 
ATOM     43  H41 ZU3 d   1      15.056  11.109  33.744  0.00  0.00     0.029 H 
ENDBRANCH  35  40
BRANCH  35  44
ATOM     44  C80 ZU3 d   1      16.384   7.945  34.127  0.00  0.00    -0.061 C 
ATOM     45  H42 ZU3 d   1      16.118   6.925  33.813  0.00  0.00     0.029 H 
ATOM     46  H43 ZU3 d   1      16.404   7.997  35.226  0.00  0.00     0.029 H 
ATOM     47  H44 ZU3 d   1      17.376   8.204  33.729  0.00  0.00     0.029 H 
ENDBRANCH  35  44
ENDBRANCH  32  35
ENDBRANCH  28  31
ENDBRANCH   7  28
ENDBRANCH   4   7
ENDBRANCH   1   3
BRANCH   1  48
ATOM     48  C39 ZU3 d   1      16.767  10.783  24.661  0.00  0.00     0.240 C 
ATOM     49  O47 ZU3 d   1      17.672  11.599  24.818  0.00  0.00    -0.271 OA
ATOM     50  N49 ZU3 d   1      17.040   9.622  23.830  0.00  0.00    -0.355 N 
ATOM     51  H17 ZU3 d   1      16.335   8.925  23.700  0.00  0.00     0.162 HD
BRANCH  50  52
ATOM     52  C57 ZU3 d   1      18.369   9.468  23.171  0.00  0.00     0.013 C 
ATOM     53  H25 ZU3 d   1      18.922  10.415  23.253  0.00  0.00     0.072 H 
BRANCH  52  54
ATOM     54  C59 ZU3 d   1      19.189   8.352  23.893  0.00  0.00    -0.035 C 
ATOM     55  H26 ZU3 d   1      20.073   8.137  23.275  0.00  0.00     0.037 H 
ATOM     56  H27 ZU3 d   1      18.554   7.456  23.949  0.00  0.00     0.037 H 
BRANCH  54  57
ATOM     57  C61 ZU3 d   1      19.684   8.665  25.327  0.00  0.00     0.027 C 
ATOM     58  C65 ZU3 d   1      20.641   7.671  25.819  0.00  0.00     0.221 C 
ATOM     59  O66 ZU3 d   1      20.712   6.494  25.416  0.00  0.00    -0.273 OA
ATOM     60  N69 ZU3 d   1      21.479   8.236  26.823  0.00  0.00    -0.361 N 
ATOM     61  C71 ZU3 d   1      21.079   9.657  27.013  0.00  0.00    -0.004 C 
ATOM     62  H31 ZU3 d   1      22.209   7.761  27.314  0.00  0.00     0.162 HD
ATOM     63  C73 ZU3 d   1      20.496   9.964  25.605  0.00  0.00    -0.039 C 
ATOM     64  H32 ZU3 d   1      21.943  10.297  27.245  0.00  0.00     0.064 H 
ATOM     65  H33 ZU3 d   1      20.320   9.765  27.802  0.00  0.00     0.064 H 
ATOM     66  H34 ZU3 d   1      19.845  10.851  25.622  0.00  0.00     0.036 H 
ATOM     67  H35 ZU3 d   1      21.293  10.109  24.861  0.00  0.00     0.036 H 
ATOM     68  H28 ZU3 d   1      18.787   8.672  25.963  0.00  0.00     0.054 H 
ENDBRANCH  54  57
ENDBRANCH  52  54
BRANCH  52  69
ATOM     69  C63 ZU3 d   1      18.158   9.147  21.668  0.00  0.00    -0.040 C 
ATOM     70  H29 ZU3 d   1      17.587   8.211  21.573  0.00  0.00     0.036 H 
ATOM     71  H30 ZU3 d   1      19.137   9.030  21.181  0.00  0.00     0.036 H 
BRANCH  69  72
ATOM     72  C82 ZU3 d   1      17.377  10.294  20.978  0.00  0.00    -0.008 C 
ATOM     73  H45 ZU3 d   1      16.686  10.742  21.707  0.00  0.00     0.044 H 
ATOM     74  H46 ZU3 d   1      16.803   9.877  20.137  0.00  0.00     0.044 H 
BRANCH  72  75
ATOM     75  C84 ZU3 d   1      18.307  11.384  20.447  0.00  0.00     0.123 C 
ATOM     76  O88 ZU3 d   1      19.506  11.138  20.227  0.00  0.00    -0.298 OA
BRANCH  75  77
ATOM     77  C86 ZU3 d   1      17.773  12.777  20.178  0.00  0.00    -0.021 C 
ATOM     78  H47 ZU3 d   1      18.587  13.415  19.803  0.00  0.00     0.037 H 
ATOM     79  H48 ZU3 d   1      17.373  13.203  21.110  0.00  0.00     0.037 H 
ATOM     80  H49 ZU3 d   1      16.972  12.724  19.426  0.00  0.00     0.037 H 
ENDBRANCH  75  77
ENDBRANCH  72  75
ENDBRANCH  69  72
ENDBRANCH  52  69
ENDBRANCH  50  52
ENDBRANCH   1  48
BRANCH   1  81
ATOM     81  C41 ZU3 d   1      14.313  11.097  24.683  0.00  0.00    -0.035 C 
ATOM     82  H15 ZU3 d   1      14.451  10.890  23.611  0.00  0.00     0.037 H 
ATOM     83  H16 ZU3 d   1      14.534  12.156  24.883  0.00  0.00     0.037 H 
BRANCH  81  84
ATOM     84  C51 ZU3 d   1      12.727  11.006  24.877  0.00  0.00    -0.059 C 
ATOM     85  H18 ZU3 d   1      12.599  11.618  25.782  0.00  0.00     0.038 H 
BRANCH  84  86
ATOM     86  C53 ZU3 d   1      12.016  11.787  23.779  0.00  0.00    -0.073 C 
ATOM     87  H19 ZU3 d   1      10.928  11.716  23.924  0.00  0.00     0.028 H 
ATOM     88  H20 ZU3 d   1      12.283  11.367  22.798  0.00  0.00     0.028 H 
ATOM     89  H21 ZU3 d   1      12.323  12.842  23.822  0.00  0.00     0.028 H 
ENDBRANCH  84  86
BRANCH  84  90
ATOM     90  C55 ZU3 d   1      11.873   9.786  25.229  0.00  0.00    -0.073 C 
ATOM     91  H22 ZU3 d   1      12.370   9.207  26.022  0.00  0.00     0.028 H 
ATOM     92  H23 ZU3 d   1      11.750   9.155  24.337  0.00  0.00     0.028 H 
ATOM     93  H24 ZU3 d   1      10.886  10.119  25.582  0.00  0.00     0.028 H 
ENDBRANCH  84  90
ENDBRANCH  81  84
ENDBRANCH   1  81
TORSDOF 24
