REMARK  24 active torsions:
REMARK  status: ('A' for Active; 'I' for Inactive)
REMARK    1  A    between atoms: C4_3  and  C13_7 
REMARK    2  A    between atoms: C13_7  and  O15_8 
REMARK    3  A    between atoms: O15_8  and  C17_9 
REMARK       I    between atoms: C17_9  and  N21_11 
REMARK    4  A    between atoms: N21_11  and  C23_12 
REMARK    5  A    between atoms: C23_12  and  C25_13 
REMARK    6  A    between atoms: C23_12  and  C31_16 
REMARK    7  A    between atoms: C25_13  and  N27_14 
REMARK       I    between atoms: N27_14  and  C29_15 
REMARK    8  A    between atoms: C29_15  and  C45_23 
REMARK       I    between atoms: C31_16  and  N33_17 
REMARK    9  A    between atoms: N33_17  and  C37_19 
REMARK   10  A    between atoms: C37_19  and  C39_20 
REMARK   11  A    between atoms: C37_19  and  C41_21 
REMARK       I    between atoms: C39_20  and  N49_25 
REMARK   12  A    between atoms: C41_21  and  C51_26 
REMARK   13  A    between atoms: C45_23  and  C76_38 
REMARK   14  A    between atoms: C45_23  and  C78_39 
REMARK   15  A    between atoms: C45_23  and  C80_40 
REMARK   16  A    between atoms: N49_25  and  C57_29 
REMARK   17  A    between atoms: C51_26  and  C53_27 
REMARK   18  A    between atoms: C51_26  and  C55_28 
REMARK   19  A    between atoms: C57_29  and  C59_30 
REMARK   20  A    between atoms: C57_29  and  C63_32 
REMARK   21  A    between atoms: C59_30  and  C61_31 
REMARK   22  A    between atoms: C63_32  and  C82_41 
REMARK   23  A    between atoms: C82_41  and  C84_42 
REMARK   24  A    between atoms: C84_42  and  C86_43 
ROOT
ATOM      1  C37 ZU3 d   1      17.321  -1.550  21.358  0.00  0.00     0.089 C 
ATOM      2  H14 ZU3 d   1      16.609  -1.428  20.529  0.00  0.00     0.087 H 
ENDROOT
BRANCH   1   3
ATOM      3  N33 ZU3 d   1      18.014  -0.283  21.565  0.00  0.00    -0.346 N 
ATOM      4  C31 ZU3 d   1      17.262   0.928  21.782  0.00  0.00     0.242 C 
ATOM      5  O35 ZU3 d   1      15.972   0.903  21.785  0.00  0.00    -0.271 OA
ATOM      6  H13 ZU3 d   1      19.014  -0.254  21.556  0.00  0.00     0.163 HD
BRANCH   4   7
ATOM      7  C23 ZU3 d   1      18.003   2.215  22.092  0.00  0.00     0.106 C 
ATOM      8  H9  ZU3 d   1      19.081   1.995  22.093  0.00  0.00     0.090 H 
BRANCH   7   9
ATOM      9  N21 ZU3 d   1      17.724   3.183  21.041  0.00  0.00    -0.322 N 
ATOM     10  C17 ZU3 d   1      18.660   3.479  20.037  0.00  0.00     0.361 C 
ATOM     11  O19 ZU3 d   1      19.799   2.916  20.012  0.00  0.00    -0.238 OA
ATOM     12  H8  ZU3 d   1      16.840   3.651  21.034  0.00  0.00     0.165 HD
BRANCH  10  13
ATOM     13  O15 ZU3 d   1      18.266   4.399  19.056  0.00  0.00    -0.299 OA
BRANCH  13  14
ATOM     14  C13 ZU3 d   1      19.339   4.839  18.167  0.00  0.00     0.054 C 
ATOM     15  H6  ZU3 d   1      20.080   4.034  18.053  0.00  0.00     0.082 H 
ATOM     16  H7  ZU3 d   1      18.923   5.096  17.182  0.00  0.00     0.082 H 
BRANCH  14  17
ATOM     17  C4  ZU3 d   1      19.997   6.055  18.775  0.00  0.00    -0.034 A 
ATOM     18  C2  ZU3 d   1      21.194   5.925  19.449  0.00  0.00    -0.075 A 
ATOM     19  C1  ZU3 d   1      21.840   7.122  20.055  0.00  0.00    -0.082 A 
ATOM     20  H2  ZU3 d   1      21.664   4.952  19.537  0.00  0.00     0.084 H 
ATOM     21  C10 ZU3 d   1      21.241   8.339  19.934  0.00  0.00    -0.083 A 
ATOM     22  H1  ZU3 d   1      22.779   7.026  20.588  0.00  0.00     0.083 H 
ATOM     23  C8  ZU3 d   1      19.939   8.470  19.196  0.00  0.00    -0.082 A 
ATOM     24  H5  ZU3 d   1      21.705   9.216  20.371  0.00  0.00     0.083 H 
ATOM     25  C6  ZU3 d   1      19.350   7.390  18.649  0.00  0.00    -0.075 A 
ATOM     26  H4  ZU3 d   1      19.470   9.443  19.103  0.00  0.00     0.083 H 
ATOM     27  H3  ZU3 d   1      18.410   7.492  18.120  0.00  0.00     0.084 H 
ENDBRANCH  14  17
ENDBRANCH  13  14
ENDBRANCH  10  13
ENDBRANCH   7   9
BRANCH   7  28
ATOM     28  C25 ZU3 d   1      17.646   2.814  23.454  0.00  0.00     0.022 C 
ATOM     29  H10 ZU3 d   1      18.004   2.142  24.248  0.00  0.00     0.067 H 
ATOM     30  H11 ZU3 d   1      16.553   2.918  23.527  0.00  0.00     0.067 H 
BRANCH  28  31
ATOM     31  N27 ZU3 d   1      18.272   4.142  23.624  0.00  0.00    -0.358 N 
ATOM     32  C29 ZU3 d   1      19.647   4.213  24.099  0.00  0.00     0.225 C 
ATOM     33  O43 ZU3 d   1      20.266   3.144  24.354  0.00  0.00    -0.273 OA
ATOM     34  H12 ZU3 d   1      17.761   4.976  23.417  0.00  0.00     0.162 HD
BRANCH  32  35
ATOM     35  C45 ZU3 d   1      20.355   5.543  24.304  0.00  0.00     0.030 C 
BRANCH  35  36
ATOM     36  C76 ZU3 d   1      20.824   5.660  25.760  0.00  0.00    -0.061 C 
ATOM     37  H36 ZU3 d   1      21.335   6.623  25.904  0.00  0.00     0.029 H 
ATOM     38  H37 ZU3 d   1      21.518   4.838  25.989  0.00  0.00     0.029 H 
ATOM     39  H38 ZU3 d   1      19.954   5.603  26.431  0.00  0.00     0.029 H 
ENDBRANCH  35  36
BRANCH  35  40
ATOM     40  C78 ZU3 d   1      19.407   6.733  23.934  0.00  0.00    -0.061 C 
ATOM     41  H39 ZU3 d   1      19.082   6.631  22.888  0.00  0.00     0.029 H 
ATOM     42  H40 ZU3 d   1      19.946   7.684  24.060  0.00  0.00     0.029 H 
ATOM     43  H41 ZU3 d   1      18.527   6.720  24.594  0.00  0.00     0.029 H 
ENDBRANCH  35  40
BRANCH  35  44
ATOM     44  C80 ZU3 d   1      21.543   5.627  23.350  0.00  0.00    -0.061 C 
ATOM     45  H42 ZU3 d   1      22.246   4.809  23.567  0.00  0.00     0.029 H 
ATOM     46  H43 ZU3 d   1      22.052   6.593  23.483  0.00  0.00     0.029 H 
ATOM     47  H44 ZU3 d   1      21.187   5.540  22.313  0.00  0.00     0.029 H 
ENDBRANCH  35  44
ENDBRANCH  32  35
ENDBRANCH  28  31
ENDBRANCH   7  28
ENDBRANCH   4   7
ENDBRANCH   1   3
BRANCH   1  48
ATOM     48  C39 ZU3 d   1      16.515  -1.876  22.596  0.00  0.00     0.240 C 
ATOM     49  O47 ZU3 d   1      16.979  -1.539  23.723  0.00  0.00    -0.271 OA
ATOM     50  N49 ZU3 d   1      15.253  -2.541  22.543  0.00  0.00    -0.355 N 
ATOM     51  H17 ZU3 d   1      14.876  -2.820  21.660  0.00  0.00     0.162 HD
BRANCH  50  52
ATOM     52  C57 ZU3 d   1      14.513  -2.816  23.759  0.00  0.00     0.013 C 
ATOM     53  H25 ZU3 d   1      15.143  -2.647  24.645  0.00  0.00     0.072 H 
BRANCH  52  54
ATOM     54  C59 ZU3 d   1      13.240  -1.803  23.812  0.00  0.00    -0.035 C 
ATOM     55  H26 ZU3 d   1      12.504  -2.218  24.516  0.00  0.00     0.037 H 
ATOM     56  H27 ZU3 d   1      12.799  -1.757  22.805  0.00  0.00     0.037 H 
BRANCH  54  57
ATOM     57  C61 ZU3 d   1      13.566  -0.370  24.254  0.00  0.00     0.027 C 
ATOM     58  C65 ZU3 d   1      12.340   0.476  24.330  0.00  0.00     0.221 C 
ATOM     59  O66 ZU3 d   1      11.405   0.411  23.511  0.00  0.00    -0.273 OA
ATOM     60  N69 ZU3 d   1      12.381   1.365  25.446  0.00  0.00    -0.361 N 
ATOM     61  C71 ZU3 d   1      13.631   1.224  26.209  0.00  0.00    -0.004 C 
ATOM     62  H31 ZU3 d   1      11.650   2.005  25.680  0.00  0.00     0.162 HD
ATOM     63  C73 ZU3 d   1      14.178  -0.160  25.724  0.00  0.00    -0.039 C 
ATOM     64  H32 ZU3 d   1      13.436   1.216  27.291  0.00  0.00     0.064 H 
ATOM     65  H33 ZU3 d   1      14.335   2.034  25.970  0.00  0.00     0.064 H 
ATOM     66  H34 ZU3 d   1      15.277  -0.147  25.685  0.00  0.00     0.036 H 
ATOM     67  H35 ZU3 d   1      13.845  -0.963  26.398  0.00  0.00     0.036 H 
ATOM     68  H28 ZU3 d   1      14.267   0.042  23.513  0.00  0.00     0.054 H 
ENDBRANCH  54  57
ENDBRANCH  52  54
BRANCH  52  69
ATOM     69  C63 ZU3 d   1      14.131  -4.275  23.684  0.00  0.00    -0.040 C 
ATOM     70  H29 ZU3 d   1      13.609  -4.467  22.735  0.00  0.00     0.036 H 
ATOM     71  H30 ZU3 d   1      13.466  -4.522  24.525  0.00  0.00     0.036 H 
BRANCH  69  72
ATOM     72  C82 ZU3 d   1      15.424  -5.171  23.760  0.00  0.00    -0.008 C 
ATOM     73  H45 ZU3 d   1      16.256  -4.569  24.155  0.00  0.00     0.044 H 
ATOM     74  H46 ZU3 d   1      15.675  -5.526  22.750  0.00  0.00     0.044 H 
BRANCH  72  75
ATOM     75  C84 ZU3 d   1      15.203  -6.377  24.672  0.00  0.00     0.123 C 
ATOM     76  O88 ZU3 d   1      14.100  -6.618  25.114  0.00  0.00    -0.298 OA
BRANCH  75  77
ATOM     77  C86 ZU3 d   1      16.360  -7.339  24.994  0.00  0.00    -0.021 C 
ATOM     78  H47 ZU3 d   1      16.000  -8.136  25.662  0.00  0.00     0.037 H 
ATOM     79  H48 ZU3 d   1      17.171  -6.785  25.489  0.00  0.00     0.037 H 
ATOM     80  H49 ZU3 d   1      16.737  -7.785  24.061  0.00  0.00     0.037 H 
ENDBRANCH  75  77
ENDBRANCH  72  75
ENDBRANCH  69  72
ENDBRANCH  52  69
ENDBRANCH  50  52
ENDBRANCH   1  48
BRANCH   1  81
ATOM     81  C41 ZU3 d   1      18.368  -2.643  20.916  0.00  0.00    -0.035 C 
ATOM     82  H15 ZU3 d   1      17.819  -3.591  20.823  0.00  0.00     0.037 H 
ATOM     83  H16 ZU3 d   1      19.105  -2.725  21.728  0.00  0.00     0.037 H 
BRANCH  81  84
ATOM     84  C51 ZU3 d   1      19.176  -2.454  19.586  0.00  0.00    -0.059 C 
ATOM     85  H18 ZU3 d   1      19.809  -1.564  19.714  0.00  0.00     0.038 H 
BRANCH  84  86
ATOM     86  C53 ZU3 d   1      20.098  -3.629  19.191  0.00  0.00    -0.073 C 
ATOM     87  H19 ZU3 d   1      20.613  -3.390  18.248  0.00  0.00     0.028 H 
ATOM     88  H20 ZU3 d   1      19.495  -4.540  19.059  0.00  0.00     0.028 H 
ATOM     89  H21 ZU3 d   1      20.843  -3.793  19.984  0.00  0.00     0.028 H 
ENDBRANCH  84  86
BRANCH  84  90
ATOM     90  C55 ZU3 d   1      18.201  -2.206  18.416  0.00  0.00    -0.073 C 
ATOM     91  H22 ZU3 d   1      17.529  -1.372  18.669  0.00  0.00     0.028 H 
ATOM     92  H23 ZU3 d   1      17.607  -3.114  18.235  0.00  0.00     0.028 H 
ATOM     93  H24 ZU3 d   1      18.772  -1.955  17.510  0.00  0.00     0.028 H 
ENDBRANCH  84  90
ENDBRANCH  81  84
ENDBRANCH   1  81
TORSDOF 24
