REMARK  25 active torsions:
REMARK  status: ('A' for Active; 'I' for Inactive)
REMARK    1  A    between atoms: C1_1  and  C7_4 
REMARK    2  A    between atoms: C7_4  and  C9_5 
REMARK    3  A    between atoms: C9_5  and  C11_6 
REMARK    4  A    between atoms: C11_6  and  C13_7 
REMARK    5  A    between atoms: C13_7  and  C15_8 
REMARK    6  A    between atoms: C13_7  and  N32_16 
REMARK    7  A    between atoms: C15_8  and  C17_9 
REMARK       I    between atoms: N32_16  and  C34_17 
REMARK    8  A    between atoms: C34_17  and  C38_19 
REMARK    9  A    between atoms: C38_19  and  C40_20 
REMARK   10  A    between atoms: C38_19  and  N48_24 
REMARK   11  A    between atoms: C40_20  and  C42_21 
REMARK   12  A    between atoms: C42_21  and  C44_22 
REMARK   13  A    between atoms: C42_21  and  C46_23 
REMARK       I    between atoms: N48_24  and  C50_25 
REMARK   14  A    between atoms: C50_25  and  C54_27 
REMARK   15  A    between atoms: C54_27  and  C56_28 
REMARK   16  A    between atoms: C54_27  and  N70_35 
REMARK   17  A    between atoms: C56_28  and  C58_29 
REMARK   18  A    between atoms: C56_28  and  O60_30 
REMARK   19  A    between atoms: O60_30  and  C62_31 
REMARK   20  A    between atoms: C62_31  and  C64_32 
REMARK   21  A    between atoms: C62_31  and  C66_33 
REMARK   22  A    between atoms: C62_31  and  C68_34 
REMARK       I    between atoms: N70_35  and  C72_36 
REMARK   23  A    between atoms: C72_36  and  O76_38 
REMARK   24  A    between atoms: O76_38  and  C78_39 
REMARK   25  A    between atoms: C78_39  and  C80_40 
ROOT
ATOM      1  C38 ZU5 d   1      17.313  -1.266  21.400  0.00  0.00     0.089 C 
ATOM      2  H20 ZU5 d   1      16.510  -1.185  20.652  0.00  0.00     0.087 H 
ENDROOT
BRANCH   1   3
ATOM      3  C34 ZU5 d   1      16.650  -1.865  22.636  0.00  0.00     0.240 C 
ATOM      4  N32 ZU5 d   1      15.375  -2.553  22.598  0.00  0.00    -0.355 N 
ATOM      5  H19 ZU5 d   1      15.077  -2.881  21.702  0.00  0.00     0.162 HD
ATOM      6  O36 ZU5 d   1      17.212  -1.727  23.713  0.00  0.00    -0.271 OA
BRANCH   4   7
ATOM      7  C13 ZU5 d   1      14.537  -2.804  23.638  0.00  0.00     0.013 C 
ATOM      8  H10 ZU5 d   1      15.137  -2.715  24.556  0.00  0.00     0.072 H 
BRANCH   7   9
ATOM      9  C11 ZU5 d   1      14.379  -4.219  23.489  0.00  0.00    -0.040 C 
ATOM     10  H8  ZU5 d   1      13.584  -4.518  24.188  0.00  0.00     0.036 H 
ATOM     11  H9  ZU5 d   1      14.041  -4.387  22.456  0.00  0.00     0.036 H 
BRANCH   9  12
ATOM     12  C9  ZU5 d   1      15.392  -5.053  23.693  0.00  0.00    -0.007 C 
ATOM     13  H6  ZU5 d   1      15.706  -5.451  22.717  0.00  0.00     0.044 H 
ATOM     14  H7  ZU5 d   1      16.219  -4.480  24.138  0.00  0.00     0.044 H 
BRANCH  12  15
ATOM     15  C7  ZU5 d   1      15.094  -6.230  24.604  0.00  0.00     0.131 C 
ATOM     16  O30 ZU5 d   1      13.968  -6.374  25.097  0.00  0.00    -0.298 OA
BRANCH  15  17
ATOM     17  C1  ZU5 d   1      16.153  -7.301  24.960  0.00  0.00     0.004 A 
ATOM     18  C2  ZU5 d   1      17.266  -7.713  23.962  0.00  0.00    -0.055 A 
ATOM     19  C4  ZU5 d   1      17.565  -6.650  25.011  0.00  0.00    -0.055 A 
ATOM     20  H2  ZU5 d   1      17.184  -7.429  22.902  0.00  0.00     0.034 H 
ATOM     21  H3  ZU5 d   1      17.732  -8.706  24.041  0.00  0.00     0.034 H 
ATOM     22  H4  ZU5 d   1      18.245  -6.878  25.845  0.00  0.00     0.034 H 
ATOM     23  H5  ZU5 d   1      17.697  -5.601  24.707  0.00  0.00     0.034 H 
ATOM     24  H1  ZU5 d   1      15.776  -8.022  25.700  0.00  0.00     0.051 H 
ENDBRANCH  15  17
ENDBRANCH  12  15
ENDBRANCH   9  12
ENDBRANCH   7   9
BRANCH   7  25
ATOM     25  C15 ZU5 d   1      13.496  -1.705  23.870  0.00  0.00    -0.035 C 
ATOM     26  H11 ZU5 d   1      12.836  -2.151  24.628  0.00  0.00     0.037 H 
ATOM     27  H12 ZU5 d   1      12.969  -1.661  22.905  0.00  0.00     0.037 H 
BRANCH  25  28
ATOM     28  C17 ZU5 d   1      13.553  -0.210  24.300  0.00  0.00     0.027 C 
ATOM     29  C19 ZU5 d   1      14.039  -0.150  25.754  0.00  0.00    -0.039 C 
ATOM     30  C21 ZU5 d   1      13.476   1.170  26.287  0.00  0.00    -0.004 C 
ATOM     31  H14 ZU5 d   1      15.138  -0.151  25.798  0.00  0.00     0.036 H 
ATOM     32  H15 ZU5 d   1      13.649  -1.001  26.331  0.00  0.00     0.036 H 
ATOM     33  N23 ZU5 d   1      12.251   1.291  25.553  0.00  0.00    -0.361 N 
ATOM     34  H16 ZU5 d   1      14.154   2.009  26.073  0.00  0.00     0.064 H 
ATOM     35  H17 ZU5 d   1      13.289   1.116  27.370  0.00  0.00     0.064 H 
ATOM     36  C25 ZU5 d   1      12.285   0.502  24.409  0.00  0.00     0.221 C 
ATOM     37  H18 ZU5 d   1      11.478   1.864  25.826  0.00  0.00     0.162 HD
ATOM     38  O28 ZU5 d   1      11.353   0.418  23.580  0.00  0.00    -0.273 OA
ATOM     39  H13 ZU5 d   1      14.229   0.326  23.618  0.00  0.00     0.054 H 
ENDBRANCH  25  28
ENDBRANCH   7  25
ENDBRANCH   4   7
ENDBRANCH   1   3
BRANCH   1  40
ATOM     40  C40 ZU5 d   1      18.439  -2.100  20.734  0.00  0.00    -0.035 C 
ATOM     41  H21 ZU5 d   1      18.075  -3.132  20.845  0.00  0.00     0.037 H 
ATOM     42  H22 ZU5 d   1      19.293  -1.938  21.408  0.00  0.00     0.037 H 
BRANCH  40  43
ATOM     43  C42 ZU5 d   1      19.091  -2.120  19.366  0.00  0.00    -0.059 C 
ATOM     44  H23 ZU5 d   1      19.607  -1.160  19.218  0.00  0.00     0.038 H 
BRANCH  43  45
ATOM     45  C44 ZU5 d   1      18.056  -2.277  18.243  0.00  0.00    -0.073 C 
ATOM     46  H24 ZU5 d   1      18.569  -2.287  17.270  0.00  0.00     0.028 H 
ATOM     47  H25 ZU5 d   1      17.349  -1.435  18.276  0.00  0.00     0.028 H 
ATOM     48  H26 ZU5 d   1      17.509  -3.221  18.378  0.00  0.00     0.028 H 
ENDBRANCH  43  45
BRANCH  43  49
ATOM     49  C46 ZU5 d   1      20.142  -3.248  19.310  0.00  0.00    -0.073 C 
ATOM     50  H27 ZU5 d   1      20.870  -3.112  20.124  0.00  0.00     0.028 H 
ATOM     51  H28 ZU5 d   1      20.664  -3.215  18.342  0.00  0.00     0.028 H 
ATOM     52  H29 ZU5 d   1      19.642  -4.221  19.424  0.00  0.00     0.028 H 
ENDBRANCH  43  49
ENDBRANCH  40  43
ENDBRANCH   1  40
BRANCH   1  53
ATOM     53  N48 ZU5 d   1      17.821   0.089  21.629  0.00  0.00    -0.346 N 
ATOM     54  C50 ZU5 d   1      16.966   1.104  21.778  0.00  0.00     0.243 C 
ATOM     55  O52 ZU5 d   1      15.779   0.927  21.722  0.00  0.00    -0.271 OA
ATOM     56  H30 ZU5 d   1      18.806   0.254  21.674  0.00  0.00     0.163 HD
BRANCH  54  57
ATOM     57  C54 ZU5 d   1      17.884   2.169  21.997  0.00  0.00     0.116 C 
ATOM     58  H31 ZU5 d   1      18.919   1.800  22.047  0.00  0.00     0.091 H 
BRANCH  57  59
ATOM     59  C56 ZU5 d   1      17.536   2.970  23.249  0.00  0.00     0.064 C 
ATOM     60  H32 ZU5 d   1      16.478   3.246  23.131  0.00  0.00     0.086 H 
BRANCH  59  61
ATOM     61  C58 ZU5 d   1      17.773   2.121  24.550  0.00  0.00    -0.050 C 
ATOM     62  H33 ZU5 d   1      17.514   2.724  25.433  0.00  0.00     0.031 H 
ATOM     63  H34 ZU5 d   1      18.831   1.824  24.606  0.00  0.00     0.031 H 
ATOM     64  H35 ZU5 d   1      17.140   1.222  24.521  0.00  0.00     0.031 H 
ENDBRANCH  59  61
BRANCH  59  65
ATOM     65  O60 ZU5 d   1      18.270   4.148  23.771  0.00  0.00    -0.374 OA
BRANCH  65  66
ATOM     66  C62 ZU5 d   1      17.812   5.542  24.075  0.00  0.00     0.050 C 
BRANCH  66  67
ATOM     67  C64 ZU5 d   1      16.411   5.446  24.676  0.00  0.00    -0.048 C 
ATOM     68  H36 ZU5 d   1      16.043   6.455  24.912  0.00  0.00     0.031 H 
ATOM     69  H37 ZU5 d   1      16.447   4.845  25.596  0.00  0.00     0.031 H 
ATOM     70  H38 ZU5 d   1      15.734   4.969  23.953  0.00  0.00     0.031 H 
ENDBRANCH  66  67
BRANCH  66  71
ATOM     71  C66 ZU5 d   1      17.708   6.334  22.674  0.00  0.00    -0.048 C 
ATOM     72  H39 ZU5 d   1      17.373   7.365  22.860  0.00  0.00     0.031 H 
ATOM     73  H40 ZU5 d   1      16.985   5.826  22.018  0.00  0.00     0.031 H 
ATOM     74  H41 ZU5 d   1      18.695   6.351  22.188  0.00  0.00     0.031 H 
ENDBRANCH  66  71
BRANCH  66  75
ATOM     75  C68 ZU5 d   1      19.008   6.332  24.571  0.00  0.00    -0.048 C 
ATOM     76  H42 ZU5 d   1      18.697   7.362  24.802  0.00  0.00     0.031 H 
ATOM     77  H43 ZU5 d   1      19.785   6.349  23.792  0.00  0.00     0.031 H 
ATOM     78  H44 ZU5 d   1      19.410   5.858  25.479  0.00  0.00     0.031 H 
ENDBRANCH  66  75
ENDBRANCH  65  66
ENDBRANCH  59  65
ENDBRANCH  57  59
BRANCH  57  79
ATOM     79  N70 ZU5 d   1      17.668   3.037  20.877  0.00  0.00    -0.321 N 
ATOM     80  C72 ZU5 d   1      18.637   3.620  20.061  0.00  0.00     0.361 C 
ATOM     81  O74 ZU5 d   1      19.840   3.383  20.303  0.00  0.00    -0.238 OA
ATOM     82  H45 ZU5 d   1      16.716   3.248  20.656  0.00  0.00     0.165 HD
BRANCH  80  83
ATOM     83  O76 ZU5 d   1      18.534   4.460  18.972  0.00  0.00    -0.299 OA
BRANCH  83  84
ATOM     84  C78 ZU5 d   1      19.501   5.081  18.109  0.00  0.00     0.054 C 
ATOM     85  H46 ZU5 d   1      18.983   5.494  17.231  0.00  0.00     0.082 H 
ATOM     86  H47 ZU5 d   1      20.228   4.322  17.783  0.00  0.00     0.082 H 
BRANCH  84  87
ATOM     87  C80 ZU5 d   1      20.238   6.195  18.810  0.00  0.00    -0.034 A 
ATOM     88  C82 ZU5 d   1      21.491   6.022  19.315  0.00  0.00    -0.075 A 
ATOM     89  C83 ZU5 d   1      22.261   7.077  20.013  0.00  0.00    -0.082 A 
ATOM     90  H48 ZU5 d   1      21.955   5.049  19.198  0.00  0.00     0.084 H 
ATOM     91  C84 ZU5 d   1      21.625   8.412  20.173  0.00  0.00    -0.083 A 
ATOM     92  H49 ZU5 d   1      23.257   6.883  20.395  0.00  0.00     0.083 H 
ATOM     93  C85 ZU5 d   1      20.272   8.595  19.627  0.00  0.00    -0.082 A 
ATOM     94  H50 ZU5 d   1      22.141   9.222  20.675  0.00  0.00     0.083 H 
ATOM     95  C86 ZU5 d   1      19.582   7.482  18.947  0.00  0.00    -0.075 A 
ATOM     96  H51 ZU5 d   1      19.778   9.555  19.725  0.00  0.00     0.083 H 
ATOM     97  H52 ZU5 d   1      18.584   7.626  18.549  0.00  0.00     0.084 H 
ENDBRANCH  84  87
ENDBRANCH  83  84
ENDBRANCH  80  83
ENDBRANCH  57  79
ENDBRANCH  54  57
ENDBRANCH   1  53
TORSDOF 25
