REMARK  1 active torsions:
REMARK  status: ('A' for Active; 'I' for Inactive)
REMARK    1  A    between atoms: CAO_21  and  CAN_22 
ROOT
ATOM      1  CAW 609 d   1       1.100  -8.261 -26.327  0.00  0.00     0.005 A 
ATOM      2  CAR 609 d   1       1.063  -9.644 -26.479  0.00  0.00    -0.007 A 
ATOM      3  CAI 609 d   1      -0.081 -10.248 -26.990  0.00  0.00    -0.071 A 
ATOM      4  CAF 609 d   1      -1.183  -9.478 -27.343  0.00  0.00    -0.081 A 
ATOM      5  CAJ 609 d   1      -1.147  -8.097 -27.191  0.00  0.00    -0.067 A 
ATOM      6  CAS 609 d   1      -0.003  -7.490 -26.683  0.00  0.00     0.045 A 
ATOM      7  CAP 609 d   1       0.024  -6.109 -26.518  0.00  0.00     0.265 A 
ATOM      8  OAB 609 d   1      -0.938  -5.421 -26.856  0.00  0.00    -0.267 OA
ATOM      9  NAX 609 d   1       1.165  -5.503 -25.981  0.00  0.00    -0.259 N 
ATOM     10  CAU 609 d   1       1.463  -4.189 -25.609  0.00  0.00     0.073 A 
ATOM     11  CAK 609 d   1       0.739  -3.004 -25.664  0.00  0.00    -0.054 A 
ATOM     12  CAE 609 d   1       1.293  -1.836 -25.153  0.00  0.00    -0.081 A 
ATOM     13  CAD 609 d   1       2.566  -1.860 -24.593  0.00  0.00    -0.081 A 
ATOM     14  CAH 609 d   1       3.288  -3.047 -24.543  0.00  0.00    -0.053 A 
ATOM     15  CAQ 609 d   1       2.736  -4.218 -25.051  0.00  0.00     0.086 A 
ATOM     16  NAM 609 d   1       3.189  -5.470 -25.084  0.00  0.00    -0.228 NA
ATOM     17  CAV 609 d   1       2.276  -6.275 -25.625  0.00  0.00     0.149 A 
ATOM     18  CAT 609 d   1       2.237  -7.653 -25.803  0.00  0.00     0.023 A 
ATOM     19  CAL 609 d   1       3.334  -8.425 -25.437  0.00  0.00    -0.067 A 
ATOM     20  CAG 609 d   1       3.294  -9.806 -25.594  0.00  0.00    -0.065 A 
ATOM     21  CAO 609 d   1       2.159 -10.419 -26.113  0.00  0.00     0.051 A 
ATOM     22  H   609 d   1      -0.114 -11.330 -27.114  0.00  0.00     0.084 H 
ATOM     23  H   609 d   1      -2.077  -9.958 -27.740  0.00  0.00     0.083 H 
ATOM     24  H   609 d   1      -2.011  -7.493 -27.468  0.00  0.00     0.085 H 
ATOM     25  H   609 d   1      -0.258  -2.990 -26.105  0.00  0.00     0.087 H 
ATOM     26  H   609 d   1       0.731  -0.903 -25.191  0.00  0.00     0.083 H 
ATOM     27  H   609 d   1       2.999  -0.944 -24.192  0.00  0.00     0.083 H 
ATOM     28  H   609 d   1       4.286  -3.060 -24.106  0.00  0.00     0.087 H 
ATOM     29  H   609 d   1       4.224  -7.948 -25.027  0.00  0.00     0.085 H 
ATOM     30  H   609 d   1       4.155 -10.410 -25.309  0.00  0.00     0.085 H 
ENDROOT
BRANCH  21  31
ATOM     31  CAN 609 d   1       2.134 -11.946 -26.239  0.00  0.00     0.210 C 
ATOM     32  OAC 609 d   1       1.046 -12.544 -26.099  0.00  0.00    -0.644 OA
ATOM     33  OAA 609 d   1       3.222 -12.528 -26.437  0.00  0.00    -0.644 OA
ENDBRANCH  21  31
TORSDOF 1
