REMARK  6 active torsions:
REMARK  status: ('A' for Active; 'I' for Inactive)
REMARK    1  A    between atoms: C5_5  and  N25_20 
REMARK    2  A    between atoms: C8_7  and  C11_10 
REMARK    3  A    between atoms: N10_9  and  C22_16 
REMARK    4  A    between atoms: C22_16  and  C23_17 
REMARK    5  A    between atoms: C22_16  and  C24_18 
REMARK    6  A    between atoms: C22_16  and  C25_19 
ROOT
ATOM      1  C1  PP2 d   1      19.100   9.494  -6.847  0.00  0.00     0.164 A 
ATOM      2  N2  PP2 d   1      18.075   9.876  -6.038  0.00  0.00    -0.222 NA
ATOM      3  C3  PP2 d   1      16.804   9.651  -6.411  0.00  0.00     0.091 A 
ATOM      4  N4  PP2 d   1      16.511   9.054  -7.579  0.00  0.00    -0.224 NA
ATOM      5  C5  PP2 d   1      17.489   8.655  -8.421  0.00  0.00     0.139 A 
ATOM      6  C6  PP2 d   1      18.829   8.871  -8.069  0.00  0.00     0.088 A 
ATOM      7  C8  PP2 d   1      20.057   8.582  -8.684  0.00  0.00     0.105 A 
ATOM      8  N9  PP2 d   1      21.061   9.017  -7.890  0.00  0.00    -0.168 NA
ATOM      9  N10 PP2 d   1      20.434   9.567  -6.776  0.00  0.00    -0.242 N 
ATOM     10  H1  PP2 d   1      15.997   9.958  -5.755  0.00  0.00     0.146 H 
ENDROOT
BRANCH   9  11
ATOM     11  C22 PP2 d   1      21.214  10.144  -5.632  0.00  0.00     0.047 C 
BRANCH  11  12
ATOM     12  C23 PP2 d   1      20.903   9.342  -4.374  0.00  0.00    -0.052 C 
ATOM     13  H6  PP2 d   1      21.469   9.755  -3.526  0.00  0.00     0.030 H 
ATOM     14  H7  PP2 d   1      21.189   8.291  -4.529  0.00  0.00     0.030 H 
ATOM     15  H8  PP2 d   1      19.826   9.401  -4.159  0.00  0.00     0.030 H 
ENDBRANCH  11  12
BRANCH  11  16
ATOM     16  C24 PP2 d   1      20.888  11.617  -5.419  0.00  0.00    -0.052 C 
ATOM     17  H9  PP2 d   1      21.477  12.005  -4.575  0.00  0.00     0.030 H 
ATOM     18  H10 PP2 d   1      19.816  11.727  -5.199  0.00  0.00     0.030 H 
ATOM     19  H11 PP2 d   1      21.136  12.183  -6.329  0.00  0.00     0.030 H 
ENDBRANCH  11  16
BRANCH  11  20
ATOM     20  C25 PP2 d   1      22.707  10.032  -5.912  0.00  0.00    -0.052 C 
ATOM     21  H12 PP2 d   1      23.271  10.457  -5.069  0.00  0.00     0.030 H 
ATOM     22  H13 PP2 d   1      22.950  10.585  -6.832  0.00  0.00     0.030 H 
ATOM     23  H14 PP2 d   1      22.978   8.973  -6.038  0.00  0.00     0.030 H 
ENDBRANCH  11  20
ENDBRANCH   9  11
BRANCH   7  24
ATOM     24  C11 PP2 d   1      20.271   7.944 -10.008  0.00  0.00    -0.004 A 
ATOM     25  C12 PP2 d   1      19.877   8.646 -11.144  0.00  0.00    -0.069 A 
ATOM     26  C13 PP2 d   1      20.065   8.093 -12.403  0.00  0.00    -0.061 A 
ATOM     27  H2  PP2 d   1      19.423   9.625 -11.045  0.00  0.00     0.085 H 
ATOM     28  C14 PP2 d   1      20.659   6.840 -12.525  0.00  0.00     0.034 A 
ATOM     29  H3  PP2 d   1      19.750   8.635 -13.288  0.00  0.00     0.086 H 
ATOM     30  C15 PP2 d   1      21.060   6.137 -11.387  0.00  0.00    -0.061 A 
ATOM     31 CL   PP2 d   1      20.901   6.140 -14.161  0.00  0.00    -0.084 Cl
ATOM     32  C16 PP2 d   1      20.871   6.695 -10.121  0.00  0.00    -0.069 A 
ATOM     33  H4  PP2 d   1      21.517   5.159 -11.486  0.00  0.00     0.086 H 
ATOM     34  H5  PP2 d   1      21.189   6.159  -9.234  0.00  0.00     0.085 H 
ENDBRANCH   7  24
BRANCH   5  35
ATOM     35  N25 PP2 d   1      17.130   8.056  -9.584  0.00  0.00    -0.383 N 
ATOM     36  H15 PP2 d   1      17.854   7.741 -10.246  0.00  0.00     0.157 HD
ATOM     37  H16 PP2 d   1      16.134   7.916  -9.805  0.00  0.00     0.157 HD
ENDBRANCH   5  35
TORSDOF 6
