REMARK  10 active torsions:
REMARK  status: ('A' for Active; 'I' for Inactive)
REMARK    1  A    between atoms: C3_3  and  C2_2 
REMARK       I    between atoms: N2_22  and  C3_3 
REMARK    2  A    between atoms: N6_4  and  C20_16 
REMARK    3  A    between atoms: C9_7  and  C10_8 
REMARK    4  A    between atoms: N_18  and  C11_9 
REMARK    5  A    between atoms: C13_11  and  N5_30 
REMARK    6  A    between atoms: C14_12  and  C15_13 
REMARK    7  A    between atoms: C20_16  and  C21_17 
REMARK    8  A    between atoms: C21_17  and  O1_33 
REMARK    9  A    between atoms: C_19  and  N_18 
REMARK   10  A    between atoms: N2_22  and  C4_23 
ROOT
ATOM      1  C11 1N1 d   1      17.468 -10.893  23.800  0.00  0.00     0.135 A 
ATOM      2  C12 1N1 d   1      16.970 -11.617  22.714  0.00  0.00     0.006 A 
ATOM      3  C13 1N1 d   1      17.855 -12.311  21.878  0.00  0.00     0.131 A 
ATOM      4  C14 1N1 d   1      19.660 -11.562  23.219  0.00  0.00     0.126 A 
ATOM      5  N3  1N1 d   1      19.186 -12.264  22.161  0.00  0.00    -0.216 NA
ATOM      6  N4  1N1 d   1      18.805 -10.890  24.020  0.00  0.00    -0.216 NA
ATOM      7  H8  1N1 d   1      15.904 -11.642  22.519  0.00  0.00     0.095 H 
ENDROOT
BRANCH   1   8
ATOM      8  N   1N1 d   1      16.612 -10.206  24.619  0.00  0.00    -0.320 N 
ATOM      9  H20 1N1 d   1      15.608 -10.247  24.392  0.00  0.00     0.169 HD
BRANCH   8  10
ATOM     10  C   1N1 d   1      16.981  -9.463  25.723  0.00  0.00     0.172 A 
ATOM     11  N1  1N1 d   1      16.117  -8.646  26.381  0.00  0.00    -0.235 NA
ATOM     12  C1  1N1 d   1      16.701  -8.016  27.459  0.00  0.00     0.027 A 
ATOM     13  C2  1N1 d   1      18.048  -8.348  27.659  0.00  0.00     0.094 A 
ATOM     14  H1  1N1 d   1      16.162  -7.320  28.100  0.00  0.00     0.117 H 
ATOM     15  S   1N1 d   1      18.550  -9.475  26.446  0.00  0.00    -0.045 SA
BRANCH  13  16
ATOM     16  C3  1N1 d   1      19.089  -7.933  28.656  0.00  0.00     0.264 C 
ATOM     17  N2  1N1 d   1      18.704  -7.217  29.713  0.00  0.00    -0.320 N 
ATOM     18  H21 1N1 d   1      17.769  -6.864  29.746  0.00  0.00     0.169 HD
ATOM     19  O   1N1 d   1      20.262  -8.248  28.489  0.00  0.00    -0.267 OA
BRANCH  17  20
ATOM     20  C4  1N1 d   1      19.547  -6.954  30.747  0.00  0.00     0.062 A 
ATOM     21  C9  1N1 d   1      19.792  -7.899  31.747  0.00  0.00    -0.034 A 
ATOM     22  C8  1N1 d   1      20.662  -7.580  32.792  0.00  0.00    -0.075 A 
ATOM     23  C7  1N1 d   1      21.283  -6.334  32.848  0.00  0.00    -0.081 A 
ATOM     24  H4  1N1 d   1      20.856  -8.311  33.569  0.00  0.00     0.084 H 
ATOM     25  C6  1N1 d   1      21.037  -5.395  31.847  0.00  0.00    -0.060 A 
ATOM     26  H3  1N1 d   1      21.954  -6.096  33.666  0.00  0.00     0.083 H 
ATOM     27  C5  1N1 d   1      20.169  -5.710  30.804  0.00  0.00     0.061 A 
ATOM     28  H22 1N1 d   1      21.519  -4.425  31.880  0.00  0.00     0.086 H 
ATOM     29 CL   1N1 d   1      19.859  -4.492  29.521  0.00  0.00    -0.082 Cl
BRANCH  21  30
ATOM     30  C10 1N1 d   1      19.141  -9.263  31.742  0.00  0.00    -0.049 C 
ATOM     31  H5  1N1 d   1      19.479  -9.834  32.620  0.00  0.00     0.033 H 
ATOM     32  H6  1N1 d   1      19.423  -9.800  30.825  0.00  0.00     0.033 H 
ATOM     33  H7  1N1 d   1      18.048  -9.148  31.778  0.00  0.00     0.033 H 
ENDBRANCH  21  30
ENDBRANCH  17  20
ENDBRANCH  13  16
ENDBRANCH   8  10
ENDBRANCH   1   8
BRANCH   3  34
ATOM     34  N5  1N1 d   1      17.401 -13.068  20.765  0.00  0.00    -0.362 N 
ATOM     35  C16 1N1 d   1      18.318 -13.966  20.069  0.00  0.00     0.019 C 
ATOM     36  C17 1N1 d   1      18.368 -13.626  18.584  0.00  0.00     0.098 C 
ATOM     37  H12 1N1 d   1      17.973 -15.003  20.192  0.00  0.00     0.066 H 
ATOM     38  H13 1N1 d   1      19.325 -13.861  20.499  0.00  0.00     0.066 H 
ATOM     39  N6  1N1 d   1      17.040 -13.453  17.991  0.00  0.00    -0.066 N 
ATOM     40  H23 1N1 d   1      18.933 -12.691  18.457  0.00  0.00     0.078 H 
ATOM     41  H24 1N1 d   1      18.884 -14.441  18.055  0.00  0.00     0.078 H 
ATOM     42  C18 1N1 d   1      15.878 -12.999  18.762  0.00  0.00     0.098 C 
ATOM     43  H2  1N1 d   1      16.815 -14.411  18.211  0.00  0.00     0.280 HD
ATOM     44  C19 1N1 d   1      16.021 -13.003  20.288  0.00  0.00     0.019 C 
ATOM     45  H25 1N1 d   1      15.031 -13.652  18.505  0.00  0.00     0.078 H 
ATOM     46  H26 1N1 d   1      15.653 -11.968  18.451  0.00  0.00     0.078 H 
ATOM     47  H14 1N1 d   1      15.565 -12.081  20.679  0.00  0.00     0.066 H 
ATOM     48  H15 1N1 d   1      15.479 -13.876  20.682  0.00  0.00     0.066 H 
BRANCH  39  49
ATOM     49  C20 1N1 d   1      16.872 -13.715  16.564  0.00  0.00     0.103 C 
ATOM     50  H16 1N1 d   1      17.699 -13.243  16.012  0.00  0.00     0.079 H 
ATOM     51  H17 1N1 d   1      15.916 -13.285  16.230  0.00  0.00     0.079 H 
BRANCH  49  52
ATOM     52  C21 1N1 d   1      16.872 -15.215  16.276  0.00  0.00     0.039 C 
ATOM     53  H18 1N1 d   1      17.780 -15.671  16.698  0.00  0.00     0.076 H 
ATOM     54  H19 1N1 d   1      16.849 -15.381  15.189  0.00  0.00     0.076 H 
BRANCH  52  55
ATOM     55  O1  1N1 d   1      15.714 -15.810  16.876  0.00  0.00    -0.399 OA
ATOM     56  H27 1N1 d   1      15.711 -16.743  16.699  0.00  0.00     0.209 HD
ENDBRANCH  52  55
ENDBRANCH  49  52
ENDBRANCH  39  49
ENDBRANCH   3  34
BRANCH   4  57
ATOM     57  C15 1N1 d   1      21.138 -11.518  23.512  0.00  0.00    -0.019 C 
ATOM     58  H9  1N1 d   1      21.678 -12.117  22.764  0.00  0.00     0.037 H 
ATOM     59  H10 1N1 d   1      21.325 -11.929  24.515  0.00  0.00     0.037 H 
ATOM     60  H11 1N1 d   1      21.489 -10.476  23.471  0.00  0.00     0.037 H 
ENDBRANCH   4  57
TORSDOF 10
