REMARK  3 active torsions:
REMARK  status: ('A' for Active; 'I' for Inactive)
REMARK    1  A    between atoms: C5_5  and  O9_6 
REMARK    2  A    between atoms: C6_7  and  O10_8 
REMARK    3  A    between atoms: C11_11  and  C18_14 
ROOT
ATOM      1  O15 KOM d   1     -12.934   2.622 -21.285  0.00  0.00    -0.260 OA
ATOM      2  C13 KOM d   1     -12.924   3.830 -21.557  0.00  0.00     0.289 A 
ATOM      3  O14 KOM d   1     -14.072   4.527 -21.310  0.00  0.00    -0.272 OA
ATOM      4  C4  KOM d   1     -14.160   5.866 -21.598  0.00  0.00     0.126 A 
ATOM      5  C5  KOM d   1     -15.407   6.616 -21.317  0.00  0.00     0.134 A 
ATOM      6  C6  KOM d   1     -15.437   8.057 -21.659  0.00  0.00     0.101 A 
ATOM      7  C1  KOM d   1     -14.305   8.668 -22.224  0.00  0.00    -0.047 A 
ATOM      8  C12 KOM d   1     -11.790   4.429 -22.109  0.00  0.00     0.002 A 
ATOM      9  C11 KOM d   1     -11.765   5.783 -22.451  0.00  0.00    -0.007 A 
ATOM     10  C3  KOM d   1     -12.998   6.590 -22.182  0.00  0.00     0.012 A 
ATOM     11  C2  KOM d   1     -13.125   7.955 -22.474  0.00  0.00    -0.067 A 
ATOM     12  H3  KOM d   1     -14.346   9.722 -22.474  0.00  0.00     0.087 H 
ATOM     13  H4  KOM d   1     -10.900   3.824 -22.277  0.00  0.00     0.094 H 
ATOM     14  H5  KOM d   1     -12.280   8.477 -22.909  0.00  0.00     0.085 H 
ENDROOT
BRANCH   9  15
ATOM     15  C18 KOM d   1     -10.499   6.359 -23.012  0.00  0.00    -0.025 A 
ATOM     16  C24 KOM d   1      -9.939   7.495 -22.398  0.00  0.00    -0.072 A 
ATOM     17  C23 KOM d   1      -8.746   8.062 -22.868  0.00  0.00    -0.082 A 
ATOM     18  H6  KOM d   1     -10.440   7.940 -21.546  0.00  0.00     0.084 H 
ATOM     19  C22 KOM d   1      -8.089   7.462 -23.948  0.00  0.00    -0.083 A 
ATOM     20  H7  KOM d   1      -8.339   8.952 -22.402  0.00  0.00     0.083 H 
ATOM     21  C21 KOM d   1      -8.632   6.312 -24.553  0.00  0.00    -0.082 A 
ATOM     22  H8  KOM d   1      -7.162   7.883 -24.319  0.00  0.00     0.083 H 
ATOM     23  C20 KOM d   1      -9.829   5.753 -24.084  0.00  0.00    -0.072 A 
ATOM     24  H9  KOM d   1      -8.119   5.854 -25.391  0.00  0.00     0.083 H 
ATOM     25  H10 KOM d   1     -10.233   4.860 -24.546  0.00  0.00     0.084 H 
ENDBRANCH   9  15
BRANCH   5  26
ATOM     26  O9  KOM d   1     -16.500   6.014 -20.764  0.00  0.00    -0.356 OA
ATOM     27  H1  KOM d   1     -17.195   6.654 -20.662  0.00  0.00     0.218 HD
ENDBRANCH   5  26
BRANCH   6  28
ATOM     28  O10 KOM d   1     -16.591   8.742 -21.416  0.00  0.00    -0.358 OA
ATOM     29  H2  KOM d   1     -16.481   9.649 -21.677  0.00  0.00     0.217 HD
ENDBRANCH   6  28
TORSDOF 3
