REMARK  9 active torsions:
REMARK  status: ('A' for Active; 'I' for Inactive)
REMARK    1  A    between atoms: CAR_9  and  CAL_10 
REMARK    2  A    between atoms: CAL_10  and  CAK_11 
REMARK    3  A    between atoms: CAK_11  and  CAQ_12 
REMARK       I    between atoms: CAQ_12  and  NAN_14 
REMARK    4  A    between atoms: NAN_14  and  CAM_15 
REMARK    5  A    between atoms: CAM_15  and  CAV_16 
REMARK    6  A    between atoms: CAU_18  and  CAA_19 
REMARK    7  A    between atoms: CAW_20  and  OAC_21 
REMARK    8  A    between atoms: CAY_22  and  OAE_23 
REMARK    9  A    between atoms: CAX_24  and  OAD_25 
ROOT
ATOM      1  CAM ZX5 d   1      -1.641  26.020  26.849  0.00  0.00     0.024 C 
ATOM      2  H   ZX5 d   1      -2.618  25.556  26.715  0.00  0.00     0.067 H 
ATOM      3  H   ZX5 d   1      -0.860  25.260  26.819  0.00  0.00     0.067 H 
ENDROOT
BRANCH   1   4
ATOM      4  NAN ZX5 d   1      -1.604  26.701  28.152  0.00  0.00    -0.359 N 
ATOM      5  CAQ ZX5 d   1      -1.693  26.031  29.298  0.00  0.00     0.217 C 
ATOM      6  OAB ZX5 d   1      -1.807  24.808  29.357  0.00  0.00    -0.274 OA
ATOM      7  H   ZX5 d   1      -1.507  27.716  28.178  0.00  0.00     0.162 HD
BRANCH   5   8
ATOM      8  CAK ZX5 d   1      -1.634  26.864  30.582  0.00  0.00     0.013 C 
ATOM      9  H   ZX5 d   1      -1.801  26.199  31.430  0.00  0.00     0.047 H 
ATOM     10  H   ZX5 d   1      -0.658  27.347  30.633  0.00  0.00     0.047 H 
BRANCH   8  11
ATOM     11  CAL ZX5 d   1      -2.710  27.951  30.604  0.00  0.00    -0.031 C 
ATOM     12  H   ZX5 d   1      -2.684  28.457  31.569  0.00  0.00     0.040 H 
ATOM     13  H   ZX5 d   1      -2.516  28.659  29.799  0.00  0.00     0.040 H 
BRANCH  11  14
ATOM     14  CAR ZX5 d   1      -4.094  27.335  30.402  0.00  0.00    -0.030 A 
ATOM     15  CAT ZX5 d   1      -4.831  27.317  29.223  0.00  0.00    -0.002 A 
ATOM     16  CAI ZX5 d   1      -4.606  27.818  27.945  0.00  0.00    -0.070 A 
ATOM     17  CAS ZX5 d   1      -5.994  26.610  29.499  0.00  0.00     0.042 A 
ATOM     18  CAG ZX5 d   1      -5.549  27.604  26.946  0.00  0.00    -0.082 A 
ATOM     19  H   ZX5 d   1      -3.695  28.376  27.728  0.00  0.00     0.084 H 
ATOM     20  CAF ZX5 d   1      -6.713  26.894  27.220  0.00  0.00    -0.081 A 
ATOM     21  H   ZX5 d   1      -5.375  27.994  25.943  0.00  0.00     0.083 H 
ATOM     22  CAH ZX5 d   1      -6.937  26.397  28.499  0.00  0.00    -0.056 A 
ATOM     23  H   ZX5 d   1      -7.449  26.727  26.433  0.00  0.00     0.083 H 
ATOM     24  H   ZX5 d   1      -7.849  25.842  28.718  0.00  0.00     0.086 H 
ATOM     25  NAP ZX5 d   1      -5.935  26.243  30.777  0.00  0.00    -0.365 N 
ATOM     26  CAJ ZX5 d   1      -4.799  26.678  31.319  0.00  0.00    -0.016 A 
ATOM     27  H   ZX5 d   1      -6.652  25.709  31.268  0.00  0.00     0.165 HD
ATOM     28  H   ZX5 d   1      -4.494  26.520  32.353  0.00  0.00     0.112 H 
ENDBRANCH  11  14
ENDBRANCH   8  11
ENDBRANCH   5   8
ENDBRANCH   1   4
BRANCH   1  29
ATOM     29  CAV ZX5 d   1      -1.404  27.030  25.723  0.00  0.00     0.144 C 
ATOM     30  NAO ZX5 d   1       0.030  27.341  25.613  0.00  0.00    -0.060 N 
ATOM     31  CAU ZX5 d   1       0.242  28.432  24.647  0.00  0.00     0.126 C 
ATOM     32  H   ZX5 d   1       0.528  26.510  25.293  0.00  0.00     0.278 HD
ATOM     33  H   ZX5 d   1       0.379  27.631  26.526  0.00  0.00     0.278 HD
ATOM     34  CAW ZX5 d   1      -0.269  28.051  23.253  0.00  0.00     0.089 C 
ATOM     35  H   ZX5 d   1      -0.325  29.306  24.969  0.00  0.00     0.087 H 
ATOM     36  CAY ZX5 d   1      -1.724  27.584  23.310  0.00  0.00     0.089 C 
ATOM     37  H   ZX5 d   1      -0.207  28.938  22.623  0.00  0.00     0.090 H 
ATOM     38  CAX ZX5 d   1      -1.876  26.489  24.371  0.00  0.00     0.091 C 
ATOM     39  H   ZX5 d   1      -2.370  28.422  23.572  0.00  0.00     0.091 H 
ATOM     40  H   ZX5 d   1      -1.270  25.627  24.093  0.00  0.00     0.090 H 
ATOM     41  H   ZX5 d   1      -1.975  27.925  25.971  0.00  0.00     0.091 H 
BRANCH  31  42
ATOM     42  CAA ZX5 d   1       1.731  28.774  24.603  0.00  0.00    -0.047 C 
ATOM     43  H   ZX5 d   1       2.059  29.090  25.593  0.00  0.00     0.030 H 
ATOM     44  H   ZX5 d   1       2.296  27.894  24.295  0.00  0.00     0.030 H 
ATOM     45  H   ZX5 d   1       1.896  29.581  23.890  0.00  0.00     0.030 H 
ENDBRANCH  31  42
BRANCH  34  46
ATOM     46  OAC ZX5 d   1       0.537  27.007  22.698  0.00  0.00    -0.391 OA
ATOM     47  H   ZX5 d   1       0.207  26.778  21.826  0.00  0.00     0.210 HD
ENDBRANCH  34  46
BRANCH  36  48
ATOM     48  OAE ZX5 d   1      -2.095  27.069  22.029  0.00  0.00    -0.390 OA
ATOM     49  H   ZX5 d   1      -1.525  26.330  21.805  0.00  0.00     0.210 HD
ENDBRANCH  36  48
BRANCH  38  50
ATOM     50  OAD ZX5 d   1      -3.243  26.079  24.459  0.00  0.00    -0.391 OA
ATOM     51  H   ZX5 d   1      -3.529  25.737  23.609  0.00  0.00     0.210 HD
ENDBRANCH  38  50
ENDBRANCH   1  29
TORSDOF 9
