REMARK  9 active torsions:
REMARK  status: ('A' for Active; 'I' for Inactive)
REMARK    1  A    between atoms: CAS_6  and  CAZ_7 
REMARK    2  A    between atoms: CAZ_7  and  CAX_8 
REMARK    3  A    between atoms: CAZ_7  and  CAR_13 
REMARK       I    between atoms: CAR_13  and  NAP_15 
REMARK    4  A    between atoms: NAP_15  and  CAO_16 
REMARK    5  A    between atoms: CAO_16  and  CAY_17 
REMARK    6  A    between atoms: CAT_19  and  CAA_20 
REMARK    7  A    between atoms: CAU_21  and  OAC_22 
REMARK    8  A    between atoms: CAV_23  and  OAD_24 
REMARK    9  A    between atoms: CAW_25  and  OAE_26 
ROOT
ATOM      1  CAR ZX9 d   1      -2.116  26.001  29.027  0.00  0.00     0.226 C 
ATOM      2  OAB ZX9 d   1      -1.834  24.844  29.340  0.00  0.00    -0.273 OA
ATOM      3  NAP ZX9 d   1      -1.820  26.585  27.873  0.00  0.00    -0.358 N 
ATOM      4  H   ZX9 d   1      -2.075  27.564  27.745  0.00  0.00     0.162 HD
ENDROOT
BRANCH   1   5
ATOM      5  CAZ ZX9 d   1      -2.827  26.935  30.004  0.00  0.00     0.052 C 
ATOM      6  H   ZX9 d   1      -2.719  28.002  29.811  0.00  0.00     0.062 H 
BRANCH   5   7
ATOM      7  CAS ZX9 d   1      -2.168  26.750  31.369  0.00  0.00    -0.045 A 
ATOM      8  CAI ZX9 d   1      -0.788  26.912  31.417  0.00  0.00    -0.076 A 
ATOM      9  CAG ZX9 d   1      -0.085  26.686  32.593  0.00  0.00    -0.082 A 
ATOM     10  H   ZX9 d   1      -0.251  27.220  30.520  0.00  0.00     0.084 H 
ATOM     11  CAF ZX9 d   1      -0.797  26.296  33.724  0.00  0.00    -0.083 A 
ATOM     12  H   ZX9 d   1       0.997  26.811  32.630  0.00  0.00     0.083 H 
ATOM     13  CAH ZX9 d   1      -2.179  26.137  33.682  0.00  0.00    -0.082 A 
ATOM     14  H   ZX9 d   1      -0.264  26.112  34.657  0.00  0.00     0.083 H 
ATOM     15  CAJ ZX9 d   1      -2.877  26.364  32.501  0.00  0.00    -0.076 A 
ATOM     16  H   ZX9 d   1      -2.717  25.833  34.580  0.00  0.00     0.083 H 
ATOM     17  H   ZX9 d   1      -3.959  26.242  32.463  0.00  0.00     0.084 H 
ENDBRANCH   5   7
BRANCH   5  18
ATOM     18  CAX ZX9 d   1      -4.336  26.721  29.856  0.00  0.00    -0.038 C 
ATOM     19  CAM ZX9 d   1      -5.281  27.916  29.955  0.00  0.00    -0.061 C 
ATOM     20  CAK ZX9 d   1      -6.546  27.164  29.533  0.00  0.00    -0.065 C 
ATOM     21  H   ZX9 d   1      -5.018  28.793  29.364  0.00  0.00     0.033 H 
ATOM     22  H   ZX9 d   1      -5.318  28.427  30.917  0.00  0.00     0.033 H 
ATOM     23  CAL ZX9 d   1      -6.507  25.909  30.413  0.00  0.00    -0.065 C 
ATOM     24  H   ZX9 d   1      -6.566  26.934  28.468  0.00  0.00     0.033 H 
ATOM     25  H   ZX9 d   1      -7.454  27.751  29.672  0.00  0.00     0.033 H 
ATOM     26  CAN ZX9 d   1      -5.023  25.656  30.713  0.00  0.00    -0.061 C 
ATOM     27  H   ZX9 d   1      -6.961  25.056  29.908  0.00  0.00     0.033 H 
ATOM     28  H   ZX9 d   1      -7.079  26.049  31.330  0.00  0.00     0.033 H 
ATOM     29  H   ZX9 d   1      -4.779  25.733  31.773  0.00  0.00     0.033 H 
ATOM     30  H   ZX9 d   1      -4.703  24.641  30.477  0.00  0.00     0.033 H 
ATOM     31  H   ZX9 d   1      -4.218  26.397  28.822  0.00  0.00     0.041 H 
ENDBRANCH   5  18
ENDBRANCH   1   5
BRANCH   3  32
ATOM     32  CAO ZX9 d   1      -1.145  25.890  26.774  0.00  0.00     0.024 C 
ATOM     33  H   ZX9 d   1      -1.688  24.993  26.477  0.00  0.00     0.067 H 
ATOM     34  H   ZX9 d   1      -0.153  25.549  27.069  0.00  0.00     0.067 H 
BRANCH  32  35
ATOM     35  CAY ZX9 d   1      -1.071  26.901  25.632  0.00  0.00     0.144 C 
ATOM     36  NAQ ZX9 d   1       0.331  27.305  25.445  0.00  0.00    -0.060 N 
ATOM     37  CAT ZX9 d   1       0.386  28.377  24.439  0.00  0.00     0.126 C 
ATOM     38  H   ZX9 d   1       0.881  26.506  25.129  0.00  0.00     0.278 HD
ATOM     39  H   ZX9 d   1       0.715  27.640  26.329  0.00  0.00     0.278 HD
ATOM     40  CAU ZX9 d   1      -0.185  27.899  23.099  0.00  0.00     0.089 C 
ATOM     41  H   ZX9 d   1      -0.228  29.212  24.775  0.00  0.00     0.087 H 
ATOM     42  CAV ZX9 d   1      -1.621  27.402  23.269  0.00  0.00     0.089 C 
ATOM     43  H   ZX9 d   1      -0.175  28.741  22.407  0.00  0.00     0.090 H 
ATOM     44  CAW ZX9 d   1      -1.628  26.306  24.334  0.00  0.00     0.091 C 
ATOM     45  H   ZX9 d   1      -2.265  28.230  23.567  0.00  0.00     0.091 H 
ATOM     46  H   ZX9 d   1      -1.010  25.461  24.031  0.00  0.00     0.090 H 
ATOM     47  H   ZX9 d   1      -1.678  27.770  25.886  0.00  0.00     0.091 H 
BRANCH  37  48
ATOM     48  CAA ZX9 d   1       1.829  28.857  24.283  0.00  0.00    -0.047 C 
ATOM     49  H   ZX9 d   1       2.190  29.237  25.239  0.00  0.00     0.030 H 
ATOM     50  H   ZX9 d   1       2.455  28.024  23.962  0.00  0.00     0.030 H 
ATOM     51  H   ZX9 d   1       1.868  29.651  23.537  0.00  0.00     0.030 H 
ENDBRANCH  37  48
BRANCH  40  52
ATOM     52  OAC ZX9 d   1       0.613  26.829  22.583  0.00  0.00    -0.391 OA
ATOM     53  H   ZX9 d   1       0.249  26.536  21.744  0.00  0.00     0.210 HD
ENDBRANCH  40  52
BRANCH  42  54
ATOM     54  OAD ZX9 d   1      -2.102  26.864  22.036  0.00  0.00    -0.390 OA
ATOM     55  H   ZX9 d   1      -1.543  26.131  21.768  0.00  0.00     0.210 HD
ENDBRANCH  42  54
BRANCH  44  56
ATOM     56  OAE ZX9 d   1      -2.967  25.835  24.518  0.00  0.00    -0.391 OA
ATOM     57  H   ZX9 d   1      -3.297  25.481  23.689  0.00  0.00     0.210 HD
ENDBRANCH  44  56
ENDBRANCH  32  35
ENDBRANCH   3  32
TORSDOF 9
