REMARK  7 active torsions:
REMARK  status: ('A' for Active; 'I' for Inactive)
REMARK    1  A    between atoms: CAA_1  and  CAJ_2 
REMARK       I    between atoms: CAJ_2  and  NAH_4 
REMARK    2  A    between atoms: NAH_4  and  CAG_5 
REMARK    3  A    between atoms: CAG_5  and  CAL_6 
REMARK    4  A    between atoms: CAK_8  and  CAB_9 
REMARK    5  A    between atoms: CAM_10  and  OAD_11 
REMARK    6  A    between atoms: CAO_12  and  OAF_13 
REMARK    7  A    between atoms: CAN_14  and  OAE_15 
ROOT
ATOM      1  CAL ZXA d   1      -1.368  27.089  25.847  0.00  0.00     0.144 C 
ATOM      2  NAI ZXA d   1       0.077  27.370  25.769  0.00  0.00    -0.060 N 
ATOM      3  CAK ZXA d   1       0.317  28.433  24.777  0.00  0.00     0.126 C 
ATOM      4  CAM ZXA d   1      -0.224  28.072  23.388  0.00  0.00     0.089 C 
ATOM      5  CAO ZXA d   1      -1.671  27.586  23.472  0.00  0.00     0.089 C 
ATOM      6  CAN ZXA d   1      -1.751  26.461  24.505  0.00  0.00     0.091 C 
ATOM      7  H   ZXA d   1      -1.952  27.995  26.012  0.00  0.00     0.091 H 
ATOM      8  H   ZXA d   1       0.574  26.524  25.488  0.00  0.00     0.278 HD
ATOM      9  H   ZXA d   1       0.414  27.674  26.682  0.00  0.00     0.278 HD
ATOM     10  H   ZXA d   1      -0.224  29.313  25.125  0.00  0.00     0.087 H 
ATOM     11  H   ZXA d   1      -0.185  28.978  22.783  0.00  0.00     0.090 H 
ATOM     12  H   ZXA d   1      -2.326  28.406  23.767  0.00  0.00     0.091 H 
ATOM     13  H   ZXA d   1      -1.085  25.625  24.290  0.00  0.00     0.090 H 
ENDROOT
BRANCH   1  14
ATOM     14  CAG ZXA d   1      -1.692  26.194  27.046  0.00  0.00     0.024 C 
ATOM     15  H   ZXA d   1      -2.685  25.760  26.932  0.00  0.00     0.067 H 
ATOM     16  H   ZXA d   1      -0.970  25.380  27.112  0.00  0.00     0.067 H 
BRANCH  14  17
ATOM     17  NAH ZXA d   1      -1.637  27.019  28.263  0.00  0.00    -0.359 N 
ATOM     18  CAJ ZXA d   1      -1.818  26.534  29.488  0.00  0.00     0.213 C 
ATOM     19  OAC ZXA d   1      -2.017  25.347  29.737  0.00  0.00    -0.274 OA
ATOM     20  H   ZXA d   1      -1.450  28.017  28.162  0.00  0.00     0.162 HD
BRANCH  18  21
ATOM     21  CAA ZXA d   1      -1.724  27.549  30.629  0.00  0.00    -0.003 C 
ATOM     22  H   ZXA d   1      -2.658  27.550  31.191  0.00  0.00     0.040 H 
ATOM     23  H   ZXA d   1      -0.901  27.276  31.290  0.00  0.00     0.040 H 
ATOM     24  H   ZXA d   1      -1.546  28.542  30.216  0.00  0.00     0.040 H 
ENDBRANCH  18  21
ENDBRANCH  14  17
ENDBRANCH   1  14
BRANCH   6  25
ATOM     25  OAE ZXA d   1      -3.088  25.960  24.509  0.00  0.00    -0.391 OA
ATOM     26  H   ZXA d   1      -3.306  25.625  23.636  0.00  0.00     0.210 HD
ENDBRANCH   6  25
BRANCH   3  27
ATOM     27  CAB ZXA d   1       1.810  28.751  24.680  0.00  0.00    -0.047 C 
ATOM     28  H   ZXA d   1       2.173  29.085  25.652  0.00  0.00     0.030 H 
ATOM     29  H   ZXA d   1       2.352  27.855  24.377  0.00  0.00     0.030 H 
ATOM     30  H   ZXA d   1       1.965  29.538  23.942  0.00  0.00     0.030 H 
ENDBRANCH   3  27
BRANCH   5  31
ATOM     31  OAF ZXA d   1      -2.078  27.095  22.197  0.00  0.00    -0.390 OA
ATOM     32  H   ZXA d   1      -1.508  26.367  21.939  0.00  0.00     0.210 HD
ENDBRANCH   5  31
BRANCH   4  33
ATOM     33  OAD ZXA d   1       0.576  27.063  22.767  0.00  0.00    -0.391 OA
ATOM     34  H   ZXA d   1       0.215  26.858  21.901  0.00  0.00     0.210 HD
ENDBRANCH   4  33
TORSDOF 7
