REMARK  5 active torsions:
REMARK  status: ('A' for Active; 'I' for Inactive)
REMARK    1  A    between atoms: CAL_6  and  CAJ_7 
REMARK    2  A    between atoms: CAJ_7  and  CAP_8 
REMARK    3  A    between atoms: CAM_11  and  OAA_12 
REMARK    4  A    between atoms: CAN_13  and  OAB_14 
REMARK    5  A    between atoms: CAO_15  and  OAC_16 
ROOT
ATOM      1  CAP ZXB d   1      -1.472  27.349  26.258  0.00  0.00     0.132 C 
ATOM      2  NAK ZXB d   1      -0.171  28.048  26.238  0.00  0.00    -0.066 N 
ATOM      3  CAI ZXB d   1       0.634  27.594  25.094  0.00  0.00     0.108 C 
ATOM      4  CAM ZXB d   1      -0.049  28.093  23.822  0.00  0.00     0.086 C 
ATOM      5  CAN ZXB d   1      -1.464  27.530  23.720  0.00  0.00     0.088 C 
ATOM      6  CAO ZXB d   1      -2.232  27.818  25.014  0.00  0.00     0.090 C 
ATOM      7  H   ZXB d   1      -1.396  26.262  26.261  0.00  0.00     0.088 H 
ATOM      8  H   ZXB d   1       0.331  27.842  27.102  0.00  0.00     0.277 HD
ATOM      9  H   ZXB d   1      -0.333  29.052  26.154  0.00  0.00     0.277 HD
ATOM     10  H   ZXB d   1       0.704  26.506  25.086  0.00  0.00     0.079 H 
ATOM     11  H   ZXB d   1       1.648  27.989  25.162  0.00  0.00     0.079 H 
ATOM     12  H   ZXB d   1      -0.057  29.183  23.847  0.00  0.00     0.089 H 
ATOM     13  H   ZXB d   1      -1.474  26.456  23.536  0.00  0.00     0.091 H 
ATOM     14  H   ZXB d   1      -3.192  27.304  24.957  0.00  0.00     0.090 H 
ENDROOT
BRANCH   1  15
ATOM     15  CAJ ZXB d   1      -2.182  27.859  27.522  0.00  0.00    -0.012 C 
ATOM     16  H   ZXB d   1      -1.705  27.360  28.365  0.00  0.00     0.043 H 
ATOM     17  H   ZXB d   1      -2.099  28.946  27.504  0.00  0.00     0.043 H 
BRANCH  15  18
ATOM     18  CAL ZXB d   1      -3.681  27.541  27.622  0.00  0.00    -0.056 A 
ATOM     19  CAG ZXB d   1      -4.266  27.486  28.887  0.00  0.00    -0.077 A 
ATOM     20  CAE ZXB d   1      -5.641  27.293  29.007  0.00  0.00    -0.082 A 
ATOM     21  H   ZXB d   1      -3.649  27.594  29.779  0.00  0.00     0.084 H 
ATOM     22  CAD ZXB d   1      -6.428  27.142  27.866  0.00  0.00    -0.083 A 
ATOM     23  H   ZXB d   1      -6.102  27.260  29.994  0.00  0.00     0.083 H 
ATOM     24  CAF ZXB d   1      -5.841  27.186  26.599  0.00  0.00    -0.082 A 
ATOM     25  H   ZXB d   1      -7.503  26.989  27.963  0.00  0.00     0.083 H 
ATOM     26  CAH ZXB d   1      -4.465  27.387  26.477  0.00  0.00    -0.077 A 
ATOM     27  H   ZXB d   1      -6.456  27.064  25.708  0.00  0.00     0.083 H 
ATOM     28  H   ZXB d   1      -4.004  27.424  25.490  0.00  0.00     0.084 H 
ENDBRANCH  15  18
ENDBRANCH   1  15
BRANCH   6  29
ATOM     29  OAC ZXB d   1      -2.325  29.247  25.140  0.00  0.00    -0.391 OA
ATOM     30  H   ZXB d   1      -2.792  29.604  24.381  0.00  0.00     0.210 HD
ENDBRANCH   6  29
BRANCH   5  31
ATOM     31  OAB ZXB d   1      -2.059  28.324  22.687  0.00  0.00    -0.390 OA
ATOM     32  H   ZXB d   1      -1.560  28.215  21.874  0.00  0.00     0.210 HD
ENDBRANCH   5  31
BRANCH   4  33
ATOM     33  OAA ZXB d   1       0.649  27.563  22.692  0.00  0.00    -0.391 OA
ATOM     34  H   ZXB d   1       1.561  27.861  22.712  0.00  0.00     0.210 HD
ENDBRANCH   4  33
TORSDOF 5
