REMARK  5 active torsions:
REMARK  status: ('A' for Active; 'I' for Inactive)
REMARK    1  A    between atoms: C8_1  and  C7_2 
REMARK    2  A    between atoms: C6_6  and  N9_9 
REMARK    3  A    between atoms: C2_7  and  C1_8 
REMARK    4  A    between atoms: N9_9  and  C10_10 
REMARK    5  A    between atoms: C13_16  and  C19_19 
ROOT
ATOM      1  C10 KSL d   1      22.375  37.068   7.875  0.00  0.00     0.156 A 
ATOM      2  C18 KSL d   1      23.512  37.641   8.645  0.00  0.00     0.102 A 
ATOM      3  C17 KSL d   1      23.605  38.680   9.641  0.00  0.00     0.008 A 
ATOM      4  N16 KSL d   1      24.894  38.724  10.037  0.00  0.00    -0.359 N 
ATOM      5  C15 KSL d   1      25.568  37.777   9.350  0.00  0.00     0.048 A 
ATOM      6  N14 KSL d   1      24.724  37.099   8.540  0.00  0.00    -0.301 N 
ATOM      7  C13 KSL d   1      24.936  36.071   7.676  0.00  0.00     0.068 A 
ATOM      8  C12 KSL d   1      23.880  35.554   6.926  0.00  0.00     0.032 A 
ATOM      9  N11 KSL d   1      22.636  36.018   7.082  0.00  0.00    -0.239 NA
ATOM     10  H11 KSL d   1      22.792  39.308  10.003  0.00  0.00     0.115 H 
ATOM     11  H12 KSL d   1      25.293  39.365  10.738  0.00  0.00     0.166 HD
ATOM     12  H13 KSL d   1      26.637  37.587   9.436  0.00  0.00     0.141 H 
ATOM     13  H14 KSL d   1      24.070  34.765   6.207  0.00  0.00     0.118 H 
ENDROOT
BRANCH   1  14
ATOM     14  N9  KSL d   1      21.082  37.543   8.046  0.00  0.00    -0.338 N 
ATOM     15  H10 KSL d   1      20.914  38.164   8.851  0.00  0.00     0.167 HD
BRANCH  14  16
ATOM     16  C6  KSL d   1      20.006  37.261   7.240  0.00  0.00     0.045 C 
ATOM     17  C7  KSL d   1      19.014  36.214   7.554  0.00  0.00    -0.035 C 
ATOM     18  C5  KSL d   1      17.986  35.945   6.654  0.00  0.00    -0.075 C 
ATOM     19  C4  KSL d   1      17.804  36.703   5.494  0.00  0.00    -0.082 C 
ATOM     20  H4  KSL d   1      17.308  35.125   6.859  0.00  0.00     0.084 H 
ATOM     21  C3  KSL d   1      18.766  37.642   5.112  0.00  0.00    -0.075 C 
ATOM     22  H5  KSL d   1      16.915  36.562   4.890  0.00  0.00     0.083 H 
ATOM     23  C2  KSL d   1      19.837  37.992   5.971  0.00  0.00    -0.035 C 
ATOM     24  H6  KSL d   1      18.691  38.112   4.138  0.00  0.00     0.084 H 
BRANCH  17  25
ATOM     25  C8  KSL d   1      19.186  35.339   8.797  0.00  0.00    -0.049 C 
ATOM     26  H1  KSL d   1      18.353  34.623   8.860  0.00  0.00     0.033 H 
ATOM     27  H2  KSL d   1      19.192  35.974   9.695  0.00  0.00     0.033 H 
ATOM     28  H3  KSL d   1      20.137  34.790   8.730  0.00  0.00     0.033 H 
ENDBRANCH  17  25
BRANCH  23  29
ATOM     29  C1  KSL d   1      20.812  39.092   5.644  0.00  0.00    -0.049 C 
ATOM     30  H7  KSL d   1      20.552  39.535   4.671  0.00  0.00     0.033 H 
ATOM     31  H8  KSL d   1      21.830  38.678   5.598  0.00  0.00     0.033 H 
ATOM     32  H9  KSL d   1      20.766  39.866   6.424  0.00  0.00     0.033 H 
ENDBRANCH  23  29
ENDBRANCH  14  16
ENDBRANCH   1  14
BRANCH   7  33
ATOM     33  C19 KSL d   1      26.285  35.440   7.531  0.00  0.00    -0.007 A 
ATOM     34  C24 KSL d   1      27.214  35.533   8.544  0.00  0.00    -0.071 A 
ATOM     35  C23 KSL d   1      28.435  34.869   8.443  0.00  0.00    -0.082 A 
ATOM     36  H15 KSL d   1      26.994  36.126   9.424  0.00  0.00     0.084 H 
ATOM     37  C22 KSL d   1      28.765  34.209   7.250  0.00  0.00    -0.083 A 
ATOM     38  H16 KSL d   1      29.124  34.863   9.280  0.00  0.00     0.083 H 
ATOM     39  C21 KSL d   1      27.845  34.112   6.243  0.00  0.00    -0.082 A 
ATOM     40  H17 KSL d   1      29.751  33.775   7.126  0.00  0.00     0.083 H 
ATOM     41  C20 KSL d   1      26.586  34.701   6.396  0.00  0.00    -0.071 A 
ATOM     42  H18 KSL d   1      28.090  33.581   5.330  0.00  0.00     0.083 H 
ATOM     43  H19 KSL d   1      25.838  34.579   5.621  0.00  0.00     0.084 H 
ENDBRANCH   7  33
TORSDOF 5
