REMARK  28 active torsions:
REMARK  status: ('A' for Active; 'I' for Inactive)
REMARK    1  A    between atoms: C21_2  and  O21_3 
REMARK    2  A    between atoms: C31_4  and  O31_5 
REMARK    3  A    between atoms: C51_8  and  C61_10 
REMARK    4  A    between atoms: C61_10  and  O61_11 
REMARK    5  A    between atoms: C22_13  and  O22_14 
REMARK    6  A    between atoms: C32_15  and  O32_16 
REMARK    7  A    between atoms: C52_19  and  C62_21 
REMARK    8  A    between atoms: C62_21  and  O62_22 
REMARK    9  A    between atoms: C23_24  and  O23_25 
REMARK   10  A    between atoms: C33_26  and  O33_27 
REMARK   11  A    between atoms: C53_30  and  C63_32 
REMARK   12  A    between atoms: C63_32  and  O63_33 
REMARK   13  A    between atoms: C24_35  and  O24_36 
REMARK   14  A    between atoms: C34_37  and  O34_38 
REMARK   15  A    between atoms: C54_41  and  C64_43 
REMARK   16  A    between atoms: C64_43  and  O64_44 
REMARK   17  A    between atoms: C25_46  and  O25_47 
REMARK   18  A    between atoms: C35_48  and  O35_49 
REMARK   19  A    between atoms: C55_52  and  C65_54 
REMARK   20  A    between atoms: C65_54  and  O65_55 
REMARK   21  A    between atoms: C26_57  and  O26_58 
REMARK   22  A    between atoms: C36_59  and  O36_60 
REMARK   23  A    between atoms: C56_63  and  C66_65 
REMARK   24  A    between atoms: C66_65  and  O66_66 
REMARK   25  A    between atoms: C27_68  and  O27_69 
REMARK   26  A    between atoms: C37_70  and  O37_71 
REMARK   27  A    between atoms: C57_74  and  C67_76 
REMARK   28  A    between atoms: C67_76  and  O67_77 
ROOT
ATOM      1  C11 BCD d   1     -20.846   7.299 -31.300  0.00  0.00     0.159 C 
ATOM      2  C21 BCD d   1     -22.332   7.452 -30.993  0.00  0.00     0.110 C 
ATOM      3  C31 BCD d   1     -22.770   6.459 -29.936  0.00  0.00     0.092 C 
ATOM      4  C41 BCD d   1     -22.433   5.005 -30.339  0.00  0.00     0.096 C 
ATOM      5  O41 BCD d   1     -22.804   4.160 -29.279  0.00  0.00    -0.348 OA
ATOM      6  C51 BCD d   1     -20.927   4.853 -30.646  0.00  0.00     0.089 C 
ATOM      7  O51 BCD d   1     -20.393   5.917 -31.511  0.00  0.00    -0.348 OA
ATOM      8  C12 BCD d   1     -23.951   3.339 -29.581  0.00  0.00     0.159 C 
ATOM      9  C22 BCD d   1     -24.851   3.170 -28.375  0.00  0.00     0.110 C 
ATOM     10  C32 BCD d   1     -24.151   2.398 -27.240  0.00  0.00     0.092 C 
ATOM     11  C42 BCD d   1     -23.537   1.044 -27.683  0.00  0.00     0.096 C 
ATOM     12  O42 BCD d   1     -22.583   0.724 -26.677  0.00  0.00    -0.348 OA
ATOM     13  C52 BCD d   1     -22.797   1.167 -29.097  0.00  0.00     0.089 C 
ATOM     14  O52 BCD d   1     -23.419   2.105 -30.056  0.00  0.00    -0.348 OA
ATOM     15  C13 BCD d   1     -22.366  -0.727 -26.474  0.00  0.00     0.159 C 
ATOM     16  C23 BCD d   1     -22.244  -1.010 -24.971  0.00  0.00     0.110 C 
ATOM     17  C33 BCD d   1     -21.065  -0.232 -24.426  0.00  0.00     0.092 C 
ATOM     18  C43 BCD d   1     -19.734  -0.567 -25.177  0.00  0.00     0.096 C 
ATOM     19  O43 BCD d   1     -18.705   0.270 -24.679  0.00  0.00    -0.348 OA
ATOM     20  C53 BCD d   1     -19.919  -0.394 -26.715  0.00  0.00     0.089 C 
ATOM     21  O53 BCD d   1     -21.148  -1.047 -27.142  0.00  0.00    -0.348 OA
ATOM     22  C14 BCD d   1     -17.459  -0.360 -24.426  0.00  0.00     0.159 C 
ATOM     23  C24 BCD d   1     -17.102   0.007 -22.968  0.00  0.00     0.110 C 
ATOM     24  C34 BCD d   1     -16.499   1.463 -22.827  0.00  0.00     0.092 C 
ATOM     25  C44 BCD d   1     -15.539   1.856 -23.972  0.00  0.00     0.096 C 
ATOM     26  O44 BCD d   1     -15.236   3.248 -23.895  0.00  0.00    -0.348 OA
ATOM     27  C54 BCD d   1     -16.159   1.553 -25.355  0.00  0.00     0.089 C 
ATOM     28  O54 BCD d   1     -16.540   0.167 -25.457  0.00  0.00    -0.348 OA
ATOM     29  C15 BCD d   1     -13.900   3.602 -23.539  0.00  0.00     0.159 C 
ATOM     30  C25 BCD d   1     -13.966   4.638 -22.428  0.00  0.00     0.110 C 
ATOM     31  C35 BCD d   1     -14.663   5.911 -22.919  0.00  0.00     0.092 C 
ATOM     32  C45 BCD d   1     -14.021   6.463 -24.238  0.00  0.00     0.096 C 
ATOM     33  O45 BCD d   1     -14.894   7.434 -24.750  0.00  0.00    -0.348 OA
ATOM     34  C55 BCD d   1     -13.878   5.345 -25.291  0.00  0.00     0.089 C 
ATOM     35  O55 BCD d   1     -13.274   4.156 -24.710  0.00  0.00    -0.348 OA
ATOM     36  C16 BCD d   1     -14.379   8.785 -24.641  0.00  0.00     0.159 C 
ATOM     37  C26 BCD d   1     -15.543   9.693 -24.331  0.00  0.00     0.110 C 
ATOM     38  C36 BCD d   1     -16.545   9.704 -25.482  0.00  0.00     0.092 C 
ATOM     39  C46 BCD d   1     -15.898  10.018 -26.879  0.00  0.00     0.096 C 
ATOM     40  O46 BCD d   1     -16.891   9.607 -27.820  0.00  0.00    -0.348 OA
ATOM     41  C56 BCD d   1     -14.626   9.142 -27.080  0.00  0.00     0.089 C 
ATOM     42  O56 BCD d   1     -13.773   9.132 -25.905  0.00  0.00    -0.348 OA
ATOM     43  C17 BCD d   1     -17.013  10.350 -29.077  0.00  0.00     0.159 C 
ATOM     44  C27 BCD d   1     -18.439  10.892 -29.116  0.00  0.00     0.110 C 
ATOM     45  C37 BCD d   1     -19.446   9.716 -29.100  0.00  0.00     0.092 C 
ATOM     46  C47 BCD d   1     -19.191   8.754 -30.269  0.00  0.00     0.096 C 
ATOM     47  O47 BCD d   1     -20.124   7.695 -30.132  0.00  0.00    -0.348 OA
ATOM     48  C57 BCD d   1     -17.701   8.279 -30.210  0.00  0.00     0.089 C 
ATOM     49  O57 BCD d   1     -16.751   9.397 -30.137  0.00  0.00    -0.348 OA
ATOM     50  H1  BCD d   1     -20.588   7.920 -32.170  0.00  0.00     0.133 H 
ATOM     51  H2  BCD d   1     -22.898   7.264 -31.917  0.00  0.00     0.094 H 
ATOM     52  H4  BCD d   1     -22.221   6.691 -29.011  0.00  0.00     0.091 H 
ATOM     53  H6  BCD d   1     -23.007   4.736 -31.238  0.00  0.00     0.091 H 
ATOM     54  H7  BCD d   1     -20.392   4.892 -29.686  0.00  0.00     0.090 H 
ATOM     55  H11 BCD d   1     -24.540   3.811 -30.381  0.00  0.00     0.133 H 
ATOM     56  H12 BCD d   1     -25.715   2.573 -28.701  0.00  0.00     0.094 H 
ATOM     57  H14 BCD d   1     -23.329   3.027 -26.869  0.00  0.00     0.091 H 
ATOM     58  H16 BCD d   1     -24.317   0.271 -27.742  0.00  0.00     0.091 H 
ATOM     59  H17 BCD d   1     -21.782   1.533 -28.880  0.00  0.00     0.090 H 
ATOM     60  H21 BCD d   1     -23.199  -1.307 -26.897  0.00  0.00     0.133 H 
ATOM     61  H22 BCD d   1     -22.048  -2.084 -24.835  0.00  0.00     0.094 H 
ATOM     62  H24 BCD d   1     -21.278   0.836 -24.581  0.00  0.00     0.091 H 
ATOM     63  H26 BCD d   1     -19.465  -1.614 -24.976  0.00  0.00     0.091 H 
ATOM     64  H27 BCD d   1     -19.981   0.683 -26.932  0.00  0.00     0.090 H 
ATOM     65  H31 BCD d   1     -17.531  -1.453 -24.522  0.00  0.00     0.133 H 
ATOM     66  H32 BCD d   1     -16.338  -0.707 -22.628  0.00  0.00     0.094 H 
ATOM     67  H34 BCD d   1     -17.334   2.178 -22.798  0.00  0.00     0.091 H 
ATOM     68  H36 BCD d   1     -14.609   1.278 -23.865  0.00  0.00     0.091 H 
ATOM     69  H37 BCD d   1     -17.062   2.171 -25.460  0.00  0.00     0.090 H 
ATOM     70  H41 BCD d   1     -13.344   2.717 -23.195  0.00  0.00     0.133 H 
ATOM     71  H42 BCD d   1     -12.934   4.901 -22.153  0.00  0.00     0.094 H 
ATOM     72  H44 BCD d   1     -15.695   5.619 -23.165  0.00  0.00     0.091 H 
ATOM     73  H46 BCD d   1     -13.036   6.902 -24.023  0.00  0.00     0.091 H 
ATOM     74  H47 BCD d   1     -14.888   5.091 -25.644  0.00  0.00     0.090 H 
ATOM     75  H51 BCD d   1     -13.630   8.849 -23.838  0.00  0.00     0.133 H 
ATOM     76  H52 BCD d   1     -15.145  10.713 -24.221  0.00  0.00     0.094 H 
ATOM     77  H54 BCD d   1     -16.936   8.678 -25.544  0.00  0.00     0.091 H 
ATOM     78  H56 BCD d   1     -15.654  11.086 -26.982  0.00  0.00     0.091 H 
ATOM     79  H57 BCD d   1     -14.979   8.116 -27.260  0.00  0.00     0.090 H 
ATOM     80  H61 BCD d   1     -16.291  11.179 -29.126  0.00  0.00     0.133 H 
ATOM     81  H62 BCD d   1     -18.579  11.446 -30.056  0.00  0.00     0.094 H 
ATOM     82  H64 BCD d   1     -19.297   9.163 -28.161  0.00  0.00     0.091 H 
ATOM     83  H66 BCD d   1     -19.363   9.267 -31.227  0.00  0.00     0.091 H 
ATOM     84  H67 BCD d   1     -17.591   7.702 -29.280  0.00  0.00     0.090 H 
ENDROOT
BRANCH   6  85
ATOM     85  C61 BCD d   1     -20.618   3.521 -31.316  0.00  0.00     0.043 C 
ATOM     86  H8  BCD d   1     -20.300   3.680 -32.357  0.00  0.00     0.078 H 
ATOM     87  H9  BCD d   1     -21.503   2.868 -31.298  0.00  0.00     0.078 H 
BRANCH  85  88
ATOM     88  O61 BCD d   1     -19.574   2.951 -30.567  0.00  0.00    -0.398 OA
ATOM     89  H10 BCD d   1     -19.338   2.111 -30.943  0.00  0.00     0.209 HD
ENDBRANCH  85  88
ENDBRANCH   6  85
BRANCH   3  90
ATOM     90  O31 BCD d   1     -24.163   6.575 -29.664  0.00  0.00    -0.390 OA
ATOM     91  H5  BCD d   1     -24.409   5.942 -29.000  0.00  0.00     0.210 HD
ENDBRANCH   3  90
BRANCH   2  92
ATOM     92  O21 BCD d   1     -22.634   8.761 -30.526  0.00  0.00    -0.388 OA
ATOM     93  H3  BCD d   1     -22.142   8.934 -29.732  0.00  0.00     0.210 HD
ENDBRANCH   2  92
BRANCH   9  94
ATOM     94  O22 BCD d   1     -25.358   4.417 -27.866  0.00  0.00    -0.388 OA
ATOM     95  H13 BCD d   1     -25.863   4.852 -28.543  0.00  0.00     0.210 HD
ENDBRANCH   9  94
BRANCH  10  96
ATOM     96  O32 BCD d   1     -25.075   2.187 -26.170  0.00  0.00    -0.390 OA
ATOM     97  H15 BCD d   1     -25.378   3.026 -25.844  0.00  0.00     0.210 HD
ENDBRANCH  10  96
BRANCH  13  98
ATOM     98  C62 BCD d   1     -22.671  -0.163 -29.853  0.00  0.00     0.043 C 
ATOM     99  H18 BCD d   1     -22.021  -0.848 -29.289  0.00  0.00     0.078 H 
ATOM    100  H19 BCD d   1     -22.238   0.018 -30.848  0.00  0.00     0.078 H 
BRANCH  98 101
ATOM    101  O62 BCD d   1     -23.960  -0.738 -29.993  0.00  0.00    -0.398 OA
ATOM    102  H20 BCD d   1     -23.889  -1.562 -30.460  0.00  0.00     0.209 HD
ENDBRANCH  98 101
ENDBRANCH  13  98
BRANCH  45 103
ATOM    103  O37 BCD d   1     -20.798  10.155 -29.140  0.00  0.00    -0.390 OA
ATOM    104  H65 BCD d   1     -21.375   9.401 -29.128  0.00  0.00     0.210 HD
ENDBRANCH  45 103
BRANCH  48 105
ATOM    105  C67 BCD d   1     -17.332   7.325 -31.388  0.00  0.00     0.043 C 
ATOM    106  H68 BCD d   1     -18.114   6.559 -31.493  0.00  0.00     0.078 H 
ATOM    107  H69 BCD d   1     -16.369   6.839 -31.172  0.00  0.00     0.078 H 
BRANCH 105 108
ATOM    108  O67 BCD d   1     -17.224   8.068 -32.625  0.00  0.00    -0.398 OA
ATOM    109  H70 BCD d   1     -16.547   8.729 -32.538  0.00  0.00     0.209 HD
ENDBRANCH 105 108
ENDBRANCH  48 105
BRANCH  44 110
ATOM    110  O27 BCD d   1     -18.631  11.789 -28.051  0.00  0.00    -0.388 OA
ATOM    111  H63 BCD d   1     -18.487  11.337 -27.228  0.00  0.00     0.210 HD
ENDBRANCH  44 110
BRANCH  16 112
ATOM    112  O23 BCD d   1     -23.429  -0.695 -24.272  0.00  0.00    -0.388 OA
ATOM    113  H23 BCD d   1     -24.145  -1.217 -24.614  0.00  0.00     0.210 HD
ENDBRANCH  16 112
BRANCH  17 114
ATOM    114  O33 BCD d   1     -20.890  -0.446 -23.020  0.00  0.00    -0.390 OA
ATOM    115  H25 BCD d   1     -20.144   0.056 -22.715  0.00  0.00     0.210 HD
ENDBRANCH  17 114
BRANCH  20 116
ATOM    116  C63 BCD d   1     -18.787  -0.996 -27.547  0.00  0.00     0.043 C 
ATOM    117  H28 BCD d   1     -18.704  -2.071 -27.327  0.00  0.00     0.078 H 
ATOM    118  H29 BCD d   1     -17.841  -0.496 -27.292  0.00  0.00     0.078 H 
BRANCH 116 119
ATOM    119  O63 BCD d   1     -19.054  -0.819 -28.919  0.00  0.00    -0.398 OA
ATOM    120  H30 BCD d   1     -19.870  -1.252 -29.140  0.00  0.00     0.209 HD
ENDBRANCH 116 119
ENDBRANCH  20 116
BRANCH  38 121
ATOM    121  O36 BCD d   1     -17.650  10.533 -25.273  0.00  0.00    -0.390 OA
ATOM    122  H55 BCD d   1     -17.355  11.428 -25.152  0.00  0.00     0.210 HD
ENDBRANCH  38 121
BRANCH  41 123
ATOM    123  C66 BCD d   1     -13.723   9.537 -28.259  0.00  0.00     0.043 C 
ATOM    124  H58 BCD d   1     -14.268   9.410 -29.206  0.00  0.00     0.078 H 
ATOM    125  H59 BCD d   1     -12.821   8.907 -28.267  0.00  0.00     0.078 H 
BRANCH 123 126
ATOM    126  O66 BCD d   1     -13.352  10.925 -28.087  0.00  0.00    -0.398 OA
ATOM    127  H60 BCD d   1     -12.886  11.028 -27.266  0.00  0.00     0.209 HD
ENDBRANCH 123 126
ENDBRANCH  41 123
BRANCH  37 128
ATOM    128  O26 BCD d   1     -16.193   9.350 -23.104  0.00  0.00    -0.388 OA
ATOM    129  H53 BCD d   1     -16.522   8.460 -23.159  0.00  0.00     0.210 HD
ENDBRANCH  37 128
BRANCH  23 130
ATOM    130  O24 BCD d   1     -18.246  -0.116 -22.104  0.00  0.00    -0.388 OA
ATOM    131  H33 BCD d   1     -18.933   0.468 -22.404  0.00  0.00     0.210 HD
ENDBRANCH  23 130
BRANCH  24 132
ATOM    132  O34 BCD d   1     -15.739   1.565 -21.634  0.00  0.00    -0.390 OA
ATOM    133  H35 BCD d   1     -15.383   2.443 -21.561  0.00  0.00     0.210 HD
ENDBRANCH  24 132
BRANCH  27 134
ATOM    134  C64 BCD d   1     -15.208   1.893 -26.512  0.00  0.00     0.043 C 
ATOM    135  H38 BCD d   1     -14.473   1.085 -26.638  0.00  0.00     0.078 H 
ATOM    136  H39 BCD d   1     -14.683   2.835 -26.296  0.00  0.00     0.078 H 
BRANCH 134 137
ATOM    137  O64 BCD d   1     -15.966   2.031 -27.687  0.00  0.00    -0.398 OA
ATOM    138  H40 BCD d   1     -16.419   1.216 -27.868  0.00  0.00     0.209 HD
ENDBRANCH 134 137
ENDBRANCH  27 134
BRANCH  31 139
ATOM    139  O35 BCD d   1     -14.757   6.923 -21.959  0.00  0.00    -0.390 OA
ATOM    140  H45 BCD d   1     -13.885   7.174 -21.678  0.00  0.00     0.210 HD
ENDBRANCH  31 139
BRANCH  34 141
ATOM    141  C65 BCD d   1     -13.045   5.743 -26.489  0.00  0.00     0.043 C 
ATOM    142  H48 BCD d   1     -11.979   5.722 -26.216  0.00  0.00     0.078 H 
ATOM    143  H49 BCD d   1     -13.323   6.759 -26.806  0.00  0.00     0.078 H 
BRANCH 141 144
ATOM    144  O65 BCD d   1     -13.275   4.842 -27.550  0.00  0.00    -0.398 OA
ATOM    145  H50 BCD d   1     -14.195   4.861 -27.786  0.00  0.00     0.209 HD
ENDBRANCH 141 144
ENDBRANCH  34 141
BRANCH  30 146
ATOM    146  O25 BCD d   1     -14.606   4.132 -21.269  0.00  0.00    -0.388 OA
ATOM    147  H43 BCD d   1     -14.627   4.806 -20.600  0.00  0.00     0.210 HD
ENDBRANCH  30 146
TORSDOF 28
