REMARK  6 active torsions:
REMARK  status: ('A' for Active; 'I' for Inactive)
REMARK    1  A    between atoms: P_2  and  O5'_5 
REMARK    2  A    between atoms: O5'_5  and  C5'_6 
REMARK    3  A    between atoms: C5'_6  and  C4'_7 
REMARK    4  A    between atoms: C3'_8  and  O3'_9 
REMARK    5  A    between atoms: C2'_10  and  O2'_11 
REMARK    6  A    between atoms: C1'_13  and  N1_14 
ROOT
ATOM      1  C4' 6AZ d   1      24.414 -18.277  12.219  0.00  0.00     0.089 C 
ATOM      2  C3' 6AZ d   1      23.725 -17.331  13.167  0.00  0.00     0.091 C 
ATOM      3  C2' 6AZ d   1      24.835 -16.969  14.171  0.00  0.00     0.105 C 
ATOM      4  O4' 6AZ d   1      25.373 -18.965  13.084  0.00  0.00    -0.353 OA
ATOM      5  C1' 6AZ d   1      25.521 -18.267  14.363  0.00  0.00     0.141 C 
ATOM      6  H3  6AZ d   1      23.674 -18.989  11.825  0.00  0.00     0.090 H 
ATOM      7  H4  6AZ d   1      23.360 -16.435  12.643  0.00  0.00     0.091 H 
ATOM      8  H6  6AZ d   1      25.524 -16.230  13.736  0.00  0.00     0.093 H 
ATOM      9  H8  6AZ d   1      24.980 -18.808  15.153  0.00  0.00     0.123 H 
ENDROOT
BRANCH   5  10
ATOM     10  N1  6AZ d   1      26.982 -18.314  14.721  0.00  0.00    -0.280 N 
ATOM     11  C6  6AZ d   1      27.447 -18.991  15.916  0.00  0.00    -0.008 A 
ATOM     12  C5  6AZ d   1      28.777 -19.208  16.081  0.00  0.00    -0.002 A 
ATOM     13  H9  6AZ d   1      26.737 -19.322  16.673  0.00  0.00     0.112 H 
ATOM     14  C4  6AZ d   1      29.721 -18.806  15.109  0.00  0.00     0.250 A 
ATOM     15  H10 6AZ d   1      29.125 -19.704  16.985  0.00  0.00     0.094 H 
ATOM     16  O4  6AZ d   1      30.928 -19.011  15.124  0.00  0.00    -0.268 OA
ATOM     17  N3  6AZ d   1      29.205 -18.102  13.994  0.00  0.00    -0.275 N 
ATOM     18  C2  6AZ d   1      27.906 -17.816  13.755  0.00  0.00     0.331 A 
ATOM     19  H11 6AZ d   1      29.868 -17.785  13.316  0.00  0.00     0.173 HD
ATOM     20  O2  6AZ d   1      27.532 -17.207  12.800  0.00  0.00    -0.246 OA
ENDBRANCH   5  10
BRANCH   3  21
ATOM     21  O2' 6AZ d   1      24.321 -16.452  15.355  0.00  0.00    -0.388 OA
ATOM     22  H7  6AZ d   1      25.036 -16.243  15.944  0.00  0.00     0.210 HD
ENDBRANCH   3  21
BRANCH   2  23
ATOM     23  O3' 6AZ d   1      22.635 -17.988  13.809  0.00  0.00    -0.390 OA
ATOM     24  H5  6AZ d   1      22.013 -18.281  13.153  0.00  0.00     0.210 HD
ENDBRANCH   2  23
BRANCH   1  25
ATOM     25  C5' 6AZ d   1      25.137 -17.654  11.023  0.00  0.00     0.059 C 
ATOM     26  H1  6AZ d   1      25.770 -16.815  11.347  0.00  0.00     0.079 H 
ATOM     27  H2  6AZ d   1      25.757 -18.404  10.510  0.00  0.00     0.079 H 
BRANCH  25  28
ATOM     28  O5' 6AZ d   1      24.084 -17.192  10.162  0.00  0.00    -0.280 OA
BRANCH  28  29
ATOM     29  P   6AZ d   1      24.409 -16.297   8.898  0.00  0.00     0.422 P 
ATOM     30  O3P 6AZ d   1      24.527 -17.212   7.698  0.00  0.00    -0.617 OA
ATOM     31  O1P 6AZ d   1      25.712 -15.508   9.122  0.00  0.00    -0.617 OA
ATOM     32  O2P 6AZ d   1      23.240 -15.320   8.753  0.00  0.00    -0.617 OA
ENDBRANCH  28  29
ENDBRANCH  25  28
ENDBRANCH   1  25
TORSDOF 6
