REMARK  20 active torsions:
REMARK  status: ('A' for Active; 'I' for Inactive)
REMARK       I    between atoms: C14_1  and  N5_3 
REMARK    1  A    between atoms: C5_24  and  C14_1 
REMARK    2  A    between atoms: N5_3  and  C15_4 
REMARK    3  A    between atoms: C15_4  and  C18_5 
REMARK    4  A    between atoms: C15_4  and  C20_7 
REMARK    5  A    between atoms: C18_5  and  C19_6 
REMARK    6  A    between atoms: C19_6  and  C2_19 
REMARK       I    between atoms: C20_7  and  N6_9 
REMARK    7  A    between atoms: N6_9  and  C21_10 
REMARK    8  A    between atoms: C21_10  and  C25_16 
REMARK    9  A    between atoms: C22_13  and  C26_17 
REMARK   10  A    between atoms: C26_17  and  N1_18 
REMARK       I    between atoms: C2_19  and  N3_21 
REMARK   11  A    between atoms: C1_22  and  C5_24 
REMARK   12  A    between atoms: C28_39  and  C1_22 
REMARK   13  A    between atoms: C5_24  and  N4_23 
REMARK   14  A    between atoms: N4_23  and  S1_25 
REMARK   15  A    between atoms: S1_25  and  C9_28 
REMARK   16  A    between atoms: C9_28  and  C8_29 
REMARK   17  A    between atoms: O6_40  and  C6_36 
REMARK   18  A    between atoms: C7_41  and  O6_40 
REMARK   19  A    between atoms: C32_45  and  C7_41 
REMARK   20  A    between atoms: C33_47  and  C34_48 
ROOT
ATOM      1  C5  359 d   1      36.804   6.110  10.799  0.00  0.00     0.100 C 
ATOM      2  H21 359 d   1      37.346   5.686   9.940  0.00  0.00     0.088 H 
ENDROOT
BRANCH   1   3
ATOM      3  C14 359 d   1      35.607   6.967  10.274  0.00  0.00     0.242 C 
ATOM      4  O1  359 d   1      34.673   7.232  11.026  0.00  0.00    -0.271 OA
ATOM      5  N5  359 d   1      35.666   7.377   8.970  0.00  0.00    -0.346 N 
ATOM      6  H1  359 d   1      36.446   7.147   8.387  0.00  0.00     0.163 HD
BRANCH   5   7
ATOM      7  C15 359 d   1      34.545   8.163   8.464  0.00  0.00     0.090 C 
ATOM      8  H2  359 d   1      34.532   9.116   9.014  0.00  0.00     0.087 H 
BRANCH   7   9
ATOM      9  C18 359 d   1      34.634   8.500   6.982  0.00  0.00    -0.030 C 
ATOM     10  H3  359 d   1      33.776   9.133   6.714  0.00  0.00     0.037 H 
ATOM     11  H4  359 d   1      34.592   7.564   6.406  0.00  0.00     0.037 H 
BRANCH   9  12
ATOM     12  C19 359 d   1      35.958   9.263   6.604  0.00  0.00     0.011 C 
ATOM     13  H5  359 d   1      36.815   8.589   6.750  0.00  0.00     0.047 H 
ATOM     14  H6  359 d   1      36.066  10.141   7.258  0.00  0.00     0.047 H 
BRANCH  12  15
ATOM     15  C2  359 d   1      35.930   9.720   5.165  0.00  0.00     0.215 C 
ATOM     16  O2  359 d   1      35.730   8.930   4.270  0.00  0.00    -0.274 OA
ATOM     17  N3  359 d   1      36.060  11.033   4.954  0.00  0.00    -0.370 N 
ATOM     18  H16 359 d   1      36.049  11.393   4.021  0.00  0.00     0.159 HD
ATOM     19  H17 359 d   1      36.169  11.656   5.729  0.00  0.00     0.159 HD
ENDBRANCH  12  15
ENDBRANCH   9  12
ENDBRANCH   7   9
BRANCH   7  20
ATOM     20  C20 359 d   1      33.269   7.427   8.764  0.00  0.00     0.240 C 
ATOM     21  O5  359 d   1      33.188   6.217   8.590  0.00  0.00    -0.271 OA
ATOM     22  N6  359 d   1      32.300   8.248   9.237  0.00  0.00    -0.355 N 
ATOM     23  H7  359 d   1      32.470   9.222   9.384  0.00  0.00     0.162 HD
BRANCH  22  24
ATOM     24  C21 359 d   1      31.023   7.664   9.517  0.00  0.00     0.019 C 
ATOM     25  H8  359 d   1      30.940   6.731   8.940  0.00  0.00     0.071 H 
ATOM     26  H9  359 d   1      30.245   8.369   9.189  0.00  0.00     0.071 H 
BRANCH  24  27
ATOM     27  C25 359 d   1      30.779   7.341  10.960  0.00  0.00    -0.040 A 
ATOM     28  C16 359 d   1      31.611   6.455  11.661  0.00  0.00    -0.074 A 
ATOM     29  C17 359 d   1      31.350   6.197  13.011  0.00  0.00    -0.069 A 
ATOM     30  H10 359 d   1      32.446   5.976  11.162  0.00  0.00     0.084 H 
ATOM     31  C22 359 d   1      30.287   6.833  13.685  0.00  0.00     0.007 A 
ATOM     32  H11 359 d   1      31.977   5.495  13.549  0.00  0.00     0.085 H 
ATOM     33  C23 359 d   1      29.451   7.694  12.969  0.00  0.00    -0.069 A 
ATOM     34  C24 359 d   1      29.696   7.947  11.617  0.00  0.00    -0.074 A 
ATOM     35  H12 359 d   1      28.610   8.167  13.464  0.00  0.00     0.085 H 
ATOM     36  H13 359 d   1      29.044   8.618  11.070  0.00  0.00     0.084 H 
BRANCH  31  37
ATOM     37  C26 359 d   1      30.080   6.626  15.123  0.00  0.00     0.102 C 
ATOM     38  N2  359 d   1      29.246   7.382  15.828  0.00  0.00    -0.385 N 
ATOM     39  H27 359 d   1      28.720   8.137  15.366  0.00  0.00     0.157 HD
ATOM     40  H28 359 d   1      29.126   7.213  16.837  0.00  0.00     0.157 HD
BRANCH  37  41
ATOM     41  N1  359 d   1      30.735   5.669  15.756  0.00  0.00    -0.385 N 
ATOM     42  H14 359 d   1      30.588   5.525  16.765  0.00  0.00     0.157 HD
ATOM     43  H15 359 d   1      31.392   5.067  15.240  0.00  0.00     0.157 HD
ENDBRANCH  37  41
ENDBRANCH  31  37
ENDBRANCH  24  27
ENDBRANCH  22  24
ENDBRANCH   7  20
ENDBRANCH   5   7
ENDBRANCH   1   3
BRANCH   1  44
ATOM     44  C1  359 d   1      37.750   6.951  11.639  0.00  0.00    -0.011 C 
ATOM     45  H18 359 d   1      37.201   7.326  12.516  0.00  0.00     0.044 H 
ATOM     46  H19 359 d   1      38.096   7.801  11.032  0.00  0.00     0.044 H 
BRANCH  44  47
ATOM     47  C28 359 d   1      38.954   6.181  12.119  0.00  0.00    -0.028 A 
ATOM     48  C4  359 d   1      40.114   5.892  11.349  0.00  0.00     0.001 A 
ATOM     49  C3  359 d   1      41.074   5.221  12.174  0.00  0.00     0.043 A 
ATOM     50  C27 359 d   1      40.470   6.284  10.063  0.00  0.00    -0.038 A 
ATOM     51  C12 359 d   1      42.347   4.962  11.655  0.00  0.00    -0.054 A 
ATOM     52  N7  359 d   1      40.484   5.115  13.422  0.00  0.00    -0.365 N 
ATOM     53  C13 359 d   1      42.742   5.382  10.327  0.00  0.00    -0.049 A 
ATOM     54  H30 359 d   1      43.063   4.428  12.269  0.00  0.00     0.087 H 
ATOM     55  C6  359 d   1      41.783   6.079   9.519  0.00  0.00     0.070 A 
ATOM     56  H29 359 d   1      43.738   5.175   9.952  0.00  0.00     0.087 H 
ATOM     57  C29 359 d   1      39.226   5.691  13.400  0.00  0.00    -0.015 A 
ATOM     58  H32 359 d   1      40.917   4.673  14.245  0.00  0.00     0.165 HD
ATOM     59  H33 359 d   1      38.550   5.753  14.252  0.00  0.00     0.112 H 
ATOM     60  H31 359 d   1      39.722   6.766   9.443  0.00  0.00     0.089 H 
BRANCH  55  61
ATOM     61  O6  359 d   1      41.996   6.708   8.281  0.00  0.00    -0.347 OA
BRANCH  61  62
ATOM     62  C7  359 d   1      43.218   7.438   8.082  0.00  0.00     0.050 C 
ATOM     63  H34 359 d   1      43.250   7.710   7.017  0.00  0.00     0.082 H 
ATOM     64  H35 359 d   1      44.039   6.741   8.307  0.00  0.00     0.082 H 
BRANCH  62  65
ATOM     65  C32 359 d   1      43.505   8.707   8.860  0.00  0.00    -0.033 A 
ATOM     66  C31 359 d   1      44.674   8.809   9.635  0.00  0.00    -0.075 A 
ATOM     67  C10 359 d   1      45.012   9.993  10.314  0.00  0.00    -0.081 A 
ATOM     68  H38 359 d   1      45.333   7.951   9.711  0.00  0.00     0.084 H 
ATOM     69  C11 359 d   1      44.160  11.098  10.242  0.00  0.00    -0.066 A 
ATOM     70  H37 359 d   1      45.929  10.048  10.890  0.00  0.00     0.083 H 
ATOM     71  C33 359 d   1      42.987  11.020   9.476  0.00  0.00     0.041 A 
ATOM     72  H36 359 d   1      44.404  12.010  10.775  0.00  0.00     0.085 H 
ATOM     73  C30 359 d   1      42.679   9.837   8.775  0.00  0.00    -0.058 A 
ATOM     74  H39 359 d   1      41.788   9.800   8.159  0.00  0.00     0.086 H 
BRANCH  71  75
ATOM     75  C34 359 d   1      42.041  12.124   9.458  0.00  0.00     0.209 C 
ATOM     76  O8  359 d   1      42.461  13.292   9.601  0.00  0.00    -0.644 OA
ATOM     77  O7  359 d   1      40.830  11.847   9.326  0.00  0.00    -0.644 OA
ENDBRANCH  71  75
ENDBRANCH  62  65
ENDBRANCH  61  62
ENDBRANCH  55  61
ENDBRANCH  44  47
ENDBRANCH   1  44
BRANCH   1  78
ATOM     78  N4  359 d   1      36.324   5.042  11.656  0.00  0.00    -0.305 N 
ATOM     79  H20 359 d   1      36.067   5.225  12.605  0.00  0.00     0.173 HD
BRANCH  78  80
ATOM     80  S1  359 d   1      36.208   3.464  11.008  0.00  0.00     0.227 S 
ATOM     81  O4  359 d   1      35.729   3.698   9.687  0.00  0.00    -0.206 OA
ATOM     82  O3  359 d   1      35.422   2.787  11.980  0.00  0.00    -0.206 OA
BRANCH  80  83
ATOM     83  C9  359 d   1      37.836   2.816  10.948  0.00  0.00     0.043 C 
ATOM     84  H22 359 d   1      38.527   3.591  10.584  0.00  0.00     0.058 H 
ATOM     85  H23 359 d   1      37.863   1.952  10.268  0.00  0.00     0.058 H 
BRANCH  83  86
ATOM     86  C8  359 d   1      38.257   2.373  12.358  0.00  0.00    -0.062 C 
ATOM     87  H24 359 d   1      39.278   1.966  12.325  0.00  0.00     0.028 H 
ATOM     88  H25 359 d   1      37.565   1.599  12.721  0.00  0.00     0.028 H 
ATOM     89  H26 359 d   1      38.229   3.237  13.038  0.00  0.00     0.028 H 
ENDBRANCH  83  86
ENDBRANCH  80  83
ENDBRANCH  78  80
ENDBRANCH   1  78
TORSDOF 20
