REMARK  9 active torsions:
REMARK  status: ('A' for Active; 'I' for Inactive)
REMARK    1  A    between atoms: PB_1  and  O3A_5 
REMARK    2  A    between atoms: O3A_5  and  PA_6 
REMARK    3  A    between atoms: PA_6  and  O5'_9 
REMARK    4  A    between atoms: O5'_9  and  C5'_10 
REMARK    5  A    between atoms: C5'_10  and  C4'_11 
REMARK    6  A    between atoms: C3'_13  and  O3'_14 
REMARK    7  A    between atoms: C2'_15  and  O2'_16 
REMARK    8  A    between atoms: C1'_17  and  N9_18 
REMARK    9  A    between atoms: C2_25  and  N2_26 
ROOT
ATOM      1  C4' GDP d   1      -0.163  22.030  -6.582  0.00  0.00     0.089 C 
ATOM      2  O4' GDP d   1       0.095  20.624  -6.728  0.00  0.00    -0.353 OA
ATOM      3  C3' GDP d   1       1.161  22.731  -6.763  0.00  0.00     0.091 C 
ATOM      4  C2' GDP d   1       2.012  21.716  -7.498  0.00  0.00     0.105 C 
ATOM      5  C1' GDP d   1       1.486  20.423  -6.912  0.00  0.00     0.139 C 
ATOM      6  H3  GDP d   1      -0.576  22.250  -5.586  0.00  0.00     0.090 H 
ATOM      7  H4  GDP d   1       1.069  23.677  -7.316  0.00  0.00     0.091 H 
ATOM      8  H6  GDP d   1       1.840  21.767  -8.583  0.00  0.00     0.093 H 
ATOM      9  H8  GDP d   1       1.995  20.189  -5.965  0.00  0.00     0.122 H 
ENDROOT
BRANCH   5  10
ATOM     10  N9  GDP d   1       1.614  19.307  -7.857  0.00  0.00    -0.295 N 
ATOM     11  C8  GDP d   1       1.042  19.201  -9.065  0.00  0.00     0.071 A 
ATOM     12  N7  GDP d   1       1.367  18.015  -9.647  0.00  0.00    -0.234 NA
ATOM     13  H9  GDP d   1       0.405  19.959  -9.518  0.00  0.00     0.144 H 
ATOM     14  C5  GDP d   1       2.147  17.360  -8.770  0.00  0.00     0.171 A 
ATOM     15  C6  GDP d   1       2.836  16.064  -8.723  0.00  0.00     0.292 A 
ATOM     16  C4  GDP d   1       2.300  18.210  -7.589  0.00  0.00     0.161 A 
ATOM     17  O6  GDP d   1       2.736  15.295  -9.701  0.00  0.00    -0.265 OA
ATOM     18  N1  GDP d   1       3.546  15.777  -7.621  0.00  0.00    -0.154 N 
ATOM     19  C2  GDP d   1       3.647  16.605  -6.564  0.00  0.00     0.680 A 
ATOM     20  H10 GDP d   1       4.026  14.901  -7.583  0.00  0.00     0.187 HD
ATOM     21  N3  GDP d   1       3.037  17.814  -6.539  0.00  0.00    -0.174 N 
ATOM     22  H13 GDP d   1       3.138  18.427  -5.718  0.00  0.00     0.186 HD
BRANCH  19  23
ATOM     23  N2  GDP d   1       4.370  16.252  -5.476  0.00  0.00    -0.234 N 
ATOM     24  H11 GDP d   1       4.440  16.894  -4.674  0.00  0.00     0.174 HD
ATOM     25  H12 GDP d   1       4.851  15.341  -5.450  0.00  0.00     0.174 HD
ENDBRANCH  19  23
ENDBRANCH   5  10
BRANCH   4  26
ATOM     26  O2' GDP d   1       3.403  21.860  -7.238  0.00  0.00    -0.388 OA
ATOM     27  H7  GDP d   1       3.563  21.751  -6.308  0.00  0.00     0.210 HD
ENDBRANCH   4  26
BRANCH   1  28
ATOM     28  C5' GDP d   1      -1.148  22.444  -7.648  0.00  0.00     0.058 C 
ATOM     29  H1  GDP d   1      -2.111  21.940  -7.479  0.00  0.00     0.079 H 
ATOM     30  H2  GDP d   1      -1.294  23.534  -7.616  0.00  0.00     0.079 H 
BRANCH  28  31
ATOM     31  O5' GDP d   1      -0.622  22.065  -8.920  0.00  0.00    -0.287 OA
BRANCH  31  32
ATOM     32  PA  GDP d   1      -1.101  22.748 -10.278  0.00  0.00     0.418 P 
ATOM     33  O1A GDP d   1      -0.434  21.987 -11.390  0.00  0.00    -0.624 OA
ATOM     34  O2A GDP d   1      -0.787  24.238 -10.307  0.00  0.00    -0.624 OA
BRANCH  32  35
ATOM     35  O3A GDP d   1      -2.668  22.478 -10.223  0.00  0.00    -0.173 OA
BRANCH  35  36
ATOM     36  PB  GDP d   1      -3.905  23.129 -11.040  0.00  0.00     0.431 P 
ATOM     37  O1B GDP d   1      -4.864  21.974 -11.171  0.00  0.00    -0.616 OA
ATOM     38  O2B GDP d   1      -3.455  23.637 -12.387  0.00  0.00    -0.616 OA
ATOM     39  O3B GDP d   1      -4.503  24.213 -10.163  0.00  0.00    -0.616 OA
ENDBRANCH  35  36
ENDBRANCH  32  35
ENDBRANCH  31  32
ENDBRANCH  28  31
ENDBRANCH   1  28
BRANCH   3  40
ATOM     40  O3' GDP d   1       1.703  22.933  -5.457  0.00  0.00    -0.390 OA
ATOM     41  H5  GDP d   1       2.541  23.374  -5.528  0.00  0.00     0.210 HD
ENDBRANCH   3  40
TORSDOF 9
