REMARK  3 active torsions:
REMARK  status: ('A' for Active; 'I' for Inactive)
REMARK    1  A    between atoms: C1_1  and  O18_14 
REMARK    2  A    between atoms: O18_14  and  P8_7 
REMARK    3  A    between atoms: C12_11  and  N14_13 
ROOT
ATOM      1  C1  2T0 d   1      17.788  60.680  15.699  0.00  0.00     0.083 A 
ATOM      2  C2  2T0 d   1      18.715  61.396  14.947  0.00  0.00    -0.050 A 
ATOM      3  C3  2T0 d   1      20.081  61.189  15.176  0.00  0.00    -0.073 A 
ATOM      4  C4  2T0 d   1      20.528  60.278  16.147  0.00  0.00    -0.045 A 
ATOM      5  C52 2T0 d   1      19.573  59.576  16.888  0.00  0.00     0.003 A 
ATOM      6  C6  2T0 d   1      18.221  59.779  16.661  0.00  0.00    -0.037 A 
ATOM      7  C9  2T0 d   1      21.367  58.311  18.042  0.00  0.00     0.016 A 
ATOM      8  C10 2T0 d   1      20.018  58.613  17.901  0.00  0.00     0.083 A 
ATOM      9  S11 2T0 d   1      21.538  57.186  19.292  0.00  0.00    -0.055 SA
ATOM     10  C12 2T0 d   1      19.875  57.146  19.595  0.00  0.00     0.165 A 
ATOM     11  N13 2T0 d   1      19.184  57.964  18.769  0.00  0.00    -0.223 NA
ATOM     12  C20 2T0 d   1      22.510  58.851  17.227  0.00  0.00    -0.029 C 
ATOM     13  C21 2T0 d   1      22.043  60.077  16.376  0.00  0.00    -0.036 C 
ATOM     14  H1  2T0 d   1      18.384  62.103  14.195  0.00  0.00     0.087 H 
ATOM     15  H2  2T0 d   1      20.808  61.743  14.592  0.00  0.00     0.084 H 
ATOM     16  H3  2T0 d   1      17.492  59.227  17.243  0.00  0.00     0.089 H 
ATOM     17  H6  2T0 d   1      22.879  58.063  16.554  0.00  0.00     0.041 H 
ATOM     18  H7  2T0 d   1      23.319  59.166  17.902  0.00  0.00     0.041 H 
ATOM     19  H8  2T0 d   1      22.419  60.982  16.875  0.00  0.00     0.040 H 
ATOM     20  H9  2T0 d   1      22.512  59.983  15.386  0.00  0.00     0.040 H 
ENDROOT
BRANCH   1  21
ATOM     21  O18 2T0 d   1      16.397  60.869  15.488  0.00  0.00    -0.240 OA
BRANCH  21  22
ATOM     22  P8  2T0 d   1      15.247  60.003  16.108  0.00  0.00     0.427 P 
ATOM     23  O26 2T0 d   1      15.270  60.042  17.643  0.00  0.00    -0.617 OA
ATOM     24  O27 2T0 d   1      13.884  60.532  15.634  0.00  0.00    -0.617 OA
ATOM     25  O28 2T0 d   1      15.356  58.513  15.703  0.00  0.00    -0.617 OA
ENDBRANCH  21  22
ENDBRANCH   1  21
BRANCH  10  26
ATOM     26  N14 2T0 d   1      19.294  56.312  20.640  0.00  0.00    -0.378 N 
ATOM     27  H4  2T0 d   1      18.276  56.315  20.794  0.00  0.00     0.158 HD
ATOM     28  H5  2T0 d   1      19.902  55.720  21.224  0.00  0.00     0.158 HD
ENDBRANCH  10  26
TORSDOF 3
