REMARK  7 active torsions:
REMARK  status: ('A' for Active; 'I' for Inactive)
REMARK    1  A    between atoms: C15_6  and  N10_7 
REMARK    2  A    between atoms: C3_9  and  C14_10 
REMARK    3  A    between atoms: C1_17  and  N9_18 
REMARK    4  A    between atoms: N9_18  and  C13_19 
REMARK    5  A    between atoms: C16_24  and  O21_25 
REMARK    6  A    between atoms: O21_25  and  C24_26 
REMARK    7  A    between atoms: C24_26  and  C27_27 
ROOT
ATOM      1  N10 PDY d   1      96.910 109.602  97.273  0.00  0.00    -0.368 N 
ATOM      2  C4  PDY d   1      97.162 110.893  97.452  0.00  0.00     0.136 A 
ATOM      3  C3  PDY d   1      98.480 111.308  97.629  0.00  0.00     0.030 A 
ATOM      4  N6  PDY d   1      96.132 111.733  97.651  0.00  0.00    -0.211 NA
ATOM      5  C5  PDY d   1      96.324 112.999  98.039  0.00  0.00     0.156 A 
ATOM      6  C8  PDY d   1      95.457 113.999  98.196  0.00  0.00    -0.018 C 
ATOM      7  C11 PDY d   1      96.293 115.250  98.460  0.00  0.00     0.026 C 
ATOM      8  N7  PDY d   1      97.648 114.688  98.364  0.00  0.00    -0.177 NA
ATOM      9  N2  PDY d   1      97.634 113.462  98.245  0.00  0.00    -0.199 N 
ATOM     10  C1  PDY d   1      98.728 112.597  98.083  0.00  0.00     0.141 A 
ATOM     11  H   PDY d   1      97.686 108.955  97.133  0.00  0.00     0.161 HD
ATOM     12  H   PDY d   1      94.370 113.937  98.146  0.00  0.00     0.091 H 
ATOM     13  H   PDY d   1      95.974 116.272  98.663  0.00  0.00     0.117 H 
ENDROOT
BRANCH  10  14
ATOM     14  N9  PDY d   1      99.916 113.202  98.094  0.00  0.00    -0.340 N 
ATOM     15  H   PDY d   1      99.972 113.979  98.752  0.00  0.00     0.167 HD
BRANCH  14  16
ATOM     16  C13 PDY d   1     101.039 112.995  97.420  0.00  0.00     0.033 A 
ATOM     17  C17 PDY d   1     102.243 113.285  98.050  0.00  0.00    -0.055 A 
ATOM     18  C20 PDY d   1     103.442 112.897  97.463  0.00  0.00    -0.049 A 
ATOM     19  H   PDY d   1     102.247 113.816  99.002  0.00  0.00     0.087 H 
ATOM     20  C16 PDY d   1     103.424 112.244  96.238  0.00  0.00     0.068 A 
ATOM     21  H   PDY d   1     104.389 113.104  97.961  0.00  0.00     0.087 H 
ATOM     22  C19 PDY d   1     102.224 111.950  95.609  0.00  0.00    -0.049 A 
ATOM     23  C18 PDY d   1     101.028 112.296  96.222  0.00  0.00    -0.055 A 
ATOM     24  H   PDY d   1     102.220 111.451  94.640  0.00  0.00     0.087 H 
ATOM     25  H   PDY d   1     100.080 112.018  95.762  0.00  0.00     0.087 H 
BRANCH  20  26
ATOM     26  O21 PDY d   1     104.567 111.909  95.587  0.00  0.00    -0.352 OA
BRANCH  26  27
ATOM     27  C24 PDY d   1     105.558 112.941  95.538  0.00  0.00     0.023 C 
ATOM     28  H   PDY d   1     105.962 113.194  96.518  0.00  0.00     0.074 H 
ATOM     29  H   PDY d   1     105.164 113.897  95.194  0.00  0.00     0.074 H 
BRANCH  27  30
ATOM     30  C27 PDY d   1     106.603 112.346  94.592  0.00  0.00    -0.056 C 
ATOM     31  H   PDY d   1     106.981 111.413  95.011  0.00  0.00     0.030 H 
ATOM     32  H   PDY d   1     106.144 112.151  93.623  0.00  0.00     0.030 H 
ATOM     33  H   PDY d   1     107.425 113.051  94.471  0.00  0.00     0.030 H 
ENDBRANCH  27  30
ENDBRANCH  26  27
ENDBRANCH  20  26
ENDBRANCH  14  16
ENDBRANCH  10  14
BRANCH   3  34
ATOM     34  C14 PDY d   1      99.605 110.279  97.473  0.00  0.00    -0.044 C 
ATOM     35  H   PDY d   1     100.342 110.654  96.763  0.00  0.00     0.033 H 
ATOM     36  H   PDY d   1     100.081 110.113  98.440  0.00  0.00     0.033 H 
ATOM     37  H   PDY d   1      99.189 109.341  97.106  0.00  0.00     0.033 H 
ENDBRANCH   3  34
BRANCH   1  38
ATOM     38  C15 PDY d   1      95.529 109.087  97.273  0.00  0.00     0.034 C 
ATOM     39  C25 PDY d   1      95.535 107.966  96.234  0.00  0.00    -0.043 C 
ATOM     40  C26 PDY d   1      94.176 107.269  96.197  0.00  0.00    -0.041 C 
ATOM     41  H   PDY d   1      95.743 108.392  95.252  0.00  0.00     0.036 H 
ATOM     42  H   PDY d   1      96.301 107.238  96.501  0.00  0.00     0.036 H 
ATOM     43  C23 PDY d   1      93.884 106.710  97.592  0.00  0.00     0.082 C 
ATOM     44  H   PDY d   1      94.190 106.461  95.466  0.00  0.00     0.035 H 
ATOM     45  H   PDY d   1      93.400 107.978  95.909  0.00  0.00     0.035 H 
ATOM     46  N12 PDY d   1      93.839 107.797  98.585  0.00  0.00    -0.073 N 
ATOM     47  H   PDY d   1      94.675 106.013  97.867  0.00  0.00     0.075 H 
ATOM     48  H   PDY d   1      92.918 106.205  97.576  0.00  0.00     0.075 H 
ATOM     49  C22 PDY d   1      95.119 108.527  98.642  0.00  0.00     0.100 C 
ATOM     50  H   PDY d   1      93.657 107.390  99.502  0.00  0.00     0.277 HD
ATOM     51  H   PDY d   1      93.105 108.451  98.316  0.00  0.00     0.277 HD
ATOM     52  H   PDY d   1      95.892 107.831  98.969  0.00  0.00     0.078 H 
ATOM     53  H   PDY d   1      95.001 109.365  99.329  0.00  0.00     0.078 H 
ATOM     54  H   PDY d   1      94.816 109.880  97.048  0.00  0.00     0.075 H 
ENDBRANCH   1  38
TORSDOF 7
