REMARK  14 active torsions:
REMARK  status: ('A' for Active; 'I' for Inactive)
REMARK    1  A    between atoms: C1_1  and  O1_30 
REMARK    2  A    between atoms: O3_31  and  C3_3 
REMARK    3  A    between atoms: C5_5  and  O5_32 
REMARK    4  A    between atoms: C10_10  and  C19_19 
REMARK    5  A    between atoms: C11_11  and  O11_33 
REMARK    6  A    between atoms: C13_13  and  C18_18 
REMARK    7  A    between atoms: C14_14  and  O14_34 
REMARK    8  A    between atoms: C17_17  and  C20_20 
REMARK    9  A    between atoms: C19_19  and  O19_35 
REMARK   10  A    between atoms: C1'_24  and  O3_31 
REMARK   11  A    between atoms: C2'_25  and  O2'_38 
REMARK   12  A    between atoms: C3'_26  and  O3'_39 
REMARK   13  A    between atoms: C4'_27  and  O4'_40 
REMARK   14  A    between atoms: C5'_28  and  C6'_29 
ROOT
ATOM      1  C1  OBN d   1     148.205  16.497  -3.545  0.00  0.00     0.050 C 
ATOM      2  C2  OBN d   1     147.728  15.107  -3.990  0.00  0.00    -0.016 C 
ATOM      3  C3  OBN d   1     146.921  15.188  -5.281  0.00  0.00     0.046 C 
ATOM      4  C4  OBN d   1     145.727  16.111  -5.052  0.00  0.00    -0.011 C 
ATOM      5  C5  OBN d   1     146.126  17.511  -4.564  0.00  0.00     0.073 C 
ATOM      6  C6  OBN d   1     144.868  18.347  -4.338  0.00  0.00    -0.035 C 
ATOM      7  C7  OBN d   1     144.084  17.886  -3.115  0.00  0.00    -0.056 C 
ATOM      8  C8  OBN d   1     144.956  17.849  -1.852  0.00  0.00    -0.017 C 
ATOM      9  C9  OBN d   1     146.261  17.050  -2.054  0.00  0.00    -0.008 C 
ATOM     10  C10 OBN d   1     147.053  17.494  -3.316  0.00  0.00     0.044 C 
ATOM     11  C11 OBN d   1     147.040  17.022  -0.727  0.00  0.00     0.041 C 
ATOM     12  C12 OBN d   1     146.222  16.225   0.271  0.00  0.00    -0.031 C 
ATOM     13  C13 OBN d   1     144.871  16.865   0.587  0.00  0.00    -0.003 C 
ATOM     14  C14 OBN d   1     144.110  17.433  -0.634  0.00  0.00     0.070 C 
ATOM     15  C15 OBN d   1     143.034  16.425  -1.034  0.00  0.00    -0.035 C 
ATOM     16  C16 OBN d   1     142.808  15.508   0.149  0.00  0.00    -0.055 C 
ATOM     17  C17 OBN d   1     143.989  15.710   1.090  0.00  0.00    -0.020 C 
ATOM     18  H1  OBN d   1     148.729  16.376  -2.585  0.00  0.00     0.084 H 
ATOM     19  H2  OBN d   1     147.098  14.674  -3.200  0.00  0.00     0.040 H 
ATOM     20  H3  OBN d   1     148.604  14.463  -4.154  0.00  0.00     0.040 H 
ATOM     21  H4  OBN d   1     146.569  14.189  -5.578  0.00  0.00     0.083 H 
ATOM     22  H5  OBN d   1     145.071  15.652  -4.298  0.00  0.00     0.041 H 
ATOM     23  H6  OBN d   1     145.179  16.215  -6.000  0.00  0.00     0.041 H 
ATOM     24  H7  OBN d   1     144.223  18.263  -5.225  0.00  0.00     0.037 H 
ATOM     25  H8  OBN d   1     145.161  19.398  -4.196  0.00  0.00     0.037 H 
ATOM     26  H9  OBN d   1     143.691  16.876  -3.305  0.00  0.00     0.033 H 
ATOM     27  H10 OBN d   1     143.247  18.579  -2.948  0.00  0.00     0.033 H 
ATOM     28  H11 OBN d   1     145.273  18.885  -1.661  0.00  0.00     0.045 H 
ATOM     29  H12 OBN d   1     145.965  16.009  -2.252  0.00  0.00     0.046 H 
ATOM     30  H13 OBN d   1     147.163  18.056  -0.372  0.00  0.00     0.083 H 
ATOM     31  H14 OBN d   1     146.796  16.140   1.206  0.00  0.00     0.038 H 
ATOM     32  H15 OBN d   1     146.045  15.222  -0.143  0.00  0.00     0.038 H 
ATOM     33  H16 OBN d   1     143.371  15.841  -1.903  0.00  0.00     0.037 H 
ATOM     34  H17 OBN d   1     142.101  16.951  -1.285  0.00  0.00     0.037 H 
ATOM     35  H18 OBN d   1     142.764  14.461  -0.185  0.00  0.00     0.034 H 
ATOM     36  H19 OBN d   1     141.869  15.770   0.658  0.00  0.00     0.034 H 
ATOM     37  H20 OBN d   1     144.610  14.802   1.060  0.00  0.00     0.048 H 
ENDROOT
BRANCH   3  38
ATOM     38  O3  OBN d   1     147.780  15.725  -6.289  0.00  0.00    -0.353 OA
BRANCH  38  39
ATOM     39  C1' OBN d   1     147.694  15.161  -7.603  0.00  0.00     0.159 C 
ATOM     40  C2' OBN d   1     148.866  15.707  -8.424  0.00  0.00     0.110 C 
ATOM     41  C3' OBN d   1     150.194  15.061  -8.017  0.00  0.00     0.092 C 
ATOM     42  H30 OBN d   1     148.942  16.788  -8.236  0.00  0.00     0.094 H 
ATOM     43  C4' OBN d   1     150.103  13.535  -8.031  0.00  0.00     0.087 C 
ATOM     44  H31 OBN d   1     150.437  15.384  -6.994  0.00  0.00     0.091 H 
ATOM     45  C5' OBN d   1     148.906  13.061  -7.202  0.00  0.00     0.065 C 
ATOM     46  H32 OBN d   1     149.969  13.196  -9.069  0.00  0.00     0.091 H 
ATOM     47  O5' OBN d   1     147.693  13.720  -7.606  0.00  0.00    -0.351 OA
ATOM     48  H33 OBN d   1     149.104  13.302  -6.147  0.00  0.00     0.086 H 
ATOM     49  H29 OBN d   1     146.753  15.497  -8.062  0.00  0.00     0.133 H 
BRANCH  40  50
ATOM     50  O2' OBN d   1     148.617  15.507  -9.822  0.00  0.00    -0.388 OA
ATOM     51  H42 OBN d   1     149.319  15.900 -10.327  0.00  0.00     0.210 HD
ENDBRANCH  40  50
BRANCH  41  52
ATOM     52  O3' OBN d   1     151.238  15.494  -8.894  0.00  0.00    -0.390 OA
ATOM     53  H43 OBN d   1     151.051  15.199  -9.777  0.00  0.00     0.210 HD
ENDBRANCH  41  52
BRANCH  43  54
ATOM     54  O4' OBN d   1     151.319  12.979  -7.514  0.00  0.00    -0.390 OA
ATOM     55  H44 OBN d   1     152.052  13.281  -8.037  0.00  0.00     0.210 HD
ENDBRANCH  43  54
BRANCH  45  56
ATOM     56  C6' OBN d   1     148.698  11.557  -7.330  0.00  0.00    -0.050 C 
ATOM     57  H34 OBN d   1     147.832  11.254  -6.723  0.00  0.00     0.031 H 
ATOM     58  H35 OBN d   1     149.597  11.031  -6.976  0.00  0.00     0.031 H 
ATOM     59  H36 OBN d   1     148.515  11.300  -8.384  0.00  0.00     0.031 H 
ENDBRANCH  45  56
ENDBRANCH  38  39
ENDBRANCH   3  38
BRANCH   1  60
ATOM     60  O1  OBN d   1     149.144  17.013  -4.503  0.00  0.00    -0.395 OA
ATOM     61  H37 OBN d   1     148.701  17.164  -5.329  0.00  0.00     0.210 HD
ENDBRANCH   1  60
BRANCH   5  62
ATOM     62  O5  OBN d   1     146.831  18.144  -5.633  0.00  0.00    -0.389 OA
ATOM     63  H38 OBN d   1     147.628  17.660  -5.816  0.00  0.00     0.210 HD
ENDBRANCH   5  62
BRANCH  10  64
ATOM     64  C19 OBN d   1     147.589  18.922  -3.065  0.00  0.00     0.029 C 
ATOM     65  H24 OBN d   1     146.984  19.390  -2.275  0.00  0.00     0.075 H 
ATOM     66  H25 OBN d   1     147.491  19.503  -3.994  0.00  0.00     0.075 H 
BRANCH  64  67
ATOM     67  O19 OBN d   1     148.967  18.936  -2.658  0.00  0.00    -0.400 OA
ATOM     68  H41 OBN d   1     149.501  18.540  -3.337  0.00  0.00     0.209 HD
ENDBRANCH  64  67
ENDBRANCH  10  64
BRANCH  11  69
ATOM     69  O11 OBN d   1     148.334  16.410  -0.809  0.00  0.00    -0.395 OA
ATOM     70  H39 OBN d   1     148.871  16.889  -1.429  0.00  0.00     0.210 HD
ENDBRANCH  11  69
BRANCH  14  71
ATOM     71  O14 OBN d   1     143.393  18.596  -0.217  0.00  0.00    -0.389 OA
ATOM     72  H40 OBN d   1     142.920  18.957  -0.957  0.00  0.00     0.210 HD
ENDBRANCH  14  71
BRANCH  13  73
ATOM     73  C18 OBN d   1     145.136  17.943   1.643  0.00  0.00    -0.066 C 
ATOM     74  H21 OBN d   1     145.770  18.731   1.211  0.00  0.00     0.028 H 
ATOM     75  H22 OBN d   1     145.648  17.493   2.506  0.00  0.00     0.028 H 
ATOM     76  H23 OBN d   1     144.180  18.379   1.970  0.00  0.00     0.028 H 
ENDBRANCH  13  73
BRANCH  17  77
ATOM     77  C20 OBN d   1     143.472  15.840   2.493  0.00  0.00    -0.045 C 
ATOM     78  C21 OBN d   1     142.615  16.982   3.026  0.00  0.00     0.050 C 
ATOM     79  O21 OBN d   1     142.564  16.687   4.424  0.00  0.00    -0.314 OA
ATOM     80  H26 OBN d   1     141.610  16.971   2.578  0.00  0.00     0.082 H 
ATOM     81  H27 OBN d   1     143.088  17.957   2.840  0.00  0.00     0.082 H 
ATOM     82  C23 OBN d   1     143.289  15.457   4.669  0.00  0.00     0.283 C 
ATOM     83  C22 OBN d   1     143.737  14.898   3.397  0.00  0.00    -0.006 C 
ATOM     84  O23 OBN d   1     143.493  14.981   5.771  0.00  0.00    -0.260 OA
ATOM     85  H28 OBN d   1     144.190  13.923   3.224  0.00  0.00     0.093 H 
ENDBRANCH  17  77
TORSDOF 14
