REMARK  7 active torsions:
REMARK  status: ('A' for Active; 'I' for Inactive)
REMARK    1  A    between atoms: C25_2  and  N3_31 
REMARK    2  A    between atoms: C23_4  and  N4_34 
REMARK    3  A    between atoms: C22_5  and  O6_32 
REMARK    4  A    between atoms: C21_6  and  C26_7 
REMARK    5  A    between atoms: C21_6  and  N2_8 
REMARK    6  A    between atoms: O6_32  and  C27_33 
REMARK    7  A    between atoms: N4_34  and  C28_35 
ROOT
ATOM      1  O4  STU d   1      -2.671 -25.171 -19.454  0.00  0.00    -0.333 OA
ATOM      2  C25 STU d   1      -2.248 -24.491 -18.246  0.00  0.00     0.115 C 
ATOM      3  C24 STU d   1      -3.294 -24.499 -17.125  0.00  0.00     0.005 C 
ATOM      4  C23 STU d   1      -4.619 -25.033 -17.598  0.00  0.00     0.134 C 
ATOM      5  C22 STU d   1      -4.762 -24.212 -18.862  0.00  0.00     0.113 C 
ATOM      6  C21 STU d   1      -3.932 -24.797 -19.959  0.00  0.00     0.168 C 
ATOM      7  H1  STU d   1      -1.362 -25.019 -17.864  0.00  0.00     0.118 H 
ATOM      8  H2  STU d   1      -3.434 -23.470 -16.762  0.00  0.00     0.042 H 
ATOM      9  H3  STU d   1      -2.929 -25.131 -16.302  0.00  0.00     0.042 H 
ATOM     10  H4  STU d   1      -4.602 -26.113 -17.804  0.00  0.00     0.088 H 
ATOM     11  H5  STU d   1      -5.752 -24.574 -19.175  0.00  0.00     0.094 H 
ENDROOT
BRANCH   4  12
ATOM     12  N4  STU d   1      -5.628 -24.726 -16.598  0.00  0.00    -0.072 N 
ATOM     13  H23 STU d   1      -6.391 -24.218 -17.019  0.00  0.00     0.277 HD
ATOM     14  H24 STU d   1      -5.226 -24.174 -15.857  0.00  0.00     0.277 HD
BRANCH  12  15
ATOM     15  C28 STU d   1      -6.103 -26.005 -16.073  0.00  0.00     0.065 C 
ATOM     16  H25 STU d   1      -6.873 -25.824 -15.308  0.00  0.00     0.067 H 
ATOM     17  H26 STU d   1      -5.261 -26.552 -15.624  0.00  0.00     0.067 H 
ATOM     18  H27 STU d   1      -6.533 -26.601 -16.892  0.00  0.00     0.067 H 
ENDBRANCH  12  15
ENDBRANCH   4  12
BRANCH   5  19
ATOM     19  O6  STU d   1      -5.034 -23.019 -18.888  0.00  0.00    -0.384 OA
BRANCH  19  20
ATOM     20  C27 STU d   1      -6.325 -22.373 -18.825  0.00  0.00     0.005 C 
ATOM     21  H20 STU d   1      -6.192 -21.282 -18.875  0.00  0.00     0.066 H 
ATOM     22  H21 STU d   1      -6.822 -22.639 -17.881  0.00  0.00     0.066 H 
ATOM     23  H22 STU d   1      -6.943 -22.706 -19.672  0.00  0.00     0.066 H 
ENDBRANCH  19  20
ENDBRANCH   5  19
BRANCH   2  24
ATOM     24  N3  STU d   1      -1.848 -23.113 -18.581  0.00  0.00    -0.316 N 
ATOM     25  C19 STU d   1      -2.257 -22.375 -19.633  0.00  0.00     0.077 A 
ATOM     26  C18 STU d   1      -3.206 -22.670 -20.717  0.00  0.00     0.077 A 
ATOM     27  C6  STU d   1      -1.585 -21.133 -19.604  0.00  0.00     0.022 A 
ATOM     28  N2  STU d   1      -3.964 -23.818 -21.060  0.00  0.00    -0.308 N 
ATOM     29  C11 STU d   1      -3.337 -21.640 -21.683  0.00  0.00     0.015 A 
ATOM     30  C17 STU d   1      -4.588 -23.393 -22.172  0.00  0.00     0.049 A 
ATOM     31  C12 STU d   1      -4.329 -22.070 -22.599  0.00  0.00     0.004 A 
ATOM     32  C16 STU d   1      -5.571 -24.108 -22.853  0.00  0.00    -0.056 A 
ATOM     33  C13 STU d   1      -4.932 -21.478 -23.720  0.00  0.00    -0.070 A 
ATOM     34  C14 STU d   1      -5.888 -22.235 -24.421  0.00  0.00    -0.082 A 
ATOM     35  H12 STU d   1      -4.670 -20.474 -24.034  0.00  0.00     0.084 H 
ATOM     36  C15 STU d   1      -6.215 -23.530 -23.976  0.00  0.00    -0.081 A 
ATOM     37  H11 STU d   1      -6.371 -21.823 -25.300  0.00  0.00     0.083 H 
ATOM     38  H10 STU d   1      -6.974 -24.097 -24.503  0.00  0.00     0.083 H 
ATOM     39  H9  STU d   1      -5.843 -25.105 -22.525  0.00  0.00     0.087 H 
ATOM     40  C10 STU d   1      -2.664 -20.383 -21.672  0.00  0.00    -0.010 A 
ATOM     41  C7  STU d   1      -1.773 -20.136 -20.621  0.00  0.00     0.054 A 
ATOM     42  C9  STU d   1      -2.644 -19.105 -22.529  0.00  0.00     0.021 A 
ATOM     43  C8  STU d   1      -1.162 -18.881 -20.742  0.00  0.00     0.253 A 
ATOM     44  N1  STU d   1      -1.712 -18.225 -21.808  0.00  0.00    -0.353 N 
ATOM     45  O5  STU d   1      -0.248 -18.452 -20.064  0.00  0.00    -0.268 OA
ATOM     46  H15 STU d   1      -1.509 -17.279 -22.062  0.00  0.00     0.163 HD
ATOM     47  H13 STU d   1      -3.646 -18.654 -22.587  0.00  0.00     0.071 H 
ATOM     48  H14 STU d   1      -2.278 -19.318 -23.544  0.00  0.00     0.071 H 
ATOM     49  C5  STU d   1      -0.760 -21.122 -18.446  0.00  0.00     0.004 A 
ATOM     50  C20 STU d   1      -0.975 -22.396 -17.877  0.00  0.00     0.048 A 
ATOM     51  C4  STU d   1       0.122 -20.214 -17.835  0.00  0.00    -0.070 A 
ATOM     52  C1  STU d   1      -0.287 -22.793 -16.699  0.00  0.00    -0.056 A 
ATOM     53  C2  STU d   1       0.609 -21.882 -16.094  0.00  0.00    -0.081 A 
ATOM     54  H16 STU d   1      -0.446 -23.776 -16.272  0.00  0.00     0.087 H 
ATOM     55  C3  STU d   1       0.800 -20.600 -16.644  0.00  0.00    -0.082 A 
ATOM     56  H17 STU d   1       1.152 -22.172 -15.202  0.00  0.00     0.083 H 
ATOM     57  H18 STU d   1       1.469 -19.901 -16.156  0.00  0.00     0.083 H 
ATOM     58  H19 STU d   1       0.284 -19.232 -18.265  0.00  0.00     0.084 H 
ENDBRANCH   2  24
BRANCH   6  59
ATOM     59  C26 STU d   1      -4.582 -26.067 -20.392  0.00  0.00    -0.028 C 
ATOM     60  H6  STU d   1      -5.580 -25.848 -20.800  0.00  0.00     0.034 H 
ATOM     61  H7  STU d   1      -4.680 -26.742 -19.529  0.00  0.00     0.034 H 
ATOM     62  H8  STU d   1      -3.967 -26.549 -21.166  0.00  0.00     0.034 H 
ENDBRANCH   6  59
TORSDOF 7
