REMARK  7 active torsions:
REMARK  status: ('A' for Active; 'I' for Inactive)
REMARK    1  A    between atoms: C1_1  and  N2_2 
REMARK       I    between atoms: N2_2  and  C4_3 
REMARK    2  A    between atoms: C4_3  and  C6_5 
REMARK    3  A    between atoms: C7_6  and  C8_7 
REMARK    4  A    between atoms: C17_16  and  O18_17 
REMARK    5  A    between atoms: O18_17  and  C19_18 
REMARK    6  A    between atoms: C19_18  and  C20_19 
REMARK    7  A    between atoms: C19_18  and  C21_20 
ROOT
ATOM      1  C8  DFQ d   1     -21.733 -20.937   1.106  0.00  0.00    -0.018 A 
ATOM      2  C9  DFQ d   1     -20.973 -20.293   2.091  0.00  0.00    -0.059 A 
ATOM      3  C10 DFQ d   1     -20.429 -21.012   3.135  0.00  0.00    -0.004 A 
ATOM      4  C11 DFQ d   1     -19.636 -20.377   4.083  0.00  0.00    -0.039 A 
ATOM      5  C12 DFQ d   1     -21.949 -22.298   1.309  0.00  0.00     0.013 A 
ATOM      6  N13 DFQ d   1     -21.433 -22.974   2.330  0.00  0.00    -0.260 NA
ATOM      7  C14 DFQ d   1     -20.678 -22.383   3.249  0.00  0.00     0.067 A 
ATOM      8  C15 DFQ d   1     -20.137 -23.141   4.290  0.00  0.00    -0.052 A 
ATOM      9  C16 DFQ d   1     -19.370 -22.502   5.256  0.00  0.00    -0.049 A 
ATOM     10  C17 DFQ d   1     -19.101 -21.140   5.155  0.00  0.00     0.070 A 
ATOM     11  H   DFQ d   1     -20.811 -19.217   2.032  0.00  0.00     0.086 H 
ATOM     12  H   DFQ d   1     -19.428 -19.310   4.005  0.00  0.00     0.089 H 
ATOM     13  H   DFQ d   1     -22.573 -22.835   0.595  0.00  0.00     0.116 H 
ATOM     14  H   DFQ d   1     -20.314 -24.215   4.343  0.00  0.00     0.087 H 
ATOM     15  H   DFQ d   1     -18.976 -23.071   6.098  0.00  0.00     0.087 H 
ENDROOT
BRANCH  10  16
ATOM     16  O18 DFQ d   1     -18.302 -20.596   6.121  0.00  0.00    -0.342 OA
BRANCH  16  17
ATOM     17  C19 DFQ d   1     -17.812 -19.166   6.124  0.00  0.00     0.070 C 
ATOM     18  H   DFQ d   1     -17.595 -18.768   5.133  0.00  0.00     0.091 H 
BRANCH  17  19
ATOM     19  C20 DFQ d   1     -16.448 -19.080   6.866  0.00  0.00    -0.048 C 
ATOM     20  H   DFQ d   1     -16.573 -19.422   7.894  0.00  0.00     0.031 H 
ATOM     21  H   DFQ d   1     -15.719 -19.711   6.358  0.00  0.00     0.031 H 
ATOM     22  H   DFQ d   1     -16.100 -18.047   6.865  0.00  0.00     0.031 H 
ENDBRANCH  17  19
BRANCH  17  23
ATOM     23  C21 DFQ d   1     -18.965 -18.324   6.733  0.00  0.00     0.017 A 
ATOM     24  C22 DFQ d   1     -19.694 -18.678   7.893  0.00  0.00     0.083 A 
ATOM     25 CL23 DFQ d   1     -19.351 -20.089   8.832  0.00  0.00    -0.080 Cl
ATOM     26  C24 DFQ d   1     -20.735 -17.851   8.366  0.00  0.00     0.138 A 
ATOM     27  F25 DFQ d   1     -21.438 -18.169   9.476  0.00  0.00    -0.204 F 
ATOM     28  C26 DFQ d   1     -21.070 -16.685   7.692  0.00  0.00    -0.042 A 
ATOM     29  C27 DFQ d   1     -20.374 -16.354   6.542  0.00  0.00    -0.058 A 
ATOM     30  H   DFQ d   1     -21.868 -16.041   8.062  0.00  0.00     0.088 H 
ATOM     31  C28 DFQ d   1     -19.348 -17.166   6.085  0.00  0.00     0.044 A 
ATOM     32  H   DFQ d   1     -20.634 -15.449   5.993  0.00  0.00     0.086 H 
ATOM     33 CL29 DFQ d   1     -18.532 -16.687   4.671  0.00  0.00    -0.084 Cl
ENDBRANCH  17  23
ENDBRANCH  16  17
ENDBRANCH  10  16
BRANCH   1  34
ATOM     34  C7  DFQ d   1     -22.323 -20.179   0.065  0.00  0.00    -0.066 C 
ATOM     35  C6  DFQ d   1     -23.580 -20.557  -0.426  0.00  0.00    -0.017 C 
ATOM     36  H   DFQ d   1     -23.975 -21.522  -0.108  0.00  0.00     0.092 H 
ATOM     37  H   DFQ d   1     -21.806 -19.313  -0.349  0.00  0.00     0.085 H 
BRANCH  35  38
ATOM     38  C4  DFQ d   1     -24.370 -19.787  -1.297  0.00  0.00     0.240 C 
ATOM     39  N2  DFQ d   1     -25.506 -20.383  -1.695  0.00  0.00    -0.362 N 
ATOM     40  H   DFQ d   1     -25.695 -21.329  -1.363  0.00  0.00     0.162 HD
ATOM     41  O5  DFQ d   1     -23.999 -18.660  -1.649  0.00  0.00    -0.269 OA
BRANCH  39  42
ATOM     42  C1  DFQ d   1     -26.488 -19.753  -2.578  0.00  0.00    -0.018 C 
ATOM     43  H   DFQ d   1     -26.862 -18.841  -2.112  0.00  0.00     0.056 H 
ATOM     44  H   DFQ d   1     -26.015 -19.509  -3.529  0.00  0.00     0.056 H 
ATOM     45  H   DFQ d   1     -27.316 -20.441  -2.748  0.00  0.00     0.056 H 
ENDBRANCH  39  42
ENDBRANCH  35  38
ENDBRANCH   1  34
TORSDOF 7
