REMARK  13 active torsions:
REMARK  status: ('A' for Active; 'I' for Inactive)
REMARK    1  A    between atoms: CAB_2  and  NAA_1 
REMARK    2  A    between atoms: CAC_3  and  CAB_2 
REMARK    3  A    between atoms: CAH_8  and  CAI_9 
REMARK    4  A    between atoms: CAI_9  and  NAJ_10 
REMARK    5  A    between atoms: CAU_21  and  CAM_13 
REMARK    6  A    between atoms: CAN_14  and  OAO_15 
REMARK    7  A    between atoms: CAQ_17  and  OAP_16 
REMARK    8  A    between atoms: CAZ_26  and  CAR_18 
REMARK    9  A    between atoms: NAV_22  and  CAU_21 
REMARK   10  A    between atoms: CAW_23  and  NAV_22 
REMARK   11  A    between atoms: CAX_24  and  CAW_23 
REMARK   12  A    between atoms: NAY_25  and  CAX_24 
REMARK   13  A    between atoms: NAY_25  and  CAZ_26 
ROOT
ATOM      1  CAW A2C d   1     -17.606  36.745  -2.320  0.00  0.00     0.104 C 
ATOM      2  H   A2C d   1     -17.896  36.241  -1.398  0.00  0.00     0.078 H 
ATOM      3  H   A2C d   1     -16.549  37.007  -2.358  0.00  0.00     0.078 H 
ENDROOT
BRANCH   1   4
ATOM      4  NAV A2C d   1     -18.374  37.994  -2.401  0.00  0.00    -0.070 N 
ATOM      5  H   A2C d   1     -17.836  38.555  -3.062  0.00  0.00     0.277 HD
ATOM      6  H   A2C d   1     -19.323  37.671  -2.589  0.00  0.00     0.277 HD
BRANCH   4   7
ATOM      7  CAU A2C d   1     -18.529  38.794  -1.394  0.00  0.00     0.108 C 
ATOM      8  H   A2C d   1     -19.543  39.166  -1.541  0.00  0.00     0.083 H 
ATOM      9  H   A2C d   1     -18.214  38.178  -0.552  0.00  0.00     0.083 H 
BRANCH   7  10
ATOM     10  CAM A2C d   1     -17.804  39.964  -1.200  0.00  0.00     0.001 A 
ATOM     11  CAL A2C d   1     -18.058  40.767  -0.095  0.00  0.00    -0.059 A 
ATOM     12  CAC A2C d   1     -17.371  41.968   0.059  0.00  0.00     0.008 A 
ATOM     13  H   A2C d   1     -18.793  40.458   0.649  0.00  0.00     0.086 H 
ATOM     14  CAD A2C d   1     -16.433  42.362  -0.887  0.00  0.00    -0.067 A 
ATOM     15  CAE A2C d   1     -16.178  41.553  -1.991  0.00  0.00    -0.050 A 
ATOM     16  H   A2C d   1     -15.897  43.303  -0.765  0.00  0.00     0.085 H 
ATOM     17  CAN A2C d   1     -16.862  40.353  -2.146  0.00  0.00     0.073 A 
ATOM     18  H   A2C d   1     -15.442  41.861  -2.734  0.00  0.00     0.087 H 
BRANCH  12  19
ATOM     19  CAB A2C d   1     -17.625  42.787   1.152  0.00  0.00     0.102 C 
ATOM     20  NAK A2C d   1     -18.395  42.358   2.148  0.00  0.00    -0.385 N 
ATOM     21  H   A2C d   1     -18.802  41.423   2.112  0.00  0.00     0.157 HD
ATOM     22  H   A2C d   1     -18.578  42.964   2.948  0.00  0.00     0.157 HD
BRANCH  19  23
ATOM     23  NAA A2C d   1     -17.091  44.006   1.203  0.00  0.00    -0.385 N 
ATOM     24  H   A2C d   1     -17.273  44.609   2.005  0.00  0.00     0.157 HD
ATOM     25  H   A2C d   1     -16.500  44.336   0.440  0.00  0.00     0.157 HD
ENDBRANCH  19  23
ENDBRANCH  12  19
BRANCH  17  26
ATOM     26  OAO A2C d   1     -16.592  39.553  -3.211  0.00  0.00    -0.360 OA
ATOM     27  H   A2C d   1     -16.269  38.705  -2.899  0.00  0.00     0.217 HD
ENDBRANCH  17  26
ENDBRANCH   7  10
ENDBRANCH   4   7
ENDBRANCH   1   4
BRANCH   1  28
ATOM     28  CAX A2C d   1     -17.858  35.871  -3.371  0.00  0.00     0.104 C 
ATOM     29  H   A2C d   1     -18.580  36.475  -3.920  0.00  0.00     0.078 H 
ATOM     30  H   A2C d   1     -17.924  34.943  -2.804  0.00  0.00     0.078 H 
BRANCH  28  31
ATOM     31  NAY A2C d   1     -16.998  35.346  -4.597  0.00  0.00    -0.070 N 
ATOM     32  H   A2C d   1     -16.415  34.737  -4.023  0.00  0.00     0.277 HD
ATOM     33  H   A2C d   1     -17.094  36.210  -5.131  0.00  0.00     0.277 HD
BRANCH  31  34
ATOM     34  CAZ A2C d   1     -16.911  34.557  -5.700  0.00  0.00     0.108 C 
ATOM     35  H   A2C d   1     -15.880  34.365  -5.996  0.00  0.00     0.083 H 
ATOM     36  H   A2C d   1     -17.318  33.560  -5.533  0.00  0.00     0.083 H 
BRANCH  34  37
ATOM     37  CAR A2C d   1     -17.689  35.337  -6.761  0.00  0.00     0.001 C 
ATOM     38  CAQ A2C d   1     -17.624  36.731  -6.937  0.00  0.00     0.073 C 
ATOM     39  CAF A2C d   1     -18.321  37.338  -7.956  0.00  0.00    -0.050 C 
ATOM     40  CAG A2C d   1     -19.113  36.587  -8.818  0.00  0.00    -0.067 C 
ATOM     41  H   A2C d   1     -18.252  38.418  -8.089  0.00  0.00     0.087 H 
ATOM     42  CAH A2C d   1     -19.196  35.209  -8.646  0.00  0.00     0.008 C 
ATOM     43  H   A2C d   1     -19.664  37.074  -9.622  0.00  0.00     0.085 H 
ATOM     44  CAS A2C d   1     -18.394  34.660  -7.644  0.00  0.00    -0.059 C 
ATOM     45  H   A2C d   1     -18.347  33.572  -7.587  0.00  0.00     0.086 H 
BRANCH  38  46
ATOM     46  OAP A2C d   1     -17.731  37.417  -5.770  0.00  0.00    -0.360 OA
ATOM     47  H   A2C d   1     -17.381  38.303  -5.888  0.00  0.00     0.217 HD
ENDBRANCH  38  46
BRANCH  42  48
ATOM     48  CAI A2C d   1     -19.269  34.530  -9.782  0.00  0.00     0.102 C 
ATOM     49  NAT A2C d   1     -18.901  33.258  -9.656  0.00  0.00    -0.385 N 
ATOM     50  H   A2C d   1     -18.602  32.901  -8.748  0.00  0.00     0.157 HD
ATOM     51  H   A2C d   1     -18.917  32.640 -10.467  0.00  0.00     0.157 HD
BRANCH  48  52
ATOM     52  NAJ A2C d   1     -19.632  35.194 -10.833  0.00  0.00    -0.385 N 
ATOM     53  H   A2C d   1     -19.845  36.189 -10.759  0.00  0.00     0.157 HD
ATOM     54  H   A2C d   1     -19.705  34.722 -11.734  0.00  0.00     0.157 HD
ENDBRANCH  48  52
ENDBRANCH  42  48
ENDBRANCH  34  37
ENDBRANCH  31  34
ENDBRANCH  28  31
ENDBRANCH   1  28
TORSDOF 13
