REMARK  22 active torsions:
REMARK  status: ('A' for Active; 'I' for Inactive)
REMARK    1  A    between atoms: C1'_1  and  NAI_24 
REMARK    2  A    between atoms: C2'_2  and  O2'_3 
REMARK    3  A    between atoms: C3'_4  and  O3'_5 
REMARK    4  A    between atoms: C5'_8  and  C4'_6 
REMARK    5  A    between atoms: O5'_9  and  C5'_8 
REMARK    6  A    between atoms: PAA_12  and  O5'_9 
REMARK    7  A    between atoms: OAW_34  and  PAA_12 
REMARK    8  A    between atoms: CBZ_63  and  CAB_13 
REMARK    9  A    between atoms: PAX_35  and  OAW_34 
REMARK   10  A    between atoms: OBA_38  and  PAX_35 
REMARK   11  A    between atoms: CBB_39  and  OBA_38 
REMARK   12  A    between atoms: CBC_40  and  CBB_39 
REMARK   13  A    between atoms: CBC_40  and  OBD_41 
REMARK   14  A    between atoms: CBE_42  and  CBC_40 
REMARK   15  A    between atoms: CBE_42  and  OBF_43 
REMARK   16  A    between atoms: CBG_44  and  CBE_42 
REMARK   17  A    between atoms: CBG_44  and  OBH_45 
REMARK   18  A    between atoms: CBI_46  and  CBG_44 
REMARK   19  A    between atoms: NBJ_47  and  CBI_46 
REMARK   20  A    between atoms: CBX_61  and  CBY_62 
REMARK   21  A    between atoms: CCB_65  and  OCC_66 
REMARK   22  A    between atoms: CCE_68  and  CCD_67 
ROOT
ATOM      1  CBG 2PF d   1     -29.551  46.241  17.090  0.00  0.00     0.078 C 
ATOM      2  H   2PF d   1     -30.591  46.324  17.406  0.00  0.00     0.089 H 
ENDROOT
BRANCH   1   3
ATOM      3  CBE 2PF d   1     -29.238  44.771  16.799  0.00  0.00     0.088 C 
ATOM      4  H   2PF d   1     -28.208  44.709  16.449  0.00  0.00     0.091 H 
BRANCH   3   5
ATOM      5  CBC 2PF d   1     -29.364  43.906  18.054  0.00  0.00     0.084 C 
ATOM      6  H   2PF d   1     -30.413  43.873  18.347  0.00  0.00     0.090 H 
BRANCH   5   7
ATOM      7  CBB 2PF d   1     -28.882  42.482  17.773  0.00  0.00     0.058 C 
ATOM      8  H   2PF d   1     -29.574  42.012  17.074  0.00  0.00     0.079 H 
ATOM      9  H   2PF d   1     -27.875  42.531  17.358  0.00  0.00     0.079 H 
BRANCH   7  10
ATOM     10  OBA 2PF d   1     -28.844  41.703  18.972  0.00  0.00    -0.287 OA
BRANCH  10  11
ATOM     11  PAX 2PF d   1     -28.202  40.227  18.952  0.00  0.00     0.417 P 
ATOM     12  OAY 2PF d   1     -28.668  39.529  17.734  0.00  0.00    -0.624 OA
ATOM     13  OAZ 2PF d   1     -28.472  39.606  20.269  0.00  0.00    -0.624 OA
BRANCH  11  14
ATOM     14  OAW 2PF d   1     -26.623  40.516  18.820  0.00  0.00    -0.180 OA
BRANCH  14  15
ATOM     15  PAA 2PF d   1     -25.809  41.188  20.036  0.00  0.00     0.417 P 
ATOM     16  OAB 2PF d   1     -26.686  42.172  20.708  0.00  0.00    -0.624 OA
ATOM     17  OAC 2PF d   1     -24.511  41.653  19.499  0.00  0.00    -0.624 OA
BRANCH  15  18
ATOM     18  O5' 2PF d   1     -25.552  39.954  21.037  0.00  0.00    -0.287 OA
BRANCH  18  19
ATOM     19  C5' 2PF d   1     -24.448  39.071  20.829  0.00  0.00     0.058 C 
ATOM     20  H   2PF d   1     -24.785  38.203  20.262  0.00  0.00     0.079 H 
ATOM     21  H   2PF d   1     -23.668  39.596  20.278  0.00  0.00     0.079 H 
BRANCH  19  22
ATOM     22  C4' 2PF d   1     -23.889  38.608  22.175  0.00  0.00     0.089 C 
ATOM     23  C3' 2PF d   1     -23.308  39.826  22.899  0.00  0.00     0.091 C 
ATOM     24  C2' 2PF d   1     -21.840  39.739  22.486  0.00  0.00     0.105 C 
ATOM     25  H   2PF d   1     -23.790  40.774  22.660  0.00  0.00     0.091 H 
ATOM     26  C1' 2PF d   1     -21.682  38.234  22.693  0.00  0.00     0.139 C 
ATOM     27  H   2PF d   1     -21.574  40.141  21.508  0.00  0.00     0.093 H 
ATOM     28  O4' 2PF d   1     -22.786  37.714  21.935  0.00  0.00    -0.353 OA
ATOM     29  H   2PF d   1     -21.681  37.945  23.744  0.00  0.00     0.122 H 
ATOM     30  H   2PF d   1     -24.676  38.126  22.755  0.00  0.00     0.090 H 
BRANCH  23  31
ATOM     31  O3' 2PF d   1     -23.431  39.651  24.313  0.00  0.00    -0.390 OA
ATOM     32  H   2PF d   1     -22.935  40.338  24.764  0.00  0.00     0.210 HD
ENDBRANCH  23  31
BRANCH  24  33
ATOM     33  O2' 2PF d   1     -21.030  40.438  23.435  0.00  0.00    -0.388 OA
ATOM     34  H   2PF d   1     -21.308  40.206  24.324  0.00  0.00     0.210 HD
ENDBRANCH  24  33
BRANCH  26  35
ATOM     35  NAI 2PF d   1     -20.392  37.723  22.176  0.00  0.00    -0.294 N 
ATOM     36  CAJ 2PF d   1     -19.730  36.676  22.659  0.00  0.00     0.167 A 
ATOM     37  NAK 2PF d   1     -19.996  35.813  23.729  0.00  0.00    -0.224 NA
ATOM     38  CAP 2PF d   1     -18.591  36.519  21.880  0.00  0.00     0.149 A 
ATOM     39  CAL 2PF d   1     -19.098  34.693  24.091  0.00  0.00     0.068 A 
ATOM     40  NAM 2PF d   1     -17.934  34.581  23.183  0.00  0.00    -0.334 N 
ATOM     41  H   2PF d   1     -19.274  34.024  24.933  0.00  0.00     0.143 H 
ATOM     42  CAN 2PF d   1     -17.708  35.475  22.128  0.00  0.00     0.154 A 
ATOM     43  H   2PF d   1     -17.269  33.822  23.331  0.00  0.00     0.168 HD
ATOM     44  NAO 2PF d   1     -16.641  35.317  21.351  0.00  0.00    -0.282 NA
ATOM     45  H   2PF d   1     -15.993  34.549  21.525  0.00  0.00     0.188 HD
ATOM     46  NAQ 2PF d   1     -18.607  37.483  20.964  0.00  0.00    -0.236 NA
ATOM     47  CAR 2PF d   1     -19.705  38.213  21.146  0.00  0.00     0.071 A 
ATOM     48  H   2PF d   1     -19.996  39.076  20.547  0.00  0.00     0.144 H 
ENDBRANCH  26  35
ENDBRANCH  19  22
ENDBRANCH  18  19
ENDBRANCH  15  18
ENDBRANCH  14  15
ENDBRANCH  11  14
ENDBRANCH  10  11
ENDBRANCH   7  10
ENDBRANCH   5   7
BRANCH   5  49
ATOM     49  OBD 2PF d   1     -28.591  44.471  19.116  0.00  0.00    -0.391 OA
ATOM     50  H   2PF d   1     -28.895  45.365  19.291  0.00  0.00     0.210 HD
ENDBRANCH   5  49
ENDBRANCH   3   5
BRANCH   3  51
ATOM     51  OBF 2PF d   1     -30.137  44.285  15.799  0.00  0.00    -0.390 OA
ATOM     52  H   2PF d   1     -31.037  44.328  16.131  0.00  0.00     0.210 HD
ENDBRANCH   3  51
ENDBRANCH   1   3
BRANCH   1  53
ATOM     53  OBH 2PF d   1     -28.696  46.719  18.132  0.00  0.00    -0.391 OA
ATOM     54  H   2PF d   1     -28.840  46.199  18.926  0.00  0.00     0.210 HD
ENDBRANCH   1  53
BRANCH   1  55
ATOM     55  CBI 2PF d   1     -29.344  47.084  15.831  0.00  0.00     0.024 C 
ATOM     56  H   2PF d   1     -30.128  46.834  15.116  0.00  0.00     0.068 H 
ATOM     57  H   2PF d   1     -28.353  46.869  15.431  0.00  0.00     0.068 H 
BRANCH  55  58
ATOM     58  NBJ 2PF d   1     -29.425  48.532  16.127  0.00  0.00    -0.353 N 
ATOM     59  CBK 2PF d   1     -30.657  49.172  16.278  0.00  0.00     0.111 C 
ATOM     60  NBL 2PF d   1     -31.851  48.447  16.202  0.00  0.00    -0.319 N 
ATOM     61  CBR 2PF d   1     -30.665  50.702  16.237  0.00  0.00     0.148 C 
ATOM     62  H   2PF d   1     -30.790  49.041  17.352  0.00  0.00     0.111 H 
ATOM     63  CBM 2PF d   1     -33.081  49.078  16.426  0.00  0.00     0.324 C 
ATOM     64  H   2PF d   1     -31.826  47.451  15.982  0.00  0.00     0.166 HD
ATOM     65  OBN 2PF d   1     -34.118  48.420  16.353  0.00  0.00    -0.247 OA
ATOM     66  NBO 2PF d   1     -33.138  50.440  16.746  0.00  0.00    -0.277 N 
ATOM     67  CBP 2PF d   1     -31.982  51.230  16.813  0.00  0.00     0.254 C 
ATOM     68  H   2PF d   1     -34.044  50.868  16.935  0.00  0.00     0.173 HD
ATOM     69  OBQ 2PF d   1     -32.077  52.409  17.148  0.00  0.00    -0.271 OA
ATOM     70  NBS 2PF d   1     -29.496  51.258  16.940  0.00  0.00    -0.232 NA
ATOM     71  CBZ 2PF d   1     -30.422  51.230  14.820  0.00  0.00     0.014 C 
ATOM     72  CBU 2PF d   1     -28.346  50.627  16.699  0.00  0.00     0.041 A 
ATOM     73  CCB 2PF d   1     -29.315  52.618  16.402  0.00  0.00     0.091 C 
ATOM     74  CBT 2PF d   1     -28.268  49.270  16.400  0.00  0.00     0.054 A 
ATOM     75  CBW 2PF d   1     -27.167  51.336  16.908  0.00  0.00    -0.054 A 
ATOM     76  CBV 2PF d   1     -27.032  48.636  16.339  0.00  0.00    -0.049 A 
ATOM     77  CCE 2PF d   1     -25.862  49.348  16.567  0.00  0.00    -0.054 A 
ATOM     78  H   2PF d   1     -26.981  47.572  16.110  0.00  0.00     0.087 H 
ATOM     79  CBX 2PF d   1     -25.929  50.708  16.845  0.00  0.00    -0.054 A 
ATOM     80  H   2PF d   1     -27.215  52.403  17.125  0.00  0.00     0.087 H 
ATOM     81  CCA 2PF d   1     -30.146  52.703  15.120  0.00  0.00    -0.019 C 
ATOM     82  H   2PF d   1     -28.263  52.822  16.203  0.00  0.00     0.108 H 
ATOM     83  H   2PF d   1     -31.053  53.297  15.233  0.00  0.00     0.039 H 
ATOM     84  H   2PF d   1     -29.634  53.220  14.308  0.00  0.00     0.039 H 
ATOM     85  H   2PF d   1     -29.628  50.697  14.297  0.00  0.00     0.052 H 
BRANCH  77  86
ATOM     86  CCD 2PF d   1     -24.636  48.693  16.565  0.00  0.00    -0.051 C 
ATOM     87  H   2PF d   1     -24.633  47.927  17.340  0.00  0.00     0.033 H 
ATOM     88  H   2PF d   1     -24.476  48.228  15.592  0.00  0.00     0.033 H 
ATOM     89  H   2PF d   1     -23.841  49.412  16.761  0.00  0.00     0.033 H 
ENDBRANCH  77  86
BRANCH  79  90
ATOM     90  CBY 2PF d   1     -24.651  51.517  17.074  0.00  0.00    -0.051 C 
ATOM     91  H   2PF d   1     -24.585  52.309  16.328  0.00  0.00     0.033 H 
ATOM     92  H   2PF d   1     -24.675  51.957  18.071  0.00  0.00     0.033 H 
ATOM     93  H   2PF d   1     -23.786  50.860  16.986  0.00  0.00     0.033 H 
ENDBRANCH  79  90
BRANCH  73  94
ATOM     94  OCC 2PF d   1     -29.786  53.582  17.347  0.00  0.00    -0.381 OA
ATOM     95  H   2PF d   1     -30.718  53.431  17.519  0.00  0.00     0.211 HD
ENDBRANCH  73  94
BRANCH  71  96
ATOM     96  CAB 2PF d   1     -31.602  51.049  13.853  0.00  0.00     0.032 A 
ATOM     97  CAA 2PF d   1     -31.556  49.952  12.997  0.00  0.00     0.168 A 
ATOM     98  FAA 2PF d   1     -30.524  49.089  13.089  0.00  0.00    -0.202 F 
ATOM     99  CAC 2PF d   1     -32.544  49.748  12.040  0.00  0.00     0.197 A 
ATOM    100  FAC 2PF d   1     -32.471  48.693  11.201  0.00  0.00    -0.199 F 
ATOM    101  CAE 2PF d   1     -33.600  50.647  11.932  0.00  0.00     0.199 A 
ATOM    102  FAE 2PF d   1     -34.565  50.453  11.009  0.00  0.00    -0.199 F 
ATOM    103  CAF 2PF d   1     -33.654  51.746  12.782  0.00  0.00     0.197 A 
ATOM    104  CAD 2PF d   1     -32.661  51.949  13.737  0.00  0.00     0.168 A 
ATOM    105  FAD 2PF d   1     -34.675  52.623  12.676  0.00  0.00    -0.199 F 
ATOM    106  FAB 2PF d   1     -32.750  53.053  14.507  0.00  0.00    -0.202 F 
ENDBRANCH  71  96
ENDBRANCH  55  58
ENDBRANCH   1  55
TORSDOF 22
