REMARK  26 active torsions:
REMARK  status: ('A' for Active; 'I' for Inactive)
REMARK    1  A    between atoms: C07_8  and  C01_1 
REMARK    2  A    between atoms: O01_2  and  C07_8 
REMARK    3  A    between atoms: CAO_21  and  O01_2 
REMARK    4  A    between atoms: C1'_9  and  NBS_50 
REMARK    5  A    between atoms: C2'_10  and  O2'_11 
REMARK    6  A    between atoms: C3'_12  and  O3'_13 
REMARK    7  A    between atoms: C5'_16  and  C4'_14 
REMARK    8  A    between atoms: O5'_17  and  C5'_16 
REMARK    9  A    between atoms: PCR_71  and  O5'_17 
REMARK   10  A    between atoms: CBL_44  and  CAM_19 
REMARK   11  A    between atoms: CAT_26  and  NBV_53 
REMARK   12  A    between atoms: CAW_29  and  CAX_30 
REMARK   13  A    between atoms: OCK_64  and  CAW_29 
REMARK   14  A    between atoms: CAX_30  and  CAY_31 
REMARK   15  A    between atoms: CAX_30  and  OCL_65 
REMARK   16  A    between atoms: CAY_31  and  CAZ_32 
REMARK   17  A    between atoms: CAY_31  and  OCM_66 
REMARK   18  A    between atoms: CAZ_32  and  CBA_33 
REMARK   19  A    between atoms: CAZ_32  and  OCN_67 
REMARK   20  A    between atoms: CBA_33  and  NBX_55 
REMARK   21  A    between atoms: CBJ_42  and  CBK_43 
REMARK   22  A    between atoms: CBN_46  and  OCQ_70 
REMARK   23  A    between atoms: CBP_48  and  CBO_47 
REMARK   24  A    between atoms: OCH_61  and  PCR_71 
REMARK   25  A    between atoms: PCS_72  and  OCH_61 
REMARK   26  A    between atoms: OCK_64  and  PCS_72 
ROOT
ATOM      1  CBB 12F d   1      30.308  48.898  38.838  0.00  0.00     0.111 C 
ATOM      2  CBC 12F d   1      32.689  48.638  38.359  0.00  0.00     0.324 C 
ATOM      3  CBD 12F d   1      31.745  50.879  38.226  0.00  0.00     0.254 C 
ATOM      4  CBE 12F d   1      30.426  50.423  38.855  0.00  0.00     0.148 C 
ATOM      5  CBF 12F d   1      27.968  49.152  38.325  0.00  0.00     0.054 A 
ATOM      6  CBG 12F d   1      28.117  50.532  38.264  0.00  0.00     0.041 A 
ATOM      7  CBH 12F d   1      26.719  48.579  38.099  0.00  0.00    -0.049 A 
ATOM      8  CBI 12F d   1      26.989  51.312  38.030  0.00  0.00    -0.054 A 
ATOM      9  CBJ 12F d   1      25.735  50.748  37.821  0.00  0.00    -0.054 A 
ATOM     10  CBL 12F d   1      30.292  50.885  40.311  0.00  0.00     0.010 C 
ATOM     11  CBM 12F d   1      30.209  52.395  40.110  0.00  0.00    -0.019 C 
ATOM     12  CBN 12F d   1      29.145  52.392  39.010  0.00  0.00     0.091 C 
ATOM     13  CBP 12F d   1      25.603  49.363  37.832  0.00  0.00    -0.054 A 
ATOM     14  NBX 12F d   1      29.046  48.327  38.670  0.00  0.00    -0.353 N 
ATOM     15  NBY 12F d   1      31.437  48.091  38.662  0.00  0.00    -0.319 N 
ATOM     16  NBZ 12F d   1      32.840  50.011  38.135  0.00  0.00    -0.277 N 
ATOM     17  NCA 12F d   1      29.302  51.145  38.237  0.00  0.00    -0.232 NA
ATOM     18  OCO 12F d   1      33.666  47.897  38.281  0.00  0.00    -0.247 OA
ATOM     19  OCP 12F d   1      31.911  52.067  37.957  0.00  0.00    -0.271 OA
ATOM     20  H   12F d   1      30.401  48.848  39.923  0.00  0.00     0.111 H 
ATOM     21  H   12F d   1      26.615  47.495  38.132  0.00  0.00     0.087 H 
ATOM     22  H   12F d   1      27.091  52.397  38.010  0.00  0.00     0.087 H 
ATOM     23  H   12F d   1      29.436  50.435  40.813  0.00  0.00     0.051 H 
ATOM     24  H   12F d   1      31.146  52.892  39.861  0.00  0.00     0.039 H 
ATOM     25  H   12F d   1      29.970  52.979  40.999  0.00  0.00     0.039 H 
ATOM     26  H   12F d   1      28.149  52.462  39.447  0.00  0.00     0.108 H 
ATOM     27  H   12F d   1      31.346  47.080  38.757  0.00  0.00     0.166 HD
ATOM     28  H   12F d   1      33.760  50.385  37.902  0.00  0.00     0.173 HD
ENDROOT
BRANCH  14  29
ATOM     29  CBA 12F d   1      28.876  46.857  38.728  0.00  0.00     0.024 C 
ATOM     30  H   12F d   1      29.480  46.508  39.566  0.00  0.00     0.068 H 
ATOM     31  H   12F d   1      27.805  46.672  38.812  0.00  0.00     0.068 H 
BRANCH  29  32
ATOM     32  CAZ 12F d   1      29.356  46.089  37.495  0.00  0.00     0.078 C 
ATOM     33  H   12F d   1      30.429  46.207  37.345  0.00  0.00     0.089 H 
BRANCH  32  34
ATOM     34  CAY 12F d   1      29.004  44.616  37.721  0.00  0.00     0.088 C 
ATOM     35  H   12F d   1      27.923  44.581  37.859  0.00  0.00     0.091 H 
BRANCH  34  36
ATOM     36  CAX 12F d   1      29.305  43.698  36.534  0.00  0.00     0.084 C 
ATOM     37  H   12F d   1      30.383  43.652  36.378  0.00  0.00     0.090 H 
BRANCH  36  38
ATOM     38  CAW 12F d   1      28.746  42.307  36.843  0.00  0.00     0.058 C 
ATOM     39  H   12F d   1      27.711  42.414  37.167  0.00  0.00     0.079 H 
ATOM     40  H   12F d   1      29.361  41.852  37.619  0.00  0.00     0.079 H 
BRANCH  38  41
ATOM     41  OCK 12F d   1      28.775  41.465  35.690  0.00  0.00    -0.287 OA
BRANCH  41  42
ATOM     42  PCS 12F d   1      28.048  40.029  35.722  0.00  0.00     0.417 P 
ATOM     43  OCI 12F d   1      28.400  39.347  36.985  0.00  0.00    -0.624 OA
ATOM     44  OCJ 12F d   1      28.354  39.344  34.446  0.00  0.00    -0.624 OA
BRANCH  42  45
ATOM     45  OCH 12F d   1      26.477  40.373  35.772  0.00  0.00    -0.180 OA
BRANCH  45  46
ATOM     46  PCR 12F d   1      25.741  41.060  34.520  0.00  0.00     0.417 P 
ATOM     47  OCF 12F d   1      26.692  42.012  33.904  0.00  0.00    -0.624 OA
ATOM     48  OCG 12F d   1      24.440  41.567  35.005  0.00  0.00    -0.624 OA
BRANCH  46  49
ATOM     49  O5' 12F d   1      25.472  39.825  33.526  0.00  0.00    -0.287 OA
BRANCH  49  50
ATOM     50  C5' 12F d   1      24.359  38.964  33.775  0.00  0.00     0.058 C 
ATOM     51  H   12F d   1      24.730  38.032  34.202  0.00  0.00     0.079 H 
ATOM     52  H   12F d   1      23.676  39.469  34.459  0.00  0.00     0.079 H 
BRANCH  50  53
ATOM     53  C4' 12F d   1      23.605  38.642  32.484  0.00  0.00     0.089 C 
ATOM     54  C3' 12F d   1      22.981  39.906  31.882  0.00  0.00     0.091 C 
ATOM     55  C2' 12F d   1      21.483  39.668  32.078  0.00  0.00     0.105 C 
ATOM     56  H   12F d   1      23.339  40.829  32.337  0.00  0.00     0.091 H 
ATOM     57  C1' 12F d   1      21.461  38.150  31.908  0.00  0.00     0.139 C 
ATOM     58  H   12F d   1      21.062  40.059  33.004  0.00  0.00     0.093 H 
ATOM     59  O4' 12F d   1      22.516  37.755  32.796  0.00  0.00    -0.353 OA
ATOM     60  H   12F d   1      21.586  37.816  30.878  0.00  0.00     0.122 H 
ATOM     61  H   12F d   1      24.311  38.201  31.780  0.00  0.00     0.090 H 
BRANCH  54  62
ATOM     62  O3' 12F d   1      23.290  39.993  30.488  0.00  0.00    -0.390 OA
ATOM     63  H   12F d   1      23.043  39.173  30.055  0.00  0.00     0.210 HD
ENDBRANCH  54  62
BRANCH  55  64
ATOM     64  O2' 12F d   1      20.740  40.274  31.017  0.00  0.00    -0.388 OA
ATOM     65  H   12F d   1      21.137  40.039  30.175  0.00  0.00     0.210 HD
ENDBRANCH  55  64
BRANCH  57  66
ATOM     66  NBS 12F d   1      20.168  37.578  32.343  0.00  0.00    -0.295 N 
ATOM     67  CAR 12F d   1      19.602  36.487  31.835  0.00  0.00     0.145 A 
ATOM     68  CAU 12F d   1      18.429  36.272  32.547  0.00  0.00     0.149 A 
ATOM     69  NBT 12F d   1      19.993  35.626  30.803  0.00  0.00    -0.335 N 
ATOM     70  CAT 12F d   1      17.635  35.166  32.263  0.00  0.00     0.176 A 
ATOM     71  NBW 12F d   1      18.328  37.240  33.453  0.00  0.00    -0.236 NA
ATOM     72  NBU 12F d   1      17.983  34.274  31.241  0.00  0.00    -0.223 NA
ATOM     73  CAS 12F d   1      19.188  34.451  30.400  0.00  0.00     0.068 A 
ATOM     74  H   12F d   1      19.453  33.789  29.575  0.00  0.00     0.143 H 
ATOM     75  CAV 12F d   1      19.389  38.034  33.323  0.00  0.00     0.070 A 
ATOM     76  H   12F d   1      19.589  38.920  33.925  0.00  0.00     0.144 H 
ATOM     77  H   12F d   1      20.866  35.815  30.310  0.00  0.00     0.168 HD
BRANCH  70  78
ATOM     78  NBV 12F d   1      16.539  34.953  32.986  0.00  0.00    -0.280 NA
ATOM     79  H   12F d   1      16.291  35.597  33.737  0.00  0.00     0.188 HD
ENDBRANCH  70  78
ENDBRANCH  57  66
ENDBRANCH  50  53
ENDBRANCH  49  50
ENDBRANCH  46  49
ENDBRANCH  45  46
ENDBRANCH  42  45
ENDBRANCH  41  42
ENDBRANCH  38  41
ENDBRANCH  36  38
BRANCH  36  80
ATOM     80  OCL 12F d   1      28.697  44.201  35.340  0.00  0.00    -0.391 OA
ATOM     81  H   12F d   1      29.042  45.077  35.151  0.00  0.00     0.210 HD
ENDBRANCH  36  80
ENDBRANCH  34  36
BRANCH  34  82
ATOM     82  OCM 12F d   1      29.703  44.141  38.874  0.00  0.00    -0.390 OA
ATOM     83  H   12F d   1      30.648  44.230  38.733  0.00  0.00     0.210 HD
ENDBRANCH  34  82
ENDBRANCH  32  34
BRANCH  32  84
ATOM     84  OCN 12F d   1      28.688  46.588  36.333  0.00  0.00    -0.391 OA
ATOM     85  H   12F d   1      28.990  46.106  35.560  0.00  0.00     0.210 HD
ENDBRANCH  32  84
ENDBRANCH  29  32
ENDBRANCH  14  29
BRANCH  10  86
ATOM     86  CAM 12F d   1      31.332  50.402  41.330  0.00  0.00    -0.015 A 
ATOM     87  CAL 12F d   1      30.912  49.423  42.226  0.00  0.00    -0.073 A 
ATOM     88  CAN 12F d   1      31.777  48.885  43.173  0.00  0.00    -0.079 A 
ATOM     89  H   12F d   1      29.882  49.070  42.184  0.00  0.00     0.084 H 
ATOM     90  CAP 12F d   1      33.090  49.334  43.227  0.00  0.00    -0.043 A 
ATOM     91  H   12F d   1      31.428  48.119  43.865  0.00  0.00     0.083 H 
ATOM     92  CAQ 12F d   1      33.519  50.314  42.338  0.00  0.00     0.150 A 
ATOM     93  H   12F d   1      33.781  48.921  43.962  0.00  0.00     0.088 H 
ATOM     94  CAO 12F d   1      32.650  50.857  41.391  0.00  0.00     0.114 A 
ATOM     95  FBR 12F d   1      34.823  50.654  42.365  0.00  0.00    -0.203 F 
BRANCH  94  96
ATOM     96  O01 12F d   1      33.115  51.716  40.443  0.00  0.00    -0.343 OA
BRANCH  96  97
ATOM     97  C07 12F d   1      33.652  52.909  40.827  0.00  0.00     0.050 C 
ATOM     98  H   12F d   1      34.703  52.780  40.570  0.00  0.00     0.082 H 
ATOM     99  H   12F d   1      32.972  53.625  40.366  0.00  0.00     0.082 H 
BRANCH  97 100
ATOM    100  C01 12F d   1      33.733  53.423  42.267  0.00  0.00    -0.034 A 
ATOM    101  C02 12F d   1      32.579  53.588  43.027  0.00  0.00    -0.075 A 
ATOM    102  C03 12F d   1      32.681  54.012  44.347  0.00  0.00    -0.082 A 
ATOM    103  H   12F d   1      31.601  53.386  42.590  0.00  0.00     0.084 H 
ATOM    104  C04 12F d   1      33.927  54.270  44.911  0.00  0.00    -0.083 A 
ATOM    105  H   12F d   1      31.779  54.143  44.944  0.00  0.00     0.083 H 
ATOM    106  C05 12F d   1      35.077  54.104  44.149  0.00  0.00    -0.082 A 
ATOM    107  H   12F d   1      34.000  54.601  45.947  0.00  0.00     0.083 H 
ATOM    108  C06 12F d   1      34.978  53.684  42.826  0.00  0.00    -0.075 A 
ATOM    109  H   12F d   1      36.055  54.303  44.587  0.00  0.00     0.083 H 
ATOM    110  H   12F d   1      35.880  53.559  42.227  0.00  0.00     0.084 H 
ENDBRANCH  97 100
ENDBRANCH  96  97
ENDBRANCH  94  96
ENDBRANCH  10  86
BRANCH  13 111
ATOM    111  CBO 12F d   1      24.398  48.745  37.511  0.00  0.00    -0.051 C 
ATOM    112  H   12F d   1      24.528  48.143  36.612  0.00  0.00     0.033 H 
ATOM    113  H   12F d   1      24.088  48.105  38.337  0.00  0.00     0.033 H 
ATOM    114  H   12F d   1      23.637  49.505  37.334  0.00  0.00     0.033 H 
ENDBRANCH  13 111
BRANCH  12 115
ATOM    115  OCQ 12F d   1      29.358  53.503  38.135  0.00  0.00    -0.381 OA
ATOM    116  H   12F d   1      30.244  53.455  37.769  0.00  0.00     0.211 HD
ENDBRANCH  12 115
BRANCH   9 117
ATOM    117  CBK 12F d   1      24.530  51.671  37.622  0.00  0.00    -0.051 C 
ATOM    118  H   12F d   1      24.405  52.298  38.505  0.00  0.00     0.033 H 
ATOM    119  H   12F d   1      24.697  52.300  36.748  0.00  0.00     0.033 H 
ATOM    120  H   12F d   1      23.634  51.069  37.472  0.00  0.00     0.033 H 
ENDBRANCH   9 117
TORSDOF 26
