REMARK  6 active torsions:
REMARK  status: ('A' for Active; 'I' for Inactive)
REMARK    1  A    between atoms: C3_4  and  O_21 
REMARK    2  A    between atoms: O_21  and  C6_7 
REMARK    3  A    between atoms: C7_8  and  C17_18 
REMARK    4  A    between atoms: C8_9  and  C16_17 
REMARK    5  A    between atoms: C9_10  and  C10_11 
REMARK       I    between atoms: C9_10  and  N_20 
REMARK    6  A    between atoms: C17_18  and  C18_19 
ROOT
ATOM      1  C   IMN d   1      17.270  67.678   9.122  0.00  0.00     0.053 A 
ATOM      2  C1  IMN d   1      16.216  67.075   9.887  0.00  0.00     0.003 A 
ATOM      3  C2  IMN d   1      16.501  65.950  10.725  0.00  0.00    -0.038 A 
ATOM      4  C3  IMN d   1      17.817  65.433  10.795  0.00  0.00     0.069 A 
ATOM      5  C4  IMN d   1      18.854  66.030  10.038  0.00  0.00    -0.049 A 
ATOM      6  C5  IMN d   1      18.588  67.138   9.212  0.00  0.00    -0.053 A 
ATOM      7  C7  IMN d   1      14.989  67.843   9.579  0.00  0.00    -0.013 A 
ATOM      8  C8  IMN d   1      15.327  68.810   8.697  0.00  0.00     0.024 A 
ATOM      9  C9  IMN d   1      17.431  69.561   7.525  0.00  0.00     0.263 C 
ATOM     10  N   IMN d   1      16.709  68.743   8.399  0.00  0.00    -0.281 N 
ATOM     11  O1  IMN d   1      17.975  69.014   6.577  0.00  0.00    -0.267 OA
ATOM     12  H   IMN d   1      15.704  65.491  11.310  0.00  0.00     0.089 H 
ATOM     13  H   IMN d   1      19.866  65.629  10.095  0.00  0.00     0.087 H 
ATOM     14  H   IMN d   1      19.396  67.588   8.636  0.00  0.00     0.087 H 
ENDROOT
BRANCH   8  15
ATOM     15  C16 IMN d   1      14.329  69.808   8.125  0.00  0.00    -0.036 C 
ATOM     16  H   IMN d   1      13.547  69.271   7.589  0.00  0.00     0.035 H 
ATOM     17  H   IMN d   1      13.885  70.383   8.938  0.00  0.00     0.035 H 
ATOM     18  H   IMN d   1      14.843  70.482   7.440  0.00  0.00     0.035 H 
ENDBRANCH   8  15
BRANCH   9  19
ATOM     19  C10 IMN d   1      17.591  71.068   7.652  0.00  0.00     0.033 A 
ATOM     20  C11 IMN d   1      18.358  71.770   6.659  0.00  0.00    -0.066 A 
ATOM     21  C12 IMN d   1      18.519  73.165   6.734  0.00  0.00    -0.061 A 
ATOM     22  H   IMN d   1      18.819  71.216   5.841  0.00  0.00     0.085 H 
ATOM     23  C13 IMN d   1      17.927  73.890   7.788  0.00  0.00     0.034 A 
ATOM     24  H   IMN d   1      19.103  73.687   5.976  0.00  0.00     0.086 H 
ATOM     25  C14 IMN d   1      17.173  73.220   8.778  0.00  0.00    -0.061 A 
ATOM     26 CL   IMN d   1      18.124  75.611   7.872  0.00  0.00    -0.084 Cl
ATOM     27  C15 IMN d   1      17.002  71.821   8.718  0.00  0.00    -0.066 A 
ATOM     28  H   IMN d   1      16.721  73.787   9.592  0.00  0.00     0.086 H 
ATOM     29  H   IMN d   1      16.420  71.311   9.486  0.00  0.00     0.085 H 
ENDBRANCH   9  19
BRANCH   7  30
ATOM     30  C17 IMN d   1      13.578  67.610  10.131  0.00  0.00     0.042 C 
ATOM     31  H   IMN d   1      12.935  68.394   9.730  0.00  0.00     0.056 H 
ATOM     32  H   IMN d   1      13.646  67.618  11.219  0.00  0.00     0.056 H 
BRANCH  30  33
ATOM     33  C18 IMN d   1      12.979  66.272   9.720  0.00  0.00     0.177 C 
ATOM     34  O2  IMN d   1      13.594  65.491   9.030  0.00  0.00    -0.648 OA
ATOM     35  O3  IMN d   1      11.743  65.950  10.131  0.00  0.00    -0.648 OA
ENDBRANCH  30  33
ENDBRANCH   7  30
BRANCH   4  36
ATOM     36  O   IMN d   1      18.088  64.357  11.594  0.00  0.00    -0.356 OA
BRANCH  36  37
ATOM     37  C6  IMN d   1      17.761  63.002  11.270  0.00  0.00     0.010 C 
ATOM     38  H   IMN d   1      16.683  62.911  11.140  0.00  0.00     0.066 H 
ATOM     39  H   IMN d   1      18.265  62.719  10.346  0.00  0.00     0.066 H 
ATOM     40  H   IMN d   1      18.088  62.347  12.078  0.00  0.00     0.066 H 
ENDBRANCH  36  37
ENDBRANCH   4  36
TORSDOF 6
