REMARK  3 active torsions:
REMARK  status: ('A' for Active; 'I' for Inactive)
REMARK    1  A    between atoms: CAK_11  and  OAC_3 
REMARK    2  A    between atoms: CAH_8  and  CAJ_10 
REMARK    3  A    between atoms: CAL_12  and  CAH_8 
ROOT
ATOM      1  CAD HID d   1      17.163  62.849  13.765  0.00  0.00    -0.049 A 
ATOM      2  CAE HID d   1      18.594  62.908  13.681  0.00  0.00    -0.054 A 
ATOM      3  CAF HID d   1      20.795  64.458  16.052  0.00  0.00    -0.015 A 
ATOM      4  CAG HID d   1      17.202  64.107  15.921  0.00  0.00    -0.038 A 
ATOM      5  NAI HID d   1      20.608  63.778  14.916  0.00  0.00    -0.365 N 
ATOM      6  CAK HID d   1      16.479  63.445  14.878  0.00  0.00     0.066 A 
ATOM      7  CAL HID d   1      19.622  64.720  16.653  0.00  0.00    -0.020 A 
ATOM      8  CAM HID d   1      19.304  63.573  14.732  0.00  0.00     0.043 A 
ATOM      9  CAN HID d   1      18.630  64.172  15.846  0.00  0.00     0.001 A 
ATOM     10  H   HID d   1      16.593  62.350  12.981  0.00  0.00     0.087 H 
ATOM     11  H   HID d   1      19.125  62.460  12.841  0.00  0.00     0.087 H 
ATOM     12  H   HID d   1      21.768  64.759  16.439  0.00  0.00     0.112 H 
ATOM     13  H   HID d   1      16.672  64.556  16.761  0.00  0.00     0.089 H 
ATOM     14  H   HID d   1      21.348  63.465  14.288  0.00  0.00     0.165 HD
ENDROOT
BRANCH   7  15
ATOM     15  CAH HID d   1      19.367  65.481  17.980  0.00  0.00     0.042 C 
ATOM     16  H   HID d   1      20.335  65.916  18.228  0.00  0.00     0.056 H 
ATOM     17  H   HID d   1      18.510  66.118  17.761  0.00  0.00     0.056 H 
BRANCH  15  18
ATOM     18  CAJ HID d   1      18.955  64.719  19.263  0.00  0.00     0.177 C 
ATOM     19  OAA HID d   1      18.476  65.418  20.175  0.00  0.00    -0.648 OA
ATOM     20  OAB HID d   1      19.106  63.478  19.336  0.00  0.00    -0.648 OA
ENDBRANCH  15  18
ENDBRANCH   7  15
BRANCH   6  21
ATOM     21  OAC HID d   1      15.118  63.375  14.938  0.00  0.00    -0.361 OA
ATOM     22  H   HID d   1      14.811  63.815  15.734  0.00  0.00     0.217 HD
ENDBRANCH   6  21
TORSDOF 3
