REMARK  4 active torsions:
REMARK  status: ('A' for Active; 'I' for Inactive)
REMARK    1  A    between atoms: OAJ_10  and  CAA_1 
REMARK    2  A    between atoms: CAH_8  and  CAK_11 
REMARK    3  A    between atoms: CAM_13  and  CAH_8 
REMARK    4  A    between atoms: OAJ_10  and  CAL_12 
ROOT
ATOM      1  CAD MYI d   1      17.460  64.336  12.688  0.00  0.00    -0.049 A 
ATOM      2  CAE MYI d   1      16.923  64.343  14.006  0.00  0.00    -0.054 A 
ATOM      3  CAF MYI d   1      13.695  63.202  15.026  0.00  0.00    -0.015 A 
ATOM      4  CAG MYI d   1      15.355  63.331  11.802  0.00  0.00    -0.038 A 
ATOM      5  NAI MYI d   1      14.875  63.732  15.323  0.00  0.00    -0.365 N 
ATOM      6  CAL MYI d   1      16.700  63.839  11.575  0.00  0.00     0.069 A 
ATOM      7  CAM MYI d   1      13.594  62.936  13.716  0.00  0.00    -0.020 A 
ATOM      8  CAN MYI d   1      15.604  63.842  14.223  0.00  0.00     0.043 A 
ATOM      9  CAO MYI d   1      14.814  63.336  13.140  0.00  0.00     0.001 A 
ATOM     10  H   MYI d   1      18.468  64.715  12.520  0.00  0.00     0.087 H 
ATOM     11  H   MYI d   1      17.512  64.726  14.839  0.00  0.00     0.087 H 
ATOM     12  H   MYI d   1      12.908  63.008  15.755  0.00  0.00     0.112 H 
ATOM     13  H   MYI d   1      14.762  62.951  10.970  0.00  0.00     0.089 H 
ATOM     14  H   MYI d   1      15.175  64.012  16.257  0.00  0.00     0.165 HD
ENDROOT
BRANCH   7  15
ATOM     15  CAH MYI d   1      12.384  62.319  12.970  0.00  0.00     0.042 C 
ATOM     16  H   MYI d   1      11.637  63.110  12.901  0.00  0.00     0.056 H 
ATOM     17  H   MYI d   1      12.775  61.935  12.028  0.00  0.00     0.056 H 
BRANCH  15  18
ATOM     18  CAK MYI d   1      11.675  61.114  13.667  0.00  0.00     0.177 C 
ATOM     19  OAB MYI d   1      10.715  60.595  13.051  0.00  0.00    -0.648 OA
ATOM     20  OAC MYI d   1      12.095  60.734  14.786  0.00  0.00    -0.648 OA
ENDBRANCH  15  18
ENDBRANCH   7  15
BRANCH   6  21
ATOM     21  OAJ MYI d   1      17.326  63.881  10.345  0.00  0.00    -0.356 OA
BRANCH  21  22
ATOM     22  CAA MYI d   1      17.675  65.143   9.708  0.00  0.00     0.010 C 
ATOM     23  H   MYI d   1      16.770  65.729   9.546  0.00  0.00     0.066 H 
ATOM     24  H   MYI d   1      18.358  65.697  10.352  0.00  0.00     0.066 H 
ATOM     25  H   MYI d   1      18.157  64.944   8.751  0.00  0.00     0.066 H 
ENDBRANCH  21  22
ENDBRANCH   6  21
TORSDOF 4
