REMARK  18 active torsions:
REMARK  status: ('A' for Active; 'I' for Inactive)
REMARK    1  A    between atoms: O3_17  and  C1_1 
REMARK    2  A    between atoms: C2_2  and  O2_7 
REMARK    3  A    between atoms: C3_3  and  O3_8 
REMARK    4  A    between atoms: C4_4  and  O4_9 
REMARK    5  A    between atoms: C5_5  and  C6_6 
REMARK    6  A    between atoms: C6_6  and  O6_11 
REMARK    7  A    between atoms: OG1_31  and  C1_13 
REMARK    8  A    between atoms: C2_14  and  N2_15 
REMARK    9  A    between atoms: C3_16  and  O3_17 
REMARK   10  A    between atoms: C4_18  and  O4_19 
REMARK   11  A    between atoms: C5_20  and  C6_21 
REMARK   12  A    between atoms: C6_21  and  O6_22 
REMARK   13  A    between atoms: C7_23  and  C8_25 
REMARK   14  A    between atoms: CA_27  and  N_26 
REMARK   15  A    between atoms: CA_27  and  C_28 
REMARK   16  A    between atoms: CB_30  and  CA_27 
REMARK   17  A    between atoms: CB_30  and  OG1_31 
REMARK   18  A    between atoms: CB_30  and  CG2_32 
ROOT
ATOM      1  H12 GAL d   1      11.091   2.799 -23.368  0.00  0.00     0.132 H 
ATOM      2  H13 GAL d   1      10.754   3.898 -21.240  0.00  0.00     0.084 H 
ATOM      3  H15 GAL d   1      13.544   5.136 -21.541  0.00  0.00     0.091 H 
ATOM      4  H16 GAL d   1      14.338   3.656 -19.816  0.00  0.00     0.091 H 
ATOM      5  H18 GAL d   1      14.470   2.804 -22.129  0.00  0.00     0.090 H 
ATOM      6  O   A2G d   1      12.553   1.997 -22.145  0.00  0.00    -0.349 OA
ATOM      7  C1  A2G d   1      11.995   3.127 -22.834  0.00  0.00     0.154 C 
ATOM      8  C2  A2G d   1      11.604   4.233 -21.852  0.00  0.00     0.086 C 
ATOM      9  C3  A2G d   1      12.777   4.615 -20.949  0.00  0.00     0.092 C 
ATOM     10  C4  A2G d   1      13.411   3.367 -20.332  0.00  0.00     0.089 C 
ATOM     11  C5  A2G d   1      13.747   2.357 -21.431  0.00  0.00     0.089 C 
ENDROOT
BRANCH   9  12
ATOM     12  O3  A2G d   1      12.253   5.514 -19.963  0.00  0.00    -0.348 OA
BRANCH  12  13
ATOM     13  C1  GAL d   1      13.264   6.285 -19.299  0.00  0.00     0.159 C 
ATOM     14  C2  GAL d   1      12.576   7.605 -18.945  0.00  0.00     0.110 C 
ATOM     15  C3  GAL d   1      13.427   8.465 -18.010  0.00  0.00     0.092 C 
ATOM     16  H2  GAL d   1      11.635   7.370 -18.426  0.00  0.00     0.094 H 
ATOM     17  C4  GAL d   1      13.837   7.620 -16.803  0.00  0.00     0.090 C 
ATOM     18  H3  GAL d   1      14.324   8.817 -18.540  0.00  0.00     0.091 H 
ATOM     19  C5  GAL d   1      14.558   6.367 -17.305  0.00  0.00     0.089 C 
ATOM     20  H4  GAL d   1      14.503   8.200 -16.148  0.00  0.00     0.091 H 
ATOM     21  O5  GAL d   1      13.665   5.583 -18.111  0.00  0.00    -0.348 OA
ATOM     22  H5  GAL d   1      15.421   6.671 -17.916  0.00  0.00     0.090 H 
ATOM     23  H1  GAL d   1      14.133   6.456 -19.951  0.00  0.00     0.133 H 
BRANCH  14  24
ATOM     24  O2  GAL d   1      12.263   8.326 -20.140  0.00  0.00    -0.388 OA
ATOM     25  H8  GAL d   1      11.779   9.112 -19.916  0.00  0.00     0.210 HD
ENDBRANCH  14  24
BRANCH  15  26
ATOM     26  O3  GAL d   1      12.655   9.586 -17.572  0.00  0.00    -0.390 OA
ATOM     27  H9  GAL d   1      11.877   9.277 -17.123  0.00  0.00     0.210 HD
ENDBRANCH  15  26
BRANCH  17  28
ATOM     28  O4  GAL d   1      12.665   7.230 -16.082  0.00  0.00    -0.390 OA
ATOM     29  H10 GAL d   1      12.915   6.687 -15.343  0.00  0.00     0.210 HD
ENDBRANCH  17  28
BRANCH  19  30
ATOM     30  C6  GAL d   1      15.053   5.534 -16.122  0.00  0.00     0.043 C 
ATOM     31  H6  GAL d   1      14.193   5.192 -15.528  0.00  0.00     0.078 H 
ATOM     32  H7  GAL d   1      15.714   6.147 -15.492  0.00  0.00     0.078 H 
BRANCH  30  33
ATOM     33  O6  GAL d   1      15.776   4.401 -16.611  0.00  0.00    -0.398 OA
ATOM     34  H11 GAL d   1      15.204   3.873 -17.155  0.00  0.00     0.209 HD
ENDBRANCH  30  33
ENDBRANCH  19  30
ENDBRANCH  12  13
ENDBRANCH   9  12
BRANCH   8  35
ATOM     35  N2  A2G d   1      11.245   5.437 -22.616  0.00  0.00    -0.360 N 
ATOM     36  C7  A2G d   1       9.990   5.849 -22.775  0.00  0.00     0.147 C 
ATOM     37  O7  A2G d   1       8.963   5.147 -22.226  0.00  0.00    -0.178 OA
ATOM     38  H14 GAL d   1      11.979   5.971 -23.036  0.00  0.00     0.162 HD
BRANCH  36  39
ATOM     39  C8  A2G d   1       9.731   7.016 -23.485  0.00  0.00    -0.015 C 
ATOM     40  H22 GAL d   1       8.646   7.196 -23.512  0.00  0.00     0.038 H 
ATOM     41  H23 GAL d   1      10.111   6.912 -24.512  0.00  0.00     0.038 H 
ATOM     42  H24 GAL d   1      10.231   7.863 -22.993  0.00  0.00     0.038 H 
ENDBRANCH  36  39
ENDBRANCH   8  35
BRANCH  10  43
ATOM     43  O4  A2G d   1      12.519   2.772 -19.385  0.00  0.00    -0.390 OA
ATOM     44  H17 GAL d   1      12.926   1.999 -19.011  0.00  0.00     0.210 HD
ENDBRANCH  10  43
BRANCH   7  45
ATOM     45  OG1 THR d   1      12.937   3.631 -23.791  0.00  0.00    -0.352 OA
BRANCH  45  46
ATOM     46  CB  THR d   1      12.950   2.769 -24.938  0.00  0.00     0.075 C 
ATOM     47  H29 GAL d   1      12.187   1.987 -24.813  0.00  0.00     0.086 H 
BRANCH  46  48
ATOM     48  CA  THR d   1      12.628   3.592 -26.188  0.00  0.00     0.206 C 
ATOM     49  H28 GAL d   1      12.704   2.953 -27.080  0.00  0.00     0.105 H 
BRANCH  48  50
ATOM     50  N   THR d   1      13.582   4.705 -26.294  0.00  0.00    -0.063 N 
ATOM     51  H25 GAL d   1      13.373   5.249 -27.116  0.00  0.00     0.275 HD
ATOM     52  H26 GAL d   1      14.519   4.339 -26.362  0.00  0.00     0.275 HD
ATOM     53  H27 GAL d   1      13.508   5.290 -25.476  0.00  0.00     0.275 HD
ENDBRANCH  48  50
BRANCH  48  54
ATOM     54  C   THR d   1      11.209   4.153 -26.079  0.00  0.00     0.207 C 
ATOM     55  O   THR d   1      11.085   5.396 -26.113  0.00  0.00    -0.646 OA
ATOM     56  OXT THR d   1      10.278   3.326 -25.965  0.00  0.00    -0.646 OA
ENDBRANCH  48  54
ENDBRANCH  46  48
BRANCH  46  57
ATOM     57  CG2 THR d   1      14.322   2.109 -25.080  0.00  0.00    -0.050 C 
ATOM     58  H30 GAL d   1      14.541   1.521 -24.176  0.00  0.00     0.031 H 
ATOM     59  H31 GAL d   1      15.091   2.885 -25.208  0.00  0.00     0.031 H 
ATOM     60  H32 GAL d   1      14.321   1.446 -25.957  0.00  0.00     0.031 H 
ENDBRANCH  46  57
ENDBRANCH  45  46
ENDBRANCH   7  45
BRANCH  11  61
ATOM     61  C6  A2G d   1      14.353   1.101 -20.801  0.00  0.00     0.043 C 
ATOM     62  H19 GAL d   1      13.618   0.637 -20.127  0.00  0.00     0.078 H 
ATOM     63  H20 GAL d   1      15.253   1.373 -20.230  0.00  0.00     0.078 H 
BRANCH  61  64
ATOM     64  O6  A2G d   1      14.704   0.177 -21.835  0.00  0.00    -0.398 OA
ATOM     65  H21 GAL d   1      13.926  -0.057 -22.327  0.00  0.00     0.209 HD
ENDBRANCH  61  64
ENDBRANCH  11  61
TORSDOF 18
