REMARK WARNING: 32 MAX_TORS EXCEEDED!!!
REMARK  44 active torsions:
REMARK  status: ('A' for Active; 'I' for Inactive)
REMARK    1  A    between atoms: N6_7  and  C6_6 
REMARK       I    between atoms: CCX_25  and  NDM_15 
REMARK    2  A    between atoms: CAY_19  and  CAX_18 
REMARK    3  A    between atoms: CAX_18  and  CAZ_20 
REMARK    4  A    between atoms: CBA_21  and  CAY_19 
REMARK    5  A    between atoms: CAZ_20  and  CBN_22 
REMARK    6  A    between atoms: CBO_23  and  CBA_21 
REMARK    7  A    between atoms: CBN_22  and  CCW_24 
REMARK    8  A    between atoms: CBO_23  and  CCX_25 
REMARK       I    between atoms: CCW_24  and  NCI_26 
REMARK    9  A    between atoms: NCI_26  and  CDH_27 
REMARK   10  A    between atoms: CDH_27  and  CBQ_28 
REMARK   11  A    between atoms: CDH_27  and  CCY_35 
REMARK   12  A    between atoms: CBQ_28  and  CBC_29 
REMARK   13  A    between atoms: CBC_29  and  CBI_30 
REMARK   14  A    between atoms: CBI_30  and  NCD_31 
REMARK       I    between atoms: NCD_31  and  CCQ_32 
REMARK       I    between atoms: CCQ_32  and  NAB_33 
REMARK       I    between atoms: CCQ_32  and  NAH_34 
REMARK       I    between atoms: CCY_35  and  NCK_37 
REMARK   15  A    between atoms: NCK_37  and  CDJ_38 
REMARK   16  A    between atoms: CDJ_38  and  CBS_39 
REMARK   17  A    between atoms: CDJ_38  and  CDB_46 
REMARK   18  A    between atoms: CBS_39  and  CBE_40 
REMARK   19  A    between atoms: CBE_40  and  CBK_41 
REMARK   20  A    between atoms: CBK_41  and  NCF_42 
REMARK       I    between atoms: NCF_42  and  CCS_43 
REMARK       I    between atoms: CCS_43  and  NAD_44 
REMARK       I    between atoms: CCS_43  and  NAJ_45 
REMARK       I    between atoms: CDB_46  and  NCM_48 
REMARK   21  A    between atoms: NCM_48  and  CDL_49 
REMARK   22  A    between atoms: CDL_49  and  CBU_50 
REMARK   23  A    between atoms: CDL_49  and  CDC_57 
REMARK   24  A    between atoms: CBU_50  and  CBG_51 
REMARK   25  A    between atoms: CBG_51  and  CBM_52 
REMARK   26  A    between atoms: CBM_52  and  NCH_53 
REMARK       I    between atoms: NCH_53  and  CCU_54 
REMARK       I    between atoms: CCU_54  and  NAF_55 
REMARK       I    between atoms: CCU_54  and  NAL_56 
REMARK       I    between atoms: CDC_57  and  NCN_59 
REMARK   27  A    between atoms: NCN_59  and  CDK_60 
REMARK   28  A    between atoms: CDK_60  and  CBT_61 
REMARK   29  A    between atoms: CDK_60  and  CDA_68 
REMARK   30  A    between atoms: CBT_61  and  CBF_62 
REMARK   31  A    between atoms: CBF_62  and  CBL_63 
REMARK   32  A    between atoms: CBL_63  and  NCG_64 
REMARK       I    between atoms: NCG_64  and  CCT_65 
REMARK       I    between atoms: CCT_65  and  NAE_66 
REMARK       I    between atoms: CCT_65  and  NAK_67 
REMARK       I    between atoms: CDA_68  and  NCL_70 
REMARK   33  A    between atoms: NCL_70  and  CDI_71 
REMARK   34  A    between atoms: CDI_71  and  CBR_72 
REMARK   35  A    between atoms: CDI_71  and  CCZ_79 
REMARK   36  A    between atoms: CBR_72  and  CBD_73 
REMARK   37  A    between atoms: CBD_73  and  CBJ_74 
REMARK   38  A    between atoms: CBJ_74  and  NCE_75 
REMARK       I    between atoms: NCE_75  and  CCR_76 
REMARK       I    between atoms: CCR_76  and  NAC_77 
REMARK       I    between atoms: CCR_76  and  NAI_78 
REMARK       I    between atoms: CCZ_79  and  N_81 
REMARK   39  A    between atoms: N_81  and  CA_82 
REMARK   40  A    between atoms: CA_82  and  CB_83 
REMARK   41  A    between atoms: CA_82  and  C_90 
REMARK   42  A    between atoms: CB_83  and  CG_84 
REMARK   43  A    between atoms: CG_84  and  CD_85 
REMARK   44  A    between atoms: CD_85  and  NE_86 
REMARK       I    between atoms: NE_86  and  CZ_87 
REMARK       I    between atoms: CZ_87  and  NH1_88 
REMARK       I    between atoms: CZ_87  and  NH2_89 
REMARK       I    between atoms: C_90  and  NAM_92 
ROOT
ATOM      1  CDB DAR d   1     -31.945  14.770  13.194  0.00  0.00     0.241 C 
ATOM      2  OAT DAR d   1     -32.424  15.765  12.653  0.00  0.00    -0.271 OA
ATOM      3  NCM DAR d   1     -31.044  14.818  14.163  0.00  0.00    -0.346 N 
ATOM      4  H   DAR d   1     -30.715  13.947  14.579  0.00  0.00     0.163 HD
ENDROOT
BRANCH   3   5
ATOM      5  CDL DAR d   1     -30.509  16.088  14.652  0.00  0.00     0.089 C 
ATOM      6  H   DAR d   1     -30.444  16.770  13.805  0.00  0.00     0.087 H 
BRANCH   5   7
ATOM      7  CBU DAR d   1     -29.105  15.843  15.246  0.00  0.00    -0.036 C 
ATOM      8  H   DAR d   1     -28.508  15.332  14.491  0.00  0.00     0.036 H 
ATOM      9  H   DAR d   1     -29.226  15.257  16.157  0.00  0.00     0.036 H 
BRANCH   7  10
ATOM     10  CBG DAR d   1     -28.377  17.151  15.619  0.00  0.00    -0.048 C 
ATOM     11  H   DAR d   1     -27.453  16.894  16.138  0.00  0.00     0.035 H 
ATOM     12  H   DAR d   1     -29.040  17.746  16.247  0.00  0.00     0.035 H 
BRANCH  10  13
ATOM     13  CBM DAR d   1     -28.020  17.975  14.378  0.00  0.00     0.009 C 
ATOM     14  H   DAR d   1     -28.407  18.986  14.506  0.00  0.00     0.064 H 
ATOM     15  H   DAR d   1     -28.459  17.497  13.502  0.00  0.00     0.064 H 
BRANCH  13  16
ATOM     16  NCH DAR d   1     -26.558  18.047  14.195  0.00  0.00    -0.227 N 
ATOM     17  CCU DAR d   1     -25.926  17.354  13.239  0.00  0.00     0.665 C 
ATOM     18  NAF DAR d   1     -26.571  16.522  12.407  0.00  0.00    -0.235 N 
ATOM     19  NAL DAR d   1     -24.613  17.491  13.119  0.00  0.00    -0.235 N 
ATOM     20  H   DAR d   1     -27.580  16.399  12.490  0.00  0.00     0.174 HD
ATOM     21  H   DAR d   1     -26.052  16.012  11.692  0.00  0.00     0.174 HD
ATOM     22  H   DAR d   1     -24.106  18.114  13.747  0.00  0.00     0.174 HD
ATOM     23  H   DAR d   1     -24.110  16.973  12.398  0.00  0.00     0.174 HD
ATOM     24  H   DAR d   1     -26.011  18.643  14.816  0.00  0.00     0.177 HD
ENDBRANCH  13  16
ENDBRANCH  10  13
ENDBRANCH   7  10
ENDBRANCH   5   7
BRANCH   5  25
ATOM     25  CDC DAR d   1     -31.432  16.791  15.671  0.00  0.00     0.241 C 
ATOM     26  OAU DAR d   1     -31.712  16.282  16.757  0.00  0.00    -0.271 OA
ATOM     27  NCN DAR d   1     -31.855  17.993  15.281  0.00  0.00    -0.346 N 
ATOM     28  H   DAR d   1     -31.643  18.303  14.333  0.00  0.00     0.163 HD
BRANCH  27  29
ATOM     29  CDK DAR d   1     -32.616  18.890  16.165  0.00  0.00     0.089 C 
ATOM     30  H   DAR d   1     -33.419  18.409  16.723  0.00  0.00     0.087 H 
BRANCH  29  31
ATOM     31  CBT DAR d   1     -33.302  19.981  15.331  0.00  0.00    -0.036 C 
ATOM     32  H   DAR d   1     -34.149  19.519  14.824  0.00  0.00     0.036 H 
ATOM     33  H   DAR d   1     -32.554  20.390  14.652  0.00  0.00     0.036 H 
BRANCH  31  34
ATOM     34  CBF DAR d   1     -33.850  21.151  16.170  0.00  0.00    -0.048 C 
ATOM     35  H   DAR d   1     -33.028  21.593  16.733  0.00  0.00     0.035 H 
ATOM     36  H   DAR d   1     -34.622  20.770  16.839  0.00  0.00     0.035 H 
BRANCH  34  37
ATOM     37  CBL DAR d   1     -34.467  22.231  15.270  0.00  0.00     0.009 C 
ATOM     38  H   DAR d   1     -35.384  21.842  14.827  0.00  0.00     0.064 H 
ATOM     39  H   DAR d   1     -33.751  22.496  14.492  0.00  0.00     0.064 H 
BRANCH  37  40
ATOM     40  NCG DAR d   1     -34.789  23.440  16.061  0.00  0.00    -0.227 N 
ATOM     41  CCT DAR d   1     -35.980  23.564  16.658  0.00  0.00     0.665 C 
ATOM     42  NAE DAR d   1     -36.903  22.601  16.560  0.00  0.00    -0.235 N 
ATOM     43  NAK DAR d   1     -36.259  24.661  17.360  0.00  0.00    -0.235 N 
ATOM     44  H   DAR d   1     -36.704  21.756  16.024  0.00  0.00     0.174 HD
ATOM     45  H   DAR d   1     -37.806  22.711  17.021  0.00  0.00     0.174 HD
ATOM     46  H   DAR d   1     -35.565  25.404  17.442  0.00  0.00     0.174 HD
ATOM     47  H   DAR d   1     -37.166  24.758  17.816  0.00  0.00     0.174 HD
ATOM     48  H   DAR d   1     -34.098  24.184  16.152  0.00  0.00     0.177 HD
ENDBRANCH  37  40
ENDBRANCH  34  37
ENDBRANCH  31  34
ENDBRANCH  29  31
BRANCH  29  49
ATOM     49  CDA DAR d   1     -31.522  19.454  17.095  0.00  0.00     0.241 C 
ATOM     50  OAS DAR d   1     -30.554  20.061  16.639  0.00  0.00    -0.271 OA
ATOM     51  NCL DAR d   1     -31.618  19.099  18.370  0.00  0.00    -0.346 N 
ATOM     52  H   DAR d   1     -32.413  18.532  18.665  0.00  0.00     0.163 HD
BRANCH  51  53
ATOM     53  CDI DAR d   1     -30.615  19.496  19.376  0.00  0.00     0.089 C 
ATOM     54  H   DAR d   1     -29.644  19.584  18.888  0.00  0.00     0.087 H 
BRANCH  53  55
ATOM     55  CBR DAR d   1     -30.498  18.438  20.476  0.00  0.00    -0.036 C 
ATOM     56  H   DAR d   1     -31.419  18.411  21.058  0.00  0.00     0.036 H 
ATOM     57  H   DAR d   1     -29.666  18.685  21.136  0.00  0.00     0.036 H 
BRANCH  55  58
ATOM     58  CBD DAR d   1     -30.256  17.076  19.834  0.00  0.00    -0.048 C 
ATOM     59  H   DAR d   1     -30.486  17.152  18.771  0.00  0.00     0.035 H 
ATOM     60  H   DAR d   1     -30.890  16.344  20.334  0.00  0.00     0.035 H 
BRANCH  58  61
ATOM     61  CBJ DAR d   1     -28.803  16.631  19.979  0.00  0.00     0.009 C 
ATOM     62  H   DAR d   1     -28.455  16.805  20.997  0.00  0.00     0.064 H 
ATOM     63  H   DAR d   1     -28.164  17.201  19.305  0.00  0.00     0.064 H 
BRANCH  61  64
ATOM     64  NCE DAR d   1     -28.735  15.197  19.655  0.00  0.00    -0.227 N 
ATOM     65  CCR DAR d   1     -29.331  14.247  20.398  0.00  0.00     0.665 C 
ATOM     66  NAC DAR d   1     -30.004  14.534  21.517  0.00  0.00    -0.235 N 
ATOM     67  NAI DAR d   1     -29.232  12.979  20.008  0.00  0.00    -0.235 N 
ATOM     68  H   DAR d   1     -30.079  15.501  21.834  0.00  0.00     0.174 HD
ATOM     69  H   DAR d   1     -30.443  13.786  22.054  0.00  0.00     0.174 HD
ATOM     70  H   DAR d   1     -28.713  12.745  19.162  0.00  0.00     0.174 HD
ATOM     71  H   DAR d   1     -29.675  12.241  20.555  0.00  0.00     0.174 HD
ATOM     72  H   DAR d   1     -28.211  14.910  18.828  0.00  0.00     0.177 HD
ENDBRANCH  61  64
ENDBRANCH  58  61
ENDBRANCH  55  58
ENDBRANCH  53  55
BRANCH  53  73
ATOM     73  CCZ DAR d   1     -31.001  20.834  19.975  0.00  0.00     0.241 C 
ATOM     74  OAR DAR d   1     -31.983  20.958  20.714  0.00  0.00    -0.271 OA
ATOM     75  N   DAR d   1     -30.190  21.817  19.599  0.00  0.00    -0.346 N 
ATOM     76  H   DAR d   1     -29.412  21.609  18.973  0.00  0.00     0.163 HD
BRANCH  75  77
ATOM     77  CA  DAR d   1     -30.386  23.186  20.061  0.00  0.00     0.089 C 
ATOM     78  H   DAR d   1     -31.422  23.378  20.340  0.00  0.00     0.087 H 
BRANCH  77  79
ATOM     79  CB  DAR d   1     -30.062  24.183  18.934  0.00  0.00    -0.036 C 
ATOM     80  H   DAR d   1     -28.991  24.145  18.733  0.00  0.00     0.036 H 
ATOM     81  H   DAR d   1     -30.368  25.180  19.252  0.00  0.00     0.036 H 
BRANCH  79  82
ATOM     82  CG  DAR d   1     -30.821  23.824  17.635  0.00  0.00    -0.048 C 
ATOM     83  H   DAR d   1     -31.862  23.635  17.896  0.00  0.00     0.035 H 
ATOM     84  H   DAR d   1     -30.337  22.954  17.192  0.00  0.00     0.035 H 
BRANCH  82  85
ATOM     85  CD  DAR d   1     -30.790  24.959  16.602  0.00  0.00     0.009 C 
ATOM     86  H   DAR d   1     -31.145  25.877  17.070  0.00  0.00     0.064 H 
ATOM     87  H   DAR d   1     -31.430  24.692  15.761  0.00  0.00     0.064 H 
BRANCH  85  88
ATOM     88  NE  DAR d   1     -29.417  25.168  16.115  0.00  0.00    -0.227 N 
ATOM     89  CZ  DAR d   1     -28.802  26.342  16.243  0.00  0.00     0.665 C 
ATOM     90  NH1 DAR d   1     -27.554  26.463  15.789  0.00  0.00    -0.235 N 
ATOM     91  NH2 DAR d   1     -29.389  27.386  16.856  0.00  0.00    -0.235 N 
ATOM     92  H   DAR d   1     -27.090  25.666  15.354  0.00  0.00     0.174 HD
ATOM     93  H   DAR d   1     -27.064  27.353  15.877  0.00  0.00     0.174 HD
ATOM     94  H   DAR d   1     -30.330  27.290  17.238  0.00  0.00     0.174 HD
ATOM     95  H   DAR d   1     -28.893  28.273  16.939  0.00  0.00     0.174 HD
ATOM     96  H   DAR d   1     -28.924  24.395  15.668  0.00  0.00     0.177 HD
ENDBRANCH  85  88
ENDBRANCH  82  85
ENDBRANCH  79  82
ENDBRANCH  77  79
BRANCH  77  97
ATOM     97  C   DAR d   1     -29.477  23.365  21.278  0.00  0.00     0.238 C 
ATOM     98  O   DAR d   1     -29.403  24.444  21.841  0.00  0.00    -0.271 OA
ATOM     99  NAM NH2 d   1     -28.802  22.277  21.656  0.00  0.00    -0.368 N 
ATOM    100  H   NH2 d   1     -28.178  22.318  22.462  0.00  0.00     0.159 HD
ATOM    101  H   NH2 d   1     -28.910  21.404  21.139  0.00  0.00     0.159 HD
ENDBRANCH  77  97
ENDBRANCH  75  77
ENDBRANCH  53  73
ENDBRANCH  51  53
ENDBRANCH  29  49
ENDBRANCH  27  29
ENDBRANCH   5  25
ENDBRANCH   3   5
BRANCH   1 102
ATOM    102  CDJ DAR d   1     -32.337  13.348  12.742  0.00  0.00     0.089 C 
ATOM    103  H   DAR d   1     -31.669  12.634  13.224  0.00  0.00     0.087 H 
BRANCH 102 104
ATOM    104  NCK DAR d   1     -32.250  13.305  11.273  0.00  0.00    -0.346 N 
ATOM    105  CCY DAR d   1     -31.141  13.547  10.582  0.00  0.00     0.241 C 
ATOM    106  OAQ DAR d   1     -30.036  13.749  11.085  0.00  0.00    -0.271 OA
ATOM    107  H   DAR d   1     -33.096  13.075  10.752  0.00  0.00     0.163 HD
BRANCH 105 108
ATOM    108  CDH DAR d   1     -31.312  13.482   9.058  0.00  0.00     0.089 C 
ATOM    109  H   DAR d   1     -32.088  12.742   8.861  0.00  0.00     0.087 H 
BRANCH 108 110
ATOM    110  NCI DAR d   1     -30.047  13.051   8.410  0.00  0.00    -0.348 N 
ATOM    111  CCW OCE d   1     -29.600  11.798   8.541  0.00  0.00     0.218 C 
ATOM    112  OAO OCE d   1     -30.161  10.948   9.228  0.00  0.00    -0.274 OA
ATOM    113  H   DAR d   1     -29.512  13.721   7.857  0.00  0.00     0.163 HD
BRANCH 111 114
ATOM    114  CBN OCE d   1     -28.298  11.459   7.810  0.00  0.00     0.009 C 
ATOM    115  H   OCE d   1     -28.530  10.800   6.973  0.00  0.00     0.047 H 
ATOM    116  H   OCE d   1     -27.840  12.386   7.465  0.00  0.00     0.047 H 
BRANCH 114 117
ATOM    117  CAZ OCE d   1     -27.314  10.744   8.738  0.00  0.00    -0.057 C 
ATOM    118  H   OCE d   1     -27.857  10.104   9.434  0.00  0.00     0.033 H 
ATOM    119  H   OCE d   1     -26.636  10.123   8.153  0.00  0.00     0.033 H 
BRANCH 117 120
ATOM    120  CAX OCE d   1     -26.516  11.803   9.514  0.00  0.00    -0.065 C 
ATOM    121  H   OCE d   1     -25.974  12.417   8.795  0.00  0.00     0.033 H 
ATOM    122  H   OCE d   1     -27.216  12.393  10.105  0.00  0.00     0.033 H 
BRANCH 120 123
ATOM    123  CAY OCE d   1     -25.503  11.168  10.463  0.00  0.00    -0.065 C 
ATOM    124  H   OCE d   1     -24.668  10.780   9.880  0.00  0.00     0.033 H 
ATOM    125  H   OCE d   1     -25.992  10.366  11.016  0.00  0.00     0.033 H 
BRANCH 123 126
ATOM    126  CBA OCE d   1     -24.972  12.206  11.460  0.00  0.00    -0.057 C 
ATOM    127  H   OCE d   1     -24.386  11.682  12.216  0.00  0.00     0.033 H 
ATOM    128  H   OCE d   1     -25.825  12.730  11.891  0.00  0.00     0.033 H 
BRANCH 126 129
ATOM    129  CBO OCE d   1     -24.059  13.250  10.782  0.00  0.00     0.009 C 
ATOM    130  H   OCE d   1     -24.660  14.058  10.364  0.00  0.00     0.047 H 
ATOM    131  H   OCE d   1     -23.499  12.786   9.970  0.00  0.00     0.047 H 
BRANCH 129 132
ATOM    132  CCX OCE d   1     -23.097  13.802  11.837  0.00  0.00     0.219 C 
ATOM    133  NDM 69P d   1     -22.106  14.647  11.516  0.00  0.00    -0.349 N 
ATOM    134  CBV 69P d   1     -21.175  15.151  12.563  0.00  0.00     0.013 C 
ATOM    135  CBW 69P d   1     -21.868  15.062  10.116  0.00  0.00     0.013 C 
ATOM    136  CBX 69P d   1     -19.778  14.603  12.217  0.00  0.00     0.011 C 
ATOM    137  H   69P d   1     -21.169  16.241  12.585  0.00  0.00     0.066 H 
ATOM    138  H   69P d   1     -21.488  14.818  13.553  0.00  0.00     0.066 H 
ATOM    139  N6  69P d   1     -19.450  14.716  10.757  0.00  0.00    -0.361 N 
ATOM    140  H   69P d   1     -19.044  15.191  12.769  0.00  0.00     0.066 H 
ATOM    141  H   69P d   1     -19.761  13.546  12.481  0.00  0.00     0.066 H 
ATOM    142  CBY 69P d   1     -20.486  14.585   9.682  0.00  0.00     0.011 C 
ATOM    143  H   69P d   1     -20.567  13.528   9.429  0.00  0.00     0.066 H 
ATOM    144  H   69P d   1     -20.171  15.206   8.843  0.00  0.00     0.066 H 
ATOM    145  H   69P d   1     -22.627  14.623   9.469  0.00  0.00     0.066 H 
ATOM    146  H   69P d   1     -21.921  16.148  10.041  0.00  0.00     0.066 H 
ATOM    147  OAP OCE d   1     -23.254  13.484  13.016  0.00  0.00    -0.273 OA
BRANCH 139 148
ATOM    148  C6  69P d   1     -18.072  14.702  10.414  0.00  0.00     0.160 A 
ATOM    149  N1  69P d   1     -17.178  14.589  11.416  0.00  0.00    -0.222 NA
ATOM    150  C2  69P d   1     -15.861  14.555  11.178  0.00  0.00     0.091 A 
ATOM    151  N3  69P d   1     -15.378  14.612   9.950  0.00  0.00    -0.222 NA
ATOM    152  H   69P d   1     -15.171  14.478  12.018  0.00  0.00     0.146 H 
ATOM    153  C4  69P d   1     -16.210  14.709   8.902  0.00  0.00     0.162 A 
ATOM    154  C5  69P d   1     -17.589  14.757   9.103  0.00  0.00     0.149 A 
ATOM    155  N9  69P d   1     -15.995  14.783   7.596  0.00  0.00    -0.333 N 
ATOM    156  N7  69P d   1     -18.148  14.868   7.892  0.00  0.00    -0.236 NA
ATOM    157  C8  69P d   1     -17.181  14.878   6.973  0.00  0.00     0.066 A 
ATOM    158  H   69P d   1     -17.329  14.951   5.896  0.00  0.00     0.143 H 
ATOM    159  H   69P d   1     -15.082  14.770   7.141  0.00  0.00     0.168 HD
ENDBRANCH 139 148
ENDBRANCH 129 132
ENDBRANCH 126 129
ENDBRANCH 123 126
ENDBRANCH 120 123
ENDBRANCH 117 120
ENDBRANCH 114 117
ENDBRANCH 111 114
ENDBRANCH 108 110
BRANCH 108 160
ATOM    160  CBQ DAR d   1     -31.805  14.818   8.449  0.00  0.00    -0.036 C 
ATOM    161  H   DAR d   1     -32.676  14.603   7.830  0.00  0.00     0.036 H 
ATOM    162  H   DAR d   1     -30.983  15.251   7.879  0.00  0.00     0.036 H 
BRANCH 160 163
ATOM    163  CBC DAR d   1     -32.226  15.838   9.522  0.00  0.00    -0.048 C 
ATOM    164  H   DAR d   1     -31.355  16.060  10.138  0.00  0.00     0.035 H 
ATOM    165  H   DAR d   1     -33.041  15.404  10.101  0.00  0.00     0.035 H 
BRANCH 163 166
ATOM    166  CBI DAR d   1     -32.722  17.146   8.912  0.00  0.00     0.009 C 
ATOM    167  H   DAR d   1     -32.919  17.906   9.668  0.00  0.00     0.064 H 
ATOM    168  H   DAR d   1     -33.678  17.027   8.401  0.00  0.00     0.064 H 
BRANCH 166 169
ATOM    169  NCD DAR d   1     -31.656  17.538   8.002  0.00  0.00    -0.227 N 
ATOM    170  CCQ DAR d   1     -30.984  18.681   8.060  0.00  0.00     0.665 C 
ATOM    171  NAB DAR d   1     -31.244  19.686   8.895  0.00  0.00    -0.235 N 
ATOM    172  NAH DAR d   1     -30.032  18.786   7.165  0.00  0.00    -0.235 N 
ATOM    173  H   DAR d   1     -32.014  19.611   9.560  0.00  0.00     0.174 HD
ATOM    174  H   DAR d   1     -30.673  20.531   8.870  0.00  0.00     0.174 HD
ATOM    175  H   DAR d   1     -29.866  18.026   6.506  0.00  0.00     0.174 HD
ATOM    176  H   DAR d   1     -29.458  19.628   7.128  0.00  0.00     0.174 HD
ATOM    177  H   DAR d   1     -31.406  16.883   7.261  0.00  0.00     0.177 HD
ENDBRANCH 166 169
ENDBRANCH 163 166
ENDBRANCH 160 163
ENDBRANCH 108 160
ENDBRANCH 105 108
ENDBRANCH 102 104
BRANCH 102 178
ATOM    178  CBS DAR d   1     -33.783  13.013  13.126  0.00  0.00    -0.036 C 
ATOM    179  H   DAR d   1     -33.855  11.927  13.178  0.00  0.00     0.036 H 
ATOM    180  H   DAR d   1     -34.427  13.474  12.377  0.00  0.00     0.036 H 
BRANCH 178 181
ATOM    181  CBE DAR d   1     -34.222  13.557  14.490  0.00  0.00    -0.048 C 
ATOM    182  H   DAR d   1     -34.046  14.632  14.517  0.00  0.00     0.035 H 
ATOM    183  H   DAR d   1     -33.649  13.059  15.272  0.00  0.00     0.035 H 
BRANCH 181 184
ATOM    184  CBK DAR d   1     -35.717  13.289  14.716  0.00  0.00     0.009 C 
ATOM    185  H   DAR d   1     -36.003  13.656  15.702  0.00  0.00     0.064 H 
ATOM    186  H   DAR d   1     -35.904  12.217  14.650  0.00  0.00     0.064 H 
BRANCH 184 187
ATOM    187  NCF DAR d   1     -36.516  13.987  13.686  0.00  0.00    -0.227 N 
ATOM    188  CCS DAR d   1     -37.709  14.533  13.952  0.00  0.00     0.665 C 
ATOM    189  NAD DAR d   1     -38.246  14.479  15.177  0.00  0.00    -0.235 N 
ATOM    190  NAJ DAR d   1     -38.370  15.134  12.965  0.00  0.00    -0.235 N 
ATOM    191  H   DAR d   1     -37.745  14.014  15.934  0.00  0.00     0.174 HD
ATOM    192  H   DAR d   1     -39.157  14.903  15.354  0.00  0.00     0.174 HD
ATOM    193  H   DAR d   1     -37.966  15.171  12.029  0.00  0.00     0.174 HD
ATOM    194  H   DAR d   1     -39.281  15.557  13.145  0.00  0.00     0.174 HD
ATOM    195  H   DAR d   1     -36.145  14.055  12.738  0.00  0.00     0.177 HD
ENDBRANCH 184 187
ENDBRANCH 181 184
ENDBRANCH 178 181
ENDBRANCH 102 178
ENDBRANCH   1 102
TORSDOF 44
