REMARK  29 active torsions:
REMARK  status: ('A' for Active; 'I' for Inactive)
REMARK    1  A    between atoms: C_1  and  CH3_3 
REMARK       I    between atoms: N_5  and  C_1 
REMARK    2  A    between atoms: C_4  and  CA_7 
REMARK    3  A    between atoms: OH_19  and  C_4 
REMARK    4  A    between atoms: CA_7  and  N_5 
REMARK    5  A    between atoms: CA_7  and  CB_8 
REMARK    6  A    between atoms: CB_8  and  CG_9 
REMARK    7  A    between atoms: CB_8  and  OH_10 
REMARK    8  A    between atoms: CG_9  and  CD1_11 
REMARK    9  A    between atoms: CG_9  and  CD2_12 
REMARK   10  A    between atoms: CA_16  and  CB_17 
REMARK   11  A    between atoms: CB_17  and  CG_18 
REMARK   12  A    between atoms: CB_17  and  OH_19 
REMARK   13  A    between atoms: CG_18  and  CD1_20 
REMARK   14  A    between atoms: CG_18  and  CD2_21 
REMARK   15  A    between atoms: N_22  and  C24_30 
REMARK   16  A    between atoms: CA_24  and  CB_27 
REMARK   17  A    between atoms: CB_27  and  OG1_26 
REMARK   18  A    between atoms: OG1_26  and  C22_28 
REMARK   19  A    between atoms: CB_27  and  CG2_29 
REMARK       I    between atoms: N_31  and  CN_32 
REMARK   20  A    between atoms: CA_35  and  N_31 
REMARK   21  A    between atoms: CN_32  and  CM_34 
REMARK   22  A    between atoms: CB_36  and  CG2_38 
REMARK   23  A    between atoms: CB_45  and  CA_43 
REMARK   24  A    between atoms: CG_46  and  CB_45 
REMARK   25  A    between atoms: N_52  and  CM_53 
REMARK   26  A    between atoms: CA_54  and  CB_55 
REMARK   27  A    between atoms: CA_59  and  CB_62 
REMARK   28  A    between atoms: N_63  and  CM_64 
REMARK   29  A    between atoms: CA_65  and  CB_66 
ROOT
ATOM      1  C   HL2 d   1      10.119 -23.269 -43.052  0.00  0.00     0.245 C 
ATOM      2  N   HL2 d   1       9.526 -24.792 -44.897  0.00  0.00    -0.344 N 
ATOM      3  O   HL2 d   1      11.040 -23.679 -42.354  0.00  0.00    -0.271 OA
ATOM      4  CA  HL2 d   1       9.137 -24.284 -43.583  0.00  0.00     0.115 C 
ATOM      5  H   HL2 d   1      10.519 -24.804 -45.128  0.00  0.00     0.163 HD
ATOM      6  H   HL2 d   1       8.168 -23.786 -43.608  0.00  0.00     0.091 H 
ATOM      7  N   OTH d   1      10.009 -21.952 -43.294  0.00  0.00    -0.338 N 
ATOM      8  C   OTH d   1       9.502 -20.239 -44.932  0.00  0.00     0.285 C 
ATOM      9  CA  OTH d   1       8.947 -21.385 -44.128  0.00  0.00     0.122 C 
ATOM     10  O   OTH d   1       9.738 -19.156 -44.413  0.00  0.00    -0.263 OA
ATOM     11  H   OTH d   1       8.577 -22.155 -44.805  0.00  0.00     0.092 H 
ATOM     12  CA  THC d   1      11.801 -21.138 -47.481  0.00  0.00     0.121 C 
ATOM     13  CB  THC d   1      11.101 -20.026 -46.704  0.00  0.00     0.073 C 
ATOM     14  OG1 THC d   1       9.783 -20.431 -46.345  0.00  0.00    -0.312 OA
ATOM     15  C   THC d   1      12.123 -22.244 -46.529  0.00  0.00     0.285 C 
ATOM     16  O   THC d   1      11.219 -22.961 -46.143  0.00  0.00    -0.263 OA
ATOM     17  H   THC d   1      12.731 -20.806 -47.943  0.00  0.00     0.092 H 
ATOM     18  H   THC d   1      11.695 -19.834 -45.811  0.00  0.00     0.087 H 
ATOM     19  C   HF2 d   1      13.429 -24.861 -45.697  0.00  0.00     0.254 C 
ATOM     20  O   HF2 d   1      13.271 -24.900 -46.906  0.00  0.00    -0.270 OA
ATOM     21  CA  HF2 d   1      13.712 -23.486 -45.119  0.00  0.00     0.129 C 
ATOM     22  OA  HF2 d   1      13.501 -22.453 -46.092  0.00  0.00    -0.304 OA
ATOM     23  H   HF2 d   1      13.016 -23.381 -44.287  0.00  0.00     0.099 H 
ATOM     24  N   DAM d   1      13.328 -25.967 -44.906  0.00  0.00    -0.316 N 
ATOM     25  CA  DAM d   1      13.072 -27.172 -45.466  0.00  0.00     0.095 C 
ATOM     26  C   DAM d   1      12.838 -27.358 -46.898  0.00  0.00     0.268 C 
ATOM     27  O   DAM d   1      13.746 -27.326 -47.719  0.00  0.00    -0.266 OA
ATOM     28  N   ALA d   1      11.540 -27.559 -47.155  0.00  0.00    -0.343 N 
ATOM     29  CA  ALA d   1      10.897 -27.767 -48.446  0.00  0.00     0.086 C 
ATOM     30  C   ALA d   1       9.402 -27.921 -48.273  0.00  0.00     0.242 C 
ATOM     31  O   ALA d   1       8.879 -28.940 -48.711  0.00  0.00    -0.271 OA
ATOM     32  H   ALA d   1      10.922 -27.568 -46.344  0.00  0.00     0.163 HD
ATOM     33  H   ALA d   1      11.093 -26.891 -49.064  0.00  0.00     0.087 H 
ATOM     34  N   MAA d   1       8.656 -26.980 -47.652  0.00  0.00    -0.342 N 
ATOM     35  CA  MAA d   1       9.252 -25.743 -47.119  0.00  0.00     0.088 C 
ATOM     36  C   MAA d   1       8.663 -25.243 -45.819  0.00  0.00     0.241 C 
ATOM     37  O   MAA d   1       7.455 -25.259 -45.639  0.00  0.00    -0.271 OA
ATOM     38  H   MAA d   1      10.283 -26.008 -46.886  0.00  0.00     0.087 H 
ENDROOT
BRANCH   4  39
ATOM     39  CB  HL2 d   1       9.204 -25.543 -42.704  0.00  0.00     0.079 C 
ATOM     40  H   HL2 d   1      10.277 -25.681 -42.570  0.00  0.00     0.088 H 
BRANCH  39  41
ATOM     41  CG  HL2 d   1       8.636 -25.507 -41.278  0.00  0.00    -0.033 C 
ATOM     42  H   HL2 d   1       7.710 -26.080 -41.308  0.00  0.00     0.043 H 
BRANCH  41  43
ATOM     43  CD1 HL2 d   1       8.141 -24.159 -40.754  0.00  0.00    -0.071 C 
ATOM     44  H   HL2 d   1       8.964 -23.445 -40.757  0.00  0.00     0.028 H 
ATOM     45  H   HL2 d   1       7.339 -23.794 -41.395  0.00  0.00     0.028 H 
ATOM     46  H   HL2 d   1       7.768 -24.281 -39.737  0.00  0.00     0.028 H 
ENDBRANCH  41  43
BRANCH  41  47
ATOM     47  CD2 HL2 d   1       9.664 -26.127 -40.356  0.00  0.00    -0.071 C 
ATOM     48  H   HL2 d   1       9.852 -27.156 -40.663  0.00  0.00     0.028 H 
ATOM     49  H   HL2 d   1      10.590 -25.555 -40.410  0.00  0.00     0.028 H 
ATOM     50  H   HL2 d   1       9.287 -26.115 -39.333  0.00  0.00     0.028 H 
ENDBRANCH  41  47
ENDBRANCH  39  41
BRANCH  39  51
ATOM     51  OH  HL2 d   1       8.492 -26.571 -43.372  0.00  0.00    -0.311 OA
BRANCH  51  52
ATOM     52  C   HL2 d   1       9.289 -27.738 -43.704  0.00  0.00     0.284 C 
ATOM     53  O   HL2 d   1      10.393 -27.622 -44.202  0.00  0.00    -0.263 OA
BRANCH  52  54
ATOM     54  CA  HL2 d   1       8.672 -29.070 -43.441  0.00  0.00     0.121 C 
ATOM     55  H   HL2 d   1       7.801 -29.182 -44.087  0.00  0.00     0.092 H 
BRANCH  54  56
ATOM     56  N   HL2 d   1       9.553 -30.184 -43.758  0.00  0.00    -0.345 N 
ATOM     57  C   ACE d   1       9.373 -30.848 -44.902  0.00  0.00     0.214 C 
ATOM     58  O   ACE d   1       8.496 -30.561 -45.708  0.00  0.00    -0.274 OA
ATOM     59  H   HL2 d   1      10.298 -30.454 -43.115  0.00  0.00     0.163 HD
BRANCH  57  60
ATOM     60  CH3 ACE d   1      10.321 -31.982 -45.148  0.00  0.00    -0.003 C 
ATOM     61  H   ACE d   1       9.758 -32.910 -45.245  0.00  0.00     0.040 H 
ATOM     62  H   ACE d   1      10.878 -31.796 -46.066  0.00  0.00     0.040 H 
ATOM     63  H   ACE d   1      11.015 -32.062 -44.311  0.00  0.00     0.040 H 
ENDBRANCH  57  60
ENDBRANCH  54  56
BRANCH  54  64
ATOM     64  CB  HL2 d   1       8.302 -29.112 -41.962  0.00  0.00     0.067 C 
ATOM     65  H   HL2 d   1       7.997 -28.119 -41.631  0.00  0.00     0.087 H 
BRANCH  64  66
ATOM     66  CG  HL2 d   1       7.072 -30.011 -41.726  0.00  0.00    -0.034 C 
ATOM     67  H   HL2 d   1       6.941 -30.622 -42.620  0.00  0.00     0.042 H 
BRANCH  66  68
ATOM     68  CD1 HL2 d   1       5.838 -29.105 -41.486  0.00  0.00    -0.071 C 
ATOM     69  H   HL2 d   1       6.014 -28.478 -40.612  0.00  0.00     0.028 H 
ATOM     70  H   HL2 d   1       5.676 -28.475 -42.360  0.00  0.00     0.028 H 
ATOM     71  H   HL2 d   1       4.959 -29.727 -41.317  0.00  0.00     0.028 H 
ENDBRANCH  66  68
BRANCH  66  72
ATOM     72  CD2 HL2 d   1       7.239 -31.025 -40.573  0.00  0.00    -0.071 C 
ATOM     73  H   HL2 d   1       8.080 -31.684 -40.789  0.00  0.00     0.028 H 
ATOM     74  H   HL2 d   1       7.426 -30.488 -39.643  0.00  0.00     0.028 H 
ATOM     75  H   HL2 d   1       6.328 -31.616 -40.476  0.00  0.00     0.028 H 
ENDBRANCH  66  72
ENDBRANCH  64  66
BRANCH  64  76
ATOM     76  OH  HL2 d   1       9.453 -29.456 -41.167  0.00  0.00    -0.393 OA
ATOM     77  H   HL2 d   1       9.230 -29.387 -40.236  0.00  0.00     0.210 HD
ENDBRANCH  64  76
ENDBRANCH  54  64
ENDBRANCH  52  54
ENDBRANCH  51  52
ENDBRANCH  39  51
ENDBRANCH   4  39
BRANCH   7  78
ATOM     78  C24 OTH d   1      10.994 -21.010 -42.750  0.00  0.00    -0.015 C 
ATOM     79  H   OTH d   1      10.994 -21.075 -41.662  0.00  0.00     0.056 H 
ATOM     80  H   OTH d   1      11.984 -21.262 -43.130  0.00  0.00     0.056 H 
ATOM     81  H   OTH d   1      10.733 -19.997 -43.055  0.00  0.00     0.056 H 
ENDBRANCH   7  78
BRANCH   9  82
ATOM     82  CB  OTH d   1       7.766 -20.910 -43.259  0.00  0.00     0.063 C 
ATOM     83  H   OTH d   1       7.674 -19.826 -43.327  0.00  0.00     0.086 H 
BRANCH  82  84
ATOM     84  OG1 OTH d   1       7.988 -21.250 -41.786  0.00  0.00    -0.389 OA
BRANCH  84  85
ATOM     85  C22 OTH d   1       8.034 -19.753 -41.056  0.00  0.00     0.005 C 
ATOM     86  H   OTH d   1       8.851 -19.169 -41.479  0.00  0.00     0.066 H 
ATOM     87  H   OTH d   1       7.090 -19.237 -41.229  0.00  0.00     0.066 H 
ATOM     88  H   OTH d   1       8.191 -19.877 -39.984  0.00  0.00     0.066 H 
ENDBRANCH  84  85
ENDBRANCH  82  84
BRANCH  82  89
ATOM     89  CG2 OTH d   1       6.447 -21.617 -43.799  0.00  0.00    -0.050 C 
ATOM     90  H   OTH d   1       6.287 -21.337 -44.840  0.00  0.00     0.031 H 
ATOM     91  H   OTH d   1       6.560 -22.699 -43.725  0.00  0.00     0.031 H 
ATOM     92  H   OTH d   1       5.594 -21.298 -43.200  0.00  0.00     0.031 H 
ENDBRANCH  82  89
ENDBRANCH   9  82
BRANCH  35  93
ATOM     93  CB  MAA d   1       9.183 -24.637 -48.167  0.00  0.00    -0.049 C 
ATOM     94  H   MAA d   1       9.732 -24.946 -49.056  0.00  0.00     0.030 H 
ATOM     95  H   MAA d   1       8.141 -24.450 -48.428  0.00  0.00     0.030 H 
ATOM     96  H   MAA d   1       9.626 -23.727 -47.763  0.00  0.00     0.030 H 
ENDBRANCH  35  93
BRANCH  34  97
ATOM     97  CM  MAA d   1       7.209 -27.157 -47.502  0.00  0.00    -0.015 C 
ATOM     98  H   MAA d   1       6.751 -27.242 -48.487  0.00  0.00     0.056 H 
ATOM     99  H   MAA d   1       7.013 -28.063 -46.929  0.00  0.00     0.056 H 
ATOM    100  H   MAA d   1       6.791 -26.297 -46.979  0.00  0.00     0.056 H 
ENDBRANCH  34  97
BRANCH  13 101
ATOM    101  CG2 THC d   1      11.008 -18.745 -47.520  0.00  0.00    -0.049 C 
ATOM    102  H   THC d   1      12.011 -18.406 -47.778  0.00  0.00     0.031 H 
ATOM    103  H   THC d   1      10.443 -18.937 -48.432  0.00  0.00     0.031 H 
ATOM    104  H   THC d   1      10.504 -17.977 -46.933  0.00  0.00     0.031 H 
ENDBRANCH  13 101
BRANCH  29 105
ATOM    105  CB  ALA d   1      11.474 -28.994 -49.156  0.00  0.00    -0.049 C 
ATOM    106  H   ALA d   1      12.543 -28.850 -49.316  0.00  0.00     0.030 H 
ATOM    107  H   ALA d   1      11.314 -29.878 -48.539  0.00  0.00     0.030 H 
ATOM    108  H   ALA d   1      10.975 -29.124 -50.116  0.00  0.00     0.030 H 
ENDBRANCH  29 105
BRANCH  12 109
ATOM    109  N   THC d   1      10.867 -21.581 -48.517  0.00  0.00    -0.345 N 
ATOM    110  CN  THC d   1      11.266 -22.076 -49.696  0.00  0.00     0.214 C 
ATOM    111  ON  THC d   1      12.441 -22.201 -50.011  0.00  0.00    -0.274 OA
ATOM    112  H   THC d   1       9.866 -21.509 -48.333  0.00  0.00     0.163 HD
BRANCH 110 113
ATOM    113  CM  THC d   1      10.166 -22.477 -50.637  0.00  0.00    -0.003 C 
ATOM    114  H   THC d   1      10.246 -21.896 -51.556  0.00  0.00     0.040 H 
ATOM    115  H   THC d   1      10.256 -23.538 -50.868  0.00  0.00     0.040 H 
ATOM    116  H   THC d   1       9.201 -22.286 -50.168  0.00  0.00     0.040 H 
ENDBRANCH 110 113
ENDBRANCH  12 109
BRANCH  25 117
ATOM    117  CB  DAM d   1      12.979 -28.227 -44.666  0.00  0.00    -0.091 C 
ATOM    118  H   DAM d   1      13.108 -28.108 -43.590  0.00  0.00     0.070 H 
ATOM    119  H   DAM d   1      12.774 -29.212 -45.085  0.00  0.00     0.070 H 
ENDBRANCH  25 117
BRANCH  21 120
ATOM    120  CB  HF2 d   1      15.139 -23.342 -44.602  0.00  0.00    -0.008 C 
ATOM    121  H   HF2 d   1      15.575 -22.399 -44.932  0.00  0.00     0.044 H 
ATOM    122  H   HF2 d   1      15.772 -24.140 -44.990  0.00  0.00     0.044 H 
BRANCH 120 123
ATOM    123  CG  HF2 d   1      15.072 -23.400 -43.093  0.00  0.00    -0.055 A 
ATOM    124  CD1 HF2 d   1      16.144 -23.916 -42.367  0.00  0.00    -0.077 A 
ATOM    125  CE1 HF2 d   1      16.082 -23.981 -40.975  0.00  0.00    -0.082 A 
ATOM    126  H   HF2 d   1      17.033 -24.270 -42.889  0.00  0.00     0.084 H 
ATOM    127  CZ  HF2 d   1      14.946 -23.537 -40.303  0.00  0.00    -0.083 A 
ATOM    128  H   HF2 d   1      16.925 -24.381 -40.412  0.00  0.00     0.083 H 
ATOM    129  CE2 HF2 d   1      13.871 -23.029 -41.030  0.00  0.00    -0.082 A 
ATOM    130  H   HF2 d   1      14.898 -23.587 -39.215  0.00  0.00     0.083 H 
ATOM    131  CD2 HF2 d   1      13.935 -22.953 -42.419  0.00  0.00    -0.077 A 
ATOM    132  H   HF2 d   1      12.976 -22.689 -40.509  0.00  0.00     0.083 H 
ATOM    133  H   HF2 d   1      13.095 -22.544 -42.981  0.00  0.00     0.084 H 
ENDBRANCH 120 123
ENDBRANCH  21 120
BRANCH  24 134
ATOM    134  CM  DAM d   1      13.500 -25.951 -43.455  0.00  0.00    -0.011 C 
ATOM    135  H   DAM d   1      14.501 -25.593 -43.213  0.00  0.00     0.057 H 
ATOM    136  H   DAM d   1      12.758 -25.288 -43.010  0.00  0.00     0.057 H 
ATOM    137  H   DAM d   1      13.369 -26.960 -43.064  0.00  0.00     0.057 H 
ENDBRANCH  24 134
TORSDOF 29
