REMARK  5 active torsions:
REMARK  status: ('A' for Active; 'I' for Inactive)
REMARK    1  A    between atoms: N_1  and  CA_2 
REMARK    2  A    between atoms: CA_2  and  C_3 
REMARK    3  A    between atoms: CA_2  and  CB_5 
REMARK    4  A    between atoms: CB_5  and  OG1_6 
REMARK    5  A    between atoms: CB_5  and  CG2_7 
ROOT
ATOM      1  CA  THR d   1      40.312  39.221  16.042  0.00  0.00     0.206 C 
ATOM      2  H   THR d   1      40.023  38.482  16.789  0.00  0.00     0.105 H 
ENDROOT
BRANCH   1   3
ATOM      3  N   THR d   1      40.947  40.345  16.781  0.00  0.00    -0.063 N 
ATOM      4  H   THR d   1      41.758  39.998  17.293  0.00  0.00     0.275 HD
ATOM      5  H   THR d   1      41.242  41.062  16.119  0.00  0.00     0.275 HD
ATOM      6  H   THR d   1      40.274  40.742  17.437  0.00  0.00     0.275 HD
ENDBRANCH   1   3
BRANCH   1   7
ATOM      7  C   THR d   1      41.296  38.641  15.015  0.00  0.00     0.207 C 
ATOM      8  O   THR d   1      42.405  39.185  14.863  0.00  0.00    -0.646 OA
ATOM      9  OXT THR d   1      40.928  37.634  14.407  0.00  0.00    -0.646 OA
ENDBRANCH   1   7
BRANCH   1  10
ATOM     10  CB  THR d   1      39.077  39.686  15.248  0.00  0.00     0.069 C 
ATOM     11  H   THR d   1      38.593  38.814  14.808  0.00  0.00     0.086 H 
BRANCH  10  12
ATOM     12  OG1 THR d   1      39.504  40.596  14.238  0.00  0.00    -0.393 OA
ATOM     13  H   THR d   1      39.933  41.350  14.649  0.00  0.00     0.210 HD
ENDBRANCH  10  12
BRANCH  10  14
ATOM     14  CG2 THR d   1      38.053  40.398  16.171  0.00  0.00    -0.050 C 
ATOM     15  H   THR d   1      38.524  41.266  16.633  0.00  0.00     0.031 H 
ATOM     16  H   THR d   1      37.196  40.720  15.580  0.00  0.00     0.031 H 
ATOM     17  H   THR d   1      37.722  39.707  16.946  0.00  0.00     0.031 H 
ENDBRANCH  10  14
ENDBRANCH   1  10
TORSDOF 5
