REMARK WARNING: 32 MAX_TORS EXCEEDED!!!
REMARK  46 active torsions:
REMARK  status: ('A' for Active; 'I' for Inactive)
REMARK    1  A    between atoms: N_1  and  CA_2 
REMARK    2  A    between atoms: CA_2  and  C_3 
REMARK    3  A    between atoms: CA_2  and  CB_5 
REMARK       I    between atoms: C_3  and  N_7 
REMARK    4  A    between atoms: CB_5  and  OG_6 
REMARK    5  A    between atoms: N_7  and  CA_8 
REMARK    6  A    between atoms: CA_8  and  C_9 
REMARK    7  A    between atoms: CA_8  and  CB_11 
REMARK       I    between atoms: C_9  and  N_15 
REMARK    8  A    between atoms: CB_11  and  CG1_12 
REMARK    9  A    between atoms: CB_11  and  CG2_13 
REMARK   10  A    between atoms: CG1_12  and  CD1_14 
REMARK   11  A    between atoms: N_15  and  CA_16 
REMARK   12  A    between atoms: CA_16  and  C_17 
REMARK   13  A    between atoms: CA_16  and  CB_19 
REMARK       I    between atoms: C_17  and  N_27 
REMARK   14  A    between atoms: CB_19  and  CG_20 
REMARK   15  A    between atoms: CZ_25  and  OH_26 
REMARK   16  A    between atoms: N_27  and  CA_28 
REMARK   17  A    between atoms: CA_28  and  C_29 
REMARK   18  A    between atoms: CA_28  and  CB_31 
REMARK       I    between atoms: C_29  and  N_38 
REMARK   19  A    between atoms: CB_31  and  CG_32 
REMARK   20  A    between atoms: N_38  and  CA_39 
REMARK   21  A    between atoms: CA_39  and  CB_40 
REMARK   22  A    between atoms: CA_39  and  C_47 
REMARK   23  A    between atoms: CB_40  and  CG2_41 
REMARK   24  A    between atoms: CB_40  and  OG1_42 
REMARK   25  A    between atoms: OG1_42  and  P_43 
REMARK       I    between atoms: C_47  and  N_49 
REMARK   26  A    between atoms: CA_50  and  C_51 
REMARK       I    between atoms: C_51  and  N_56 
REMARK   27  A    between atoms: N_56  and  CA_57 
REMARK   28  A    between atoms: CA_57  and  C_58 
REMARK   29  A    between atoms: CA_57  and  CB_60 
REMARK       I    between atoms: C_58  and  N_65 
REMARK   30  A    between atoms: CB_60  and  CG_61 
REMARK   31  A    between atoms: CG_61  and  CD_62 
REMARK   32  A    between atoms: N_65  and  CA_66 
REMARK   33  A    between atoms: CA_66  and  C_67 
REMARK   34  A    between atoms: CA_66  and  CB_69 
REMARK       I    between atoms: C_67  and  N_73 
REMARK   35  A    between atoms: CB_69  and  CG_70 
REMARK   36  A    between atoms: CG_70  and  CD1_71 
REMARK   37  A    between atoms: CG_70  and  CD2_72 
REMARK   38  A    between atoms: N_73  and  CA_74 
REMARK   39  A    between atoms: CA_74  and  C_75 
REMARK   40  A    between atoms: CA_74  and  CB_77 
REMARK       I    between atoms: C_75  and  N_85 
REMARK   41  A    between atoms: CB_77  and  CG_78 
REMARK   42  A    between atoms: CZ_83  and  OH_84 
REMARK   43  A    between atoms: N_85  and  CA_86 
REMARK   44  A    between atoms: CA_86  and  C_87 
REMARK   45  A    between atoms: CA_86  and  CB_89 
REMARK   46  A    between atoms: CB_89  and  CG_90 
ROOT
ATOM      1  CA  TPO d   1     -19.294  -3.932  -1.673  0.00  0.00     0.114 C 
ATOM      2  H   TPO d   1     -19.469  -3.037  -1.076  0.00  0.00     0.091 H 
ENDROOT
BRANCH   1   3
ATOM      3  N   TPO d   1     -19.569  -3.632  -3.070  0.00  0.00    -0.344 N 
ATOM      4  C   PHE d   1     -18.878  -2.708  -3.723  0.00  0.00     0.241 C 
ATOM      5  O   PHE d   1     -17.967  -2.082  -3.192  0.00  0.00    -0.271 OA
ATOM      6  H   TPO d   1     -20.307  -4.142  -3.556  0.00  0.00     0.163 HD
BRANCH   4   7
ATOM      7  CA  PHE d   1     -19.255  -2.436  -5.183  0.00  0.00     0.093 C 
ATOM      8  H   PHE d   1     -20.222  -2.861  -5.452  0.00  0.00     0.088 H 
BRANCH   7   9
ATOM      9  N   PHE d   1     -19.321  -0.976  -5.344  0.00  0.00    -0.346 N 
ATOM     10  C   TYR d   1     -20.475  -0.311  -5.193  0.00  0.00     0.241 C 
ATOM     11  O   TYR d   1     -21.552  -0.888  -5.053  0.00  0.00    -0.271 OA
ATOM     12  H   PHE d   1     -18.472  -0.459  -5.575  0.00  0.00     0.163 HD
BRANCH  10  13
ATOM     13  CA  TYR d   1     -20.442   1.232  -5.244  0.00  0.00     0.093 C 
ATOM     14  H   TYR d   1     -20.780   1.590  -4.272  0.00  0.00     0.088 H 
BRANCH  13  15
ATOM     15  N   TYR d   1     -19.109   1.749  -5.452  0.00  0.00    -0.346 N 
ATOM     16  C   ILE d   1     -18.325   2.139  -4.452  0.00  0.00     0.241 C 
ATOM     17  O   ILE d   1     -18.662   2.076  -3.266  0.00  0.00    -0.271 OA
ATOM     18  H   TYR d   1     -18.755   1.818  -6.406  0.00  0.00     0.163 HD
BRANCH  16  19
ATOM     19  CA  ILE d   1     -16.951   2.701  -4.842  0.00  0.00     0.092 C 
ATOM     20  H   ILE d   1     -16.187   2.260  -4.202  0.00  0.00     0.088 H 
BRANCH  19  21
ATOM     21  N   ILE d   1     -16.530   2.317  -6.197  0.00  0.00    -0.346 N 
ATOM     22  C   SER d   1     -16.416   1.039  -6.566  0.00  0.00     0.251 C 
ATOM     23  O   SER d   1     -16.557   0.093  -5.791  0.00  0.00    -0.271 OA
ATOM     24  H   ILE d   1     -16.319   3.049  -6.875  0.00  0.00     0.163 HD
BRANCH  22  25
ATOM     25  CA  SER d   1     -16.087   0.790  -8.038  0.00  0.00     0.195 C 
ATOM     26  H   SER d   1     -15.627   1.705  -8.412  0.00  0.00     0.102 H 
BRANCH  25  27
ATOM     27  N   SER d   1     -15.054  -0.286  -8.263  0.00  0.00    -0.064 N 
ATOM     28  H   SER d   1     -14.216  -0.069  -7.724  0.00  0.00     0.275 HD
ATOM     29  H   SER d   1     -15.430  -1.185  -7.961  0.00  0.00     0.275 HD
ATOM     30  H   SER d   1     -14.821  -0.330  -9.255  0.00  0.00     0.275 HD
ENDBRANCH  25  27
BRANCH  25  31
ATOM     31  CB  SER d   1     -17.368   0.512  -8.825  0.00  0.00     0.051 C 
ATOM     32  H   SER d   1     -17.678  -0.514  -8.629  0.00  0.00     0.077 H 
ATOM     33  H   SER d   1     -17.165   0.672  -9.884  0.00  0.00     0.077 H 
BRANCH  31  34
ATOM     34  OG  SER d   1     -18.423   1.386  -8.430  0.00  0.00    -0.398 OA
ATOM     35  H   SER d   1     -19.211   1.186  -8.941  0.00  0.00     0.209 HD
ENDBRANCH  31  34
ENDBRANCH  25  31
ENDBRANCH  22  25
ENDBRANCH  19  21
BRANCH  19  36
ATOM     36  CB  ILE d   1     -16.982   4.248  -4.622  0.00  0.00    -0.030 C 
ATOM     37  H   ILE d   1     -17.395   4.440  -3.632  0.00  0.00     0.043 H 
BRANCH  36  38
ATOM     38  CG1 ILE d   1     -17.902   4.931  -5.642  0.00  0.00    -0.063 C 
ATOM     39  H   ILE d   1     -18.854   4.401  -5.615  0.00  0.00     0.033 H 
ATOM     40  H   ILE d   1     -17.388   4.899  -6.603  0.00  0.00     0.033 H 
BRANCH  38  41
ATOM     41  CD1 ILE d   1     -18.208   6.419  -5.345  0.00  0.00    -0.076 C 
ATOM     42  H   ILE d   1     -18.698   6.501  -4.375  0.00  0.00     0.027 H 
ATOM     43  H   ILE d   1     -17.276   6.985  -5.333  0.00  0.00     0.027 H 
ATOM     44  H   ILE d   1     -18.865   6.815  -6.119  0.00  0.00     0.027 H 
ENDBRANCH  38  41
ENDBRANCH  36  38
BRANCH  36  45
ATOM     45  CG2 ILE d   1     -15.581   4.834  -4.645  0.00  0.00    -0.071 C 
ATOM     46  H   ILE d   1     -14.986   4.381  -3.852  0.00  0.00     0.028 H 
ATOM     47  H   ILE d   1     -15.118   4.629  -5.610  0.00  0.00     0.028 H 
ATOM     48  H   ILE d   1     -15.637   5.911  -4.489  0.00  0.00     0.028 H 
ENDBRANCH  36  45
ENDBRANCH  19  36
ENDBRANCH  16  19
ENDBRANCH  13  15
BRANCH  13  49
ATOM     49  CB  TYR d   1     -21.386   1.751  -6.340  0.00  0.00    -0.014 C 
ATOM     50  H   TYR d   1     -22.391   1.436  -6.058  0.00  0.00     0.043 H 
ATOM     51  H   TYR d   1     -21.015   1.351  -7.284  0.00  0.00     0.043 H 
BRANCH  49  52
ATOM     52  CG  TYR d   1     -21.436   3.271  -6.502  0.00  0.00    -0.056 A 
ATOM     53  CD1 TYR d   1     -21.811   4.093  -5.433  0.00  0.00    -0.074 A 
ATOM     54  CE1 TYR d   1     -21.881   5.492  -5.573  0.00  0.00    -0.051 A 
ATOM     55  H   TYR d   1     -22.054   3.640  -4.472  0.00  0.00     0.084 H 
ATOM     56  CZ  TYR d   1     -21.589   6.086  -6.793  0.00  0.00     0.065 A 
ATOM     57  H   TYR d   1     -22.165   6.110  -4.721  0.00  0.00     0.087 H 
ATOM     58  CE2 TYR d   1     -21.216   5.296  -7.895  0.00  0.00    -0.051 A 
ATOM     59  CD2 TYR d   1     -21.137   3.883  -7.733  0.00  0.00    -0.074 A 
ATOM     60  H   TYR d   1     -20.991   5.757  -8.857  0.00  0.00     0.087 H 
ATOM     61  H   TYR d   1     -20.839   3.264  -8.579  0.00  0.00     0.084 H 
BRANCH  56  62
ATOM     62  OH  TYR d   1     -21.672   7.465  -6.885  0.00  0.00    -0.361 OA
ATOM     63  H   TYR d   1     -21.940   7.826  -6.037  0.00  0.00     0.217 HD
ENDBRANCH  56  62
ENDBRANCH  49  52
ENDBRANCH  13  49
ENDBRANCH  10  13
ENDBRANCH   7   9
BRANCH   7  64
ATOM     64  CB  PHE d   1     -18.215  -3.102  -6.110  0.00  0.00    -0.014 C 
ATOM     65  H   PHE d   1     -18.290  -4.176  -5.937  0.00  0.00     0.043 H 
ATOM     66  H   PHE d   1     -17.253  -2.650  -5.869  0.00  0.00     0.043 H 
BRANCH  64  67
ATOM     67  CG  PHE d   1     -18.430  -2.889  -7.609  0.00  0.00    -0.056 A 
ATOM     68  CD1 PHE d   1     -19.611  -2.328  -8.129  0.00  0.00    -0.077 A 
ATOM     69  CE1 PHE d   1     -19.785  -2.160  -9.512  0.00  0.00    -0.082 A 
ATOM     70  H   PHE d   1     -20.403  -2.019  -7.447  0.00  0.00     0.084 H 
ATOM     71  CZ  PHE d   1     -18.753  -2.550 -10.411  0.00  0.00    -0.083 A 
ATOM     72  H   PHE d   1     -20.710  -1.731  -9.897  0.00  0.00     0.083 H 
ATOM     73  CE2 PHE d   1     -17.584  -3.119  -9.905  0.00  0.00    -0.082 A 
ATOM     74  H   PHE d   1     -18.875  -2.405 -11.485  0.00  0.00     0.083 H 
ATOM     75  CD2 PHE d   1     -17.437  -3.301  -8.504  0.00  0.00    -0.077 A 
ATOM     76  H   PHE d   1     -16.786  -3.423 -10.583  0.00  0.00     0.083 H 
ATOM     77  H   PHE d   1     -16.532  -3.771  -8.118  0.00  0.00     0.084 H 
ENDBRANCH  64  67
ENDBRANCH   7  64
ENDBRANCH   4   7
ENDBRANCH   1   3
BRANCH   1  78
ATOM     78  CB  TPO d   1     -20.220  -5.033  -1.164  0.00  0.00     0.076 C 
ATOM     79  H   TPO d   1     -19.935  -5.973  -1.636  0.00  0.00     0.087 H 
BRANCH  78  80
ATOM     80  CG2 TPO d   1     -20.101  -5.224   0.350  0.00  0.00    -0.049 C 
ATOM     81  H   TPO d   1     -19.076  -5.496   0.601  0.00  0.00     0.031 H 
ATOM     82  H   TPO d   1     -20.366  -4.295   0.854  0.00  0.00     0.031 H 
ATOM     83  H   TPO d   1     -20.777  -6.017   0.669  0.00  0.00     0.031 H 
ENDBRANCH  78  80
BRANCH  78  84
ATOM     84  OG1 TPO d   1     -21.561  -4.679  -1.494  0.00  0.00    -0.275 OA
BRANCH  84  85
ATOM     85  P   TPO d   1     -22.428  -5.442  -2.636  0.00  0.00     0.422 P 
ATOM     86  O1P TPO d   1     -23.830  -5.027  -2.334  0.00  0.00    -0.617 OA
ATOM     87  O2P TPO d   1     -21.892  -4.901  -3.931  0.00  0.00    -0.617 OA
ATOM     88  O3P TPO d   1     -22.179  -6.912  -2.389  0.00  0.00    -0.617 OA
ENDBRANCH  84  85
ENDBRANCH  78  84
ENDBRANCH   1  78
BRANCH   1  89
ATOM     89  C   TPO d   1     -17.855  -4.369  -1.537  0.00  0.00     0.246 C 
ATOM     90  O   TPO d   1     -17.416  -5.269  -2.263  0.00  0.00    -0.271 OA
ATOM     91  N   PRO d   1     -17.091  -3.728  -0.625  0.00  0.00    -0.337 N 
ATOM     92  CA  PRO d   1     -15.704  -4.157  -0.415  0.00  0.00     0.091 C 
ATOM     93  CD  PRO d   1     -17.421  -2.512   0.141  0.00  0.00    -0.001 C 
ATOM     94  CB  PRO d   1     -15.248  -3.329   0.794  0.00  0.00    -0.036 C 
ATOM     95  H   PRO d   1     -15.096  -4.000  -1.306  0.00  0.00     0.087 H 
ATOM     96  CG  PRO d   1     -16.068  -2.059   0.712  0.00  0.00    -0.048 C 
ATOM     97  H   PRO d   1     -14.177  -3.127   0.771  0.00  0.00     0.036 H 
ATOM     98  H   PRO d   1     -15.405  -3.857   1.734  0.00  0.00     0.036 H 
ATOM     99  H   PRO d   1     -15.592  -1.304   0.086  0.00  0.00     0.035 H 
ATOM    100  H   PRO d   1     -16.175  -1.578   1.684  0.00  0.00     0.035 H 
ATOM    101  H   PRO d   1     -18.158  -2.701   0.921  0.00  0.00     0.064 H 
ATOM    102  H   PRO d   1     -17.887  -1.746  -0.478  0.00  0.00     0.064 H 
BRANCH  92 103
ATOM    103  C   PRO d   1     -15.583  -5.655  -0.124  0.00  0.00     0.241 C 
ATOM    104  O   PRO d   1     -16.479  -6.252   0.492  0.00  0.00    -0.271 OA
ATOM    105  N   GLU d   1     -14.492  -6.249  -0.609  0.00  0.00    -0.346 N 
ATOM    106  H   GLU d   1     -13.887  -5.715  -1.233  0.00  0.00     0.163 HD
BRANCH 105 107
ATOM    107  CA  GLU d   1     -14.121  -7.621  -0.292  0.00  0.00     0.090 C 
ATOM    108  H   GLU d   1     -14.955  -8.264  -0.573  0.00  0.00     0.087 H 
BRANCH 107 109
ATOM    109  C   GLU d   1     -13.851  -7.795   1.212  0.00  0.00     0.241 C 
ATOM    110  O   GLU d   1     -13.634  -6.820   1.928  0.00  0.00    -0.271 OA
ATOM    111  N   LEU d   1     -13.815  -9.043   1.666  0.00  0.00    -0.346 N 
ATOM    112  H   LEU d   1     -14.014  -9.804   1.016  0.00  0.00     0.163 HD
BRANCH 111 113
ATOM    113  CA  LEU d   1     -13.502  -9.375   3.061  0.00  0.00     0.089 C 
ATOM    114  H   LEU d   1     -13.802  -8.535   3.687  0.00  0.00     0.087 H 
BRANCH 113 115
ATOM    115  C   LEU d   1     -11.995  -9.575   3.276  0.00  0.00     0.241 C 
ATOM    116  O   LEU d   1     -11.567 -10.057   4.327  0.00  0.00    -0.271 OA
ATOM    117  N   TYR d   1     -11.208  -9.176   2.275  0.00  0.00    -0.346 N 
ATOM    118  H   TYR d   1     -11.650  -8.702   1.487  0.00  0.00     0.163 HD
BRANCH 117 119
ATOM    119  CA  TYR d   1      -9.758  -9.368   2.224  0.00  0.00     0.093 C 
ATOM    120  H   TYR d   1      -9.422  -9.531   3.248  0.00  0.00     0.088 H 
BRANCH 119 121
ATOM    121  C   TYR d   1      -9.030  -8.149   1.669  0.00  0.00     0.241 C 
ATOM    122  O   TYR d   1      -9.588  -7.416   0.856  0.00  0.00    -0.271 OA
ATOM    123  N   ASP d   1      -7.787  -7.952   2.103  0.00  0.00    -0.344 N 
ATOM    124  H   ASP d   1      -7.467  -8.481   2.914  0.00  0.00     0.163 HD
BRANCH 123 125
ATOM    125  CA  ASP d   1      -6.853  -7.010   1.470  0.00  0.00     0.105 C 
ATOM    126  H   ASP d   1      -7.356  -6.045   1.406  0.00  0.00     0.090 H 
BRANCH 125 127
ATOM    127  C   ASP d   1      -6.470  -7.509   0.080  0.00  0.00     0.197 C 
ATOM    128  O   ASP d   1      -7.015  -7.053  -0.923  0.00  0.00    -0.646 OA
ATOM    129  O1  ASP d   1      -5.585  -8.398  -0.041  0.00  0.00    -0.646 OA
ENDBRANCH 125 127
BRANCH 125 130
ATOM    130  CB  ASP d   1      -5.565  -6.858   2.297  0.00  0.00     0.044 C 
ATOM    131  H   ASP d   1      -4.919  -6.151   1.777  0.00  0.00     0.053 H 
ATOM    132  H   ASP d   1      -5.120  -7.848   2.401  0.00  0.00     0.053 H 
BRANCH 130 133
ATOM    133  CG  ASP d   1      -5.814  -6.312   3.700  0.00  0.00     0.175 C 
ATOM    134  OD1 ASP d   1      -6.911  -5.785   3.978  0.00  0.00    -0.648 OA
ATOM    135  OD2 ASP d   1      -4.893  -6.397   4.535  0.00  0.00    -0.648 OA
ENDBRANCH 130 133
ENDBRANCH 125 130
ENDBRANCH 123 125
ENDBRANCH 119 121
BRANCH 119 136
ATOM    136  CB  TYR d   1      -9.429 -10.573   1.335  0.00  0.00    -0.014 C 
ATOM    137  H   TYR d   1      -8.348 -10.711   1.347  0.00  0.00     0.043 H 
ATOM    138  H   TYR d   1      -9.819 -10.368   0.338  0.00  0.00     0.043 H 
BRANCH 136 139
ATOM    139  CG  TYR d   1     -10.065 -11.857   1.826  0.00  0.00    -0.056 A 
ATOM    140  CD1 TYR d   1      -9.442 -12.624   2.802  0.00  0.00    -0.074 A 
ATOM    141  CE1 TYR d   1     -10.018 -13.796   3.275  0.00  0.00    -0.051 A 
ATOM    142  H   TYR d   1      -8.482 -12.300   3.205  0.00  0.00     0.084 H 
ATOM    143  CZ  TYR d   1     -11.241 -14.212   2.773  0.00  0.00     0.065 A 
ATOM    144  H   TYR d   1      -9.510 -14.386   4.038  0.00  0.00     0.087 H 
ATOM    145  CE2 TYR d   1     -11.895 -13.466   1.801  0.00  0.00    -0.051 A 
ATOM    146  CD2 TYR d   1     -11.306 -12.285   1.333  0.00  0.00    -0.074 A 
ATOM    147  H   TYR d   1     -12.856 -13.796   1.407  0.00  0.00     0.087 H 
ATOM    148  H   TYR d   1     -11.818 -11.691   0.576  0.00  0.00     0.084 H 
BRANCH 143 149
ATOM    149  OH  TYR d   1     -11.788 -15.381   3.245  0.00  0.00    -0.361 OA
ATOM    150  H   TYR d   1     -11.206 -15.761   3.907  0.00  0.00     0.217 HD
ENDBRANCH 143 149
ENDBRANCH 136 139
ENDBRANCH 119 136
ENDBRANCH 117 119
ENDBRANCH 113 115
BRANCH 113 151
ATOM    151  CB  LEU d   1     -14.289 -10.623   3.485  0.00  0.00    -0.035 C 
ATOM    152  H   LEU d   1     -13.887 -10.902   4.459  0.00  0.00     0.037 H 
ATOM    153  H   LEU d   1     -14.175 -11.330   2.663  0.00  0.00     0.037 H 
BRANCH 151 154
ATOM    154  CG  LEU d   1     -15.805 -10.482   3.695  0.00  0.00    -0.059 C 
ATOM    155  H   LEU d   1     -16.199  -9.931   2.841  0.00  0.00     0.038 H 
BRANCH 154 156
ATOM    156  CD1 LEU d   1     -16.452 -11.843   3.753  0.00  0.00    -0.073 C 
ATOM    157  H   LEU d   1     -16.269 -12.371   2.817  0.00  0.00     0.028 H 
ATOM    158  H   LEU d   1     -16.028 -12.411   4.581  0.00  0.00     0.028 H 
ATOM    159  H   LEU d   1     -17.526 -11.727   3.902  0.00  0.00     0.028 H 
ENDBRANCH 154 156
BRANCH 154 160
ATOM    160  CD2 LEU d   1     -16.154  -9.661   4.961  0.00  0.00    -0.073 C 
ATOM    161  H   LEU d   1     -15.737 -10.155   5.839  0.00  0.00     0.028 H 
ATOM    162  H   LEU d   1     -15.732  -8.660   4.871  0.00  0.00     0.028 H 
ATOM    163  H   LEU d   1     -17.237  -9.593   5.061  0.00  0.00     0.028 H 
ENDBRANCH 154 160
ENDBRANCH 151 154
ENDBRANCH 113 151
ENDBRANCH 111 113
ENDBRANCH 107 109
BRANCH 107 164
ATOM    164  CB  GLU d   1     -12.858  -8.018  -1.079  0.00  0.00    -0.029 C 
ATOM    165  H   GLU d   1     -12.571  -9.007  -0.721  0.00  0.00     0.037 H 
ATOM    166  H   GLU d   1     -12.130  -7.223  -0.914  0.00  0.00     0.037 H 
BRANCH 164 167
ATOM    167  CG  GLU d   1     -13.028  -8.140  -2.599  0.00  0.00     0.018 C 
ATOM    168  H   GLU d   1     -12.916  -7.146  -3.032  0.00  0.00     0.049 H 
ATOM    169  H   GLU d   1     -14.010  -8.570  -2.795  0.00  0.00     0.049 H 
BRANCH 167 170
ATOM    170  CD  GLU d   1     -11.981  -9.049  -3.228  0.00  0.00     0.172 C 
ATOM    171  OE1 GLU d   1     -10.788  -8.966  -2.848  0.00  0.00    -0.648 OA
ATOM    172  OE2 GLU d   1     -12.346  -9.878  -4.084  0.00  0.00    -0.648 OA
ENDBRANCH 167 170
ENDBRANCH 164 167
ENDBRANCH 107 164
ENDBRANCH 105 107
ENDBRANCH  92 103
ENDBRANCH   1  89
TORSDOF 46
