REMARK  9 active torsions:
REMARK  status: ('A' for Active; 'I' for Inactive)
REMARK    1  A    between atoms: N1_1  and  C7_7 
REMARK    2  A    between atoms: N4_4  and  C8_8 
REMARK    3  A    between atoms: C10_10  and  N14_14 
REMARK    4  A    between atoms: C12_12  and  S23_21 
REMARK    5  A    between atoms: N14_14  and  C15_15 
REMARK    6  A    between atoms: C18_17  and  C21_20 
REMARK    7  A    between atoms: S23_21  and  C24_22 
REMARK    8  A    between atoms: C27_25  and  N30_28 
REMARK       I    between atoms: N30_28  and  C31_29 
REMARK    9  A    between atoms: C31_29  and  C33_31 
ROOT
ATOM      1  C8  VX6 d   1     -30.969  -9.757 -10.585  0.00  0.00     0.132 A 
ATOM      2  C9  VX6 d   1     -31.939  -9.690  -9.580  0.00  0.00     0.006 A 
ATOM      3  C10 VX6 d   1     -31.557  -9.807  -8.236  0.00  0.00     0.135 A 
ATOM      4  N11 VX6 d   1     -30.257  -9.980  -7.947  0.00  0.00    -0.205 NA
ATOM      5  C12 VX6 d   1     -29.341 -10.038  -8.929  0.00  0.00     0.197 A 
ATOM      6  N13 VX6 d   1     -29.690  -9.929 -10.222  0.00  0.00    -0.205 NA
ATOM      7  H   VX6 d   1     -32.988  -9.547  -9.840  0.00  0.00     0.095 H 
ENDROOT
BRANCH   5   8
ATOM      8  S23 VX6 d   1     -27.647 -10.277  -8.587  0.00  0.00    -0.050 SA
BRANCH   8   9
ATOM      9  C24 VX6 d   1     -27.498  -9.983  -6.840  0.00  0.00     0.008 A 
ATOM     10  C25 VX6 d   1     -27.455  -8.680  -6.342  0.00  0.00    -0.064 A 
ATOM     11  C26 VX6 d   1     -27.336  -8.444  -4.964  0.00  0.00    -0.056 A 
ATOM     12  H   VX6 d   1     -27.515  -7.837  -7.030  0.00  0.00     0.085 H 
ATOM     13  C27 VX6 d   1     -27.235  -9.517  -4.076  0.00  0.00     0.034 A 
ATOM     14  H   VX6 d   1     -27.322  -7.422  -4.586  0.00  0.00     0.087 H 
ATOM     15  C28 VX6 d   1     -27.250 -10.822  -4.588  0.00  0.00    -0.056 A 
ATOM     16  C29 VX6 d   1     -27.385 -11.057  -5.961  0.00  0.00    -0.064 A 
ATOM     17  H   VX6 d   1     -27.155 -11.667  -3.906  0.00  0.00     0.087 H 
ATOM     18  H   VX6 d   1     -27.402 -12.078  -6.341  0.00  0.00     0.085 H 
BRANCH  13  19
ATOM     19  N30 VX6 d   1     -27.094  -9.243  -2.764  0.00  0.00    -0.327 N 
ATOM     20  C31 VX6 d   1     -27.142 -10.087  -1.735  0.00  0.00     0.226 C 
ATOM     21  O32 VX6 d   1     -27.365 -11.304  -1.798  0.00  0.00    -0.273 OA
ATOM     22  H   VX6 d   1     -26.930  -8.264  -2.529  0.00  0.00     0.169 HD
BRANCH  20  23
ATOM     23  C33 VX6 d   1     -26.920  -9.406  -0.399  0.00  0.00     0.024 A 
ATOM     24  C34 VX6 d   1     -27.811  -9.928   0.748  0.00  0.00    -0.053 A 
ATOM     25  C35 VX6 d   1     -26.310 -10.276   0.706  0.00  0.00    -0.053 A 
ATOM     26  H   VX6 d   1     -28.767 -10.434   0.879  0.00  0.00     0.034 H 
ATOM     27  H   VX6 d   1     -28.545  -9.545   1.457  0.00  0.00     0.034 H 
ATOM     28  H   VX6 d   1     -25.450 -10.259   1.376  0.00  0.00     0.034 H 
ATOM     29  H   VX6 d   1     -25.675 -11.158   0.792  0.00  0.00     0.034 H 
ATOM     30  H   VX6 d   1     -26.685  -8.428  -0.820  0.00  0.00     0.054 H 
ENDBRANCH  20  23
ENDBRANCH  13  19
ENDBRANCH   8   9
ENDBRANCH   5   8
BRANCH   3  31
ATOM     31  N14 VX6 d   1     -32.502  -9.734  -7.289  0.00  0.00    -0.324 N 
ATOM     32  H   VX6 d   1     -33.446  -9.552  -7.630  0.00  0.00     0.169 HD
BRANCH  31  33
ATOM     33  C15 VX6 d   1     -32.390  -9.865  -5.952  0.00  0.00     0.151 A 
ATOM     34  C17 VX6 d   1     -31.316 -10.134  -5.175  0.00  0.00    -0.014 A 
ATOM     35  C18 VX6 d   1     -31.823 -10.142  -3.940  0.00  0.00     0.027 A 
ATOM     36  H   VX6 d   1     -30.284 -10.303  -5.483  0.00  0.00     0.092 H 
ATOM     37  N19 VX6 d   1     -33.124  -9.883  -3.994  0.00  0.00    -0.281 N 
ATOM     38  N20 VX6 d   1     -33.448  -9.708  -5.167  0.00  0.00    -0.157 NA
ATOM     39  H   VX6 d   1     -33.753  -9.837  -3.192  0.00  0.00     0.189 HD
BRANCH  35  40
ATOM     40  C21 VX6 d   1     -31.084 -10.397  -2.618  0.00  0.00    -0.036 C 
ATOM     41  H   VX6 d   1     -30.637 -11.391  -2.639  0.00  0.00     0.035 H 
ATOM     42  H   VX6 d   1     -30.302  -9.648  -2.490  0.00  0.00     0.035 H 
ATOM     43  H   VX6 d   1     -31.790 -10.332  -1.790  0.00  0.00     0.035 H 
ENDBRANCH  35  40
ENDBRANCH  31  33
ENDBRANCH   3  31
BRANCH   1  44
ATOM     44  N4  VX6 d   1     -31.282  -9.631 -11.961  0.00  0.00    -0.362 N 
ATOM     45  C3  VX6 d   1     -30.198  -9.738 -13.002  0.00  0.00     0.021 C 
ATOM     46  C2  VX6 d   1     -30.341  -8.625 -14.049  0.00  0.00     0.127 C 
ATOM     47  H   VX6 d   1     -29.229  -9.640 -12.513  0.00  0.00     0.067 H 
ATOM     48  H   VX6 d   1     -30.282 -10.704 -13.500  0.00  0.00     0.067 H 
ATOM     49  N1  VX6 d   1     -31.751  -8.481 -14.485  0.00  0.00     0.087 N 
ATOM     50  H   VX6 d   1     -30.015  -7.684 -13.605  0.00  0.00     0.082 H 
ATOM     51  H   VX6 d   1     -29.732  -8.881 -14.916  0.00  0.00     0.082 H 
ATOM     52  C6  VX6 d   1     -32.681  -8.169 -13.373  0.00  0.00     0.127 C 
ATOM     53  C5  VX6 d   1     -32.687  -9.355 -12.402  0.00  0.00     0.021 C 
ATOM     54  H   VX6 d   1     -33.685  -8.000 -13.762  0.00  0.00     0.082 H 
ATOM     55  H   VX6 d   1     -32.356  -7.266 -12.857  0.00  0.00     0.082 H 
ATOM     56  H   VX6 d   1     -33.304  -9.118 -11.536  0.00  0.00     0.067 H 
ATOM     57  H   VX6 d   1     -33.096 -10.235 -12.899  0.00  0.00     0.067 H 
BRANCH  49  58
ATOM     58  C7  VX6 d   1     -31.818  -7.373 -15.442  0.00  0.00     0.095 C 
ATOM     59  H   VX6 d   1     -32.838  -7.277 -15.814  0.00  0.00     0.071 H 
ATOM     60  H   VX6 d   1     -31.522  -6.448 -14.947  0.00  0.00     0.071 H 
ATOM     61  H   VX6 d   1     -31.143  -7.572 -16.274  0.00  0.00     0.071 H 
ENDBRANCH  49  58
ENDBRANCH   1  44
TORSDOF 9
