REMARK  11 active torsions:
REMARK  status: ('A' for Active; 'I' for Inactive)
REMARK    1  A    between atoms: C7_7  and  C1_1 
REMARK    2  A    between atoms: C18_17  and  C8_8 
REMARK    3  A    between atoms: C9_9  and  C14_13 
REMARK    4  A    between atoms: C11_10  and  C15_14 
REMARK    5  A    between atoms: C12_11  and  C13_12 
REMARK    6  A    between atoms: C17_16  and  C16_15 
REMARK    7  A    between atoms: N10_21  and  C17_16 
REMARK    8  A    between atoms: O8_27  and  C18_17 
REMARK    9  A    between atoms: C19_18  and  C20_19 
REMARK   10  A    between atoms: C19_18  and  C21_20 
REMARK   11  A    between atoms: C19_18  and  O8_27 
ROOT
ATOM      1  C7  BIN d   1      27.880   1.658  51.489  0.00  0.00     0.041 C 
ATOM      2  C8  BIN d   1      26.928   0.246  51.441  0.00  0.00     0.053 C 
ATOM      3  C9  BIN d   1      29.929   0.311  50.691  0.00  0.00     0.126 C 
ATOM      4  C11 BIN d   1      27.558  -1.021  51.196  0.00  0.00     0.021 C 
ATOM      5  C12 BIN d   1      29.276   1.651  50.868  0.00  0.00     0.065 C 
ATOM      6  N10 BIN d   1      29.099  -0.967  51.140  0.00  0.00    -0.344 N 
ATOM      7  H5  BIN d   1      27.313   2.382  50.886  0.00  0.00     0.063 H 
ENDROOT
BRANCH   2   8
ATOM      8  C18 BIN d   1      25.321   0.430  51.627  0.00  0.00     0.292 C 
ATOM      9  O8A BIN d   1      24.601  -0.453  52.016  0.00  0.00    -0.259 OA
BRANCH   8  10
ATOM     10  O8  BIN d   1      24.879   1.703  51.310  0.00  0.00    -0.313 OA
BRANCH  10  11
ATOM     11  C19 BIN d   1      23.313   2.035  51.396  0.00  0.00     0.041 C 
ATOM     12  H14 BIN d   1      22.684   1.159  51.179  0.00  0.00     0.083 H 
BRANCH  11  13
ATOM     13  C20 BIN d   1      23.148   2.468  52.895  0.00  0.00    -0.052 C 
ATOM     14  H15 BIN d   1      22.096   2.727  53.088  0.00  0.00     0.030 H 
ATOM     15  H16 BIN d   1      23.784   3.343  53.096  0.00  0.00     0.030 H 
ATOM     16  H17 BIN d   1      23.448   1.638  53.552  0.00  0.00     0.030 H 
ENDBRANCH  11  13
BRANCH  11  17
ATOM     17  C21 BIN d   1      23.059   3.116  50.359  0.00  0.00    -0.052 C 
ATOM     18  H18 BIN d   1      23.203   2.699  49.352  0.00  0.00     0.030 H 
ATOM     19  H19 BIN d   1      23.762   3.947  50.516  0.00  0.00     0.030 H 
ATOM     20  H20 BIN d   1      22.027   3.485  50.459  0.00  0.00     0.030 H 
ENDBRANCH  11  17
ENDBRANCH  10  11
ENDBRANCH   8  10
ENDBRANCH   2   8
BRANCH   1  21
ATOM     21  C1  BIN d   1      27.961   2.269  52.947  0.00  0.00    -0.023 A 
ATOM     22  C2  BIN d   1      27.316   3.634  53.340  0.00  0.00     0.041 A 
ATOM     23  C3  BIN d   1      27.449   4.120  54.724  0.00  0.00    -0.061 A 
ATOM     24 CL2  BIN d   1      26.498   4.592  52.289  0.00  0.00    -0.084 Cl
ATOM     25  C4  BIN d   1      28.234   3.264  55.685  0.00  0.00    -0.081 A 
ATOM     26  H1  BIN d   1      27.001   5.055  55.039  0.00  0.00     0.086 H 
ATOM     27  C5  BIN d   1      28.821   2.064  55.371  0.00  0.00    -0.082 A 
ATOM     28  H2  BIN d   1      28.343   3.624  56.702  0.00  0.00     0.083 H 
ATOM     29  C6  BIN d   1      28.687   1.560  54.022  0.00  0.00    -0.074 A 
ATOM     30  H3  BIN d   1      29.373   1.506  56.118  0.00  0.00     0.083 H 
ATOM     31  H4  BIN d   1      29.146   0.607  53.785  0.00  0.00     0.084 H 
ENDBRANCH   1  21
BRANCH   4  32
ATOM     32  C15 BIN d   1      26.901  -2.395  51.028  0.00  0.00    -0.037 C 
ATOM     33  H6  BIN d   1      25.808  -2.288  51.088  0.00  0.00     0.035 H 
ATOM     34  H7  BIN d   1      27.248  -3.068  51.826  0.00  0.00     0.035 H 
ATOM     35  H8  BIN d   1      27.175  -2.815  50.049  0.00  0.00     0.035 H 
ENDBRANCH   4  32
BRANCH   5  36
ATOM     36  C13 BIN d   1      29.982   3.059  50.550  0.00  0.00     0.208 C 
ATOM     37  O3A BIN d   1      31.208   3.310  50.593  0.00  0.00    -0.644 OA
ATOM     38  O3B BIN d   1      29.244   4.071  50.293  0.00  0.00    -0.644 OA
ENDBRANCH   5  36
BRANCH   6  39
ATOM     39  C17 BIN d   1      29.841  -2.149  51.643  0.00  0.00    -0.003 C 
ATOM     40  H12 BIN d   1      29.211  -3.025  51.430  0.00  0.00     0.064 H 
ATOM     41  H13 BIN d   1      30.766  -2.210  51.051  0.00  0.00     0.064 H 
BRANCH  39  42
ATOM     42  C16 BIN d   1      30.248  -2.259  53.077  0.00  0.00    -0.061 C 
ATOM     43  H9  BIN d   1      30.783  -3.207  53.234  0.00  0.00     0.029 H 
ATOM     44  H10 BIN d   1      29.353  -2.233  53.715  0.00  0.00     0.029 H 
ATOM     45  H11 BIN d   1      30.908  -1.418  53.337  0.00  0.00     0.029 H 
ENDBRANCH  39  42
ENDBRANCH   6  39
BRANCH   3  46
ATOM     46  C14 BIN d   1      31.298   0.227  50.143  0.00  0.00     0.227 C 
ATOM     47  O4A BIN d   1      31.428  -0.172  48.941  0.00  0.00    -0.643 OA
ATOM     48  O4B BIN d   1      32.149   0.604  50.994  0.00  0.00    -0.643 OA
ENDBRANCH   3  46
TORSDOF 11
