REMARK  6 active torsions:
REMARK  status: ('A' for Active; 'I' for Inactive)
REMARK    1  A    between atoms: N_1  and  C11_14 
REMARK    2  A    between atoms: C1_4  and  O13_16 
REMARK    3  A    between atoms: C8_11  and  C7_10 
REMARK    4  A    between atoms: C8_11  and  C9_12 
REMARK    5  A    between atoms: C9_12  and  C10_13 
REMARK    6  A    between atoms: C11_14  and  C12_15 
ROOT
ATOM      1  N   EHB d   1       5.747  27.336  12.013  0.00  0.00    -0.343 N 
ATOM      2  S   EHB d   1       7.538  25.966  12.918  0.00  0.00    -0.074 SA
ATOM      3  C1  EHB d   1       8.228  29.022  10.022  0.00  0.00     0.068 A 
ATOM      4  C2  EHB d   1       6.993  28.722  10.524  0.00  0.00    -0.024 A 
ATOM      5  C3  EHB d   1       6.831  27.712  11.464  0.00  0.00     0.055 A 
ATOM      6  C4  EHB d   1       7.922  26.994  11.912  0.00  0.00     0.033 A 
ATOM      7  C5  EHB d   1       9.167  27.298  11.406  0.00  0.00    -0.061 A 
ATOM      8  C6  EHB d   1       9.321  28.307  10.463  0.00  0.00    -0.050 A 
ATOM      9  C7  EHB d   1       6.007  26.311  12.882  0.00  0.00     0.061 A 
ATOM     10  H   EHB d   1       6.123  29.283  10.182  0.00  0.00     0.091 H 
ATOM     11  H   EHB d   1      10.040  26.742  11.749  0.00  0.00     0.085 H 
ATOM     12  H   EHB d   1      10.312  28.534  10.070  0.00  0.00     0.087 H 
ENDROOT
BRANCH   9  13
ATOM     13  C8  EHB d   1       5.092  25.641  13.663  0.00  0.00     0.034 C 
ATOM     14  H   EHB d   1       4.489  25.124  12.916  0.00  0.00     0.054 H 
ATOM     15  H   EHB d   1       4.738  26.429  14.327  0.00  0.00     0.054 H 
BRANCH  13  16
ATOM     16  C9  EHB d   1       5.389  24.620  14.555  0.00  0.00     0.129 C 
ATOM     17  O   EHB d   1       6.562  24.197  14.746  0.00  0.00    -0.298 OA
BRANCH  16  18
ATOM     18  C10 EHB d   1       4.233  24.020  15.331  0.00  0.00    -0.021 C 
ATOM     19  H   EHB d   1       4.168  22.953  15.117  0.00  0.00     0.037 H 
ATOM     20  H   EHB d   1       4.398  24.168  16.398  0.00  0.00     0.037 H 
ATOM     21  H   EHB d   1       3.305  24.509  15.034  0.00  0.00     0.037 H 
ENDBRANCH  16  18
ENDBRANCH  13  16
ENDBRANCH   9  13
BRANCH   1  22
ATOM     22  C11 EHB d   1       4.464  28.072  11.610  0.00  0.00    -0.003 C 
ATOM     23  H   EHB d   1       4.308  27.803  10.565  0.00  0.00     0.064 H 
ATOM     24  H   EHB d   1       4.648  29.113  11.876  0.00  0.00     0.064 H 
BRANCH  22  25
ATOM     25  C12 EHB d   1       3.183  27.733  12.281  0.00  0.00    -0.061 C 
ATOM     26  H   EHB d   1       2.953  26.681  12.112  0.00  0.00     0.029 H 
ATOM     27  H   EHB d   1       3.275  27.919  13.351  0.00  0.00     0.029 H 
ATOM     28  H   EHB d   1       2.385  28.351  11.870  0.00  0.00     0.029 H 
ENDBRANCH  22  25
ENDBRANCH   1  22
BRANCH   3  29
ATOM     29  O13 EHB d   1       8.363  30.035   9.084  0.00  0.00    -0.361 OA
ATOM     30  H   EHB d   1       7.501  30.416   8.900  0.00  0.00     0.217 HD
ENDBRANCH   3  29
TORSDOF 6
