REMARK  3 active torsions:
REMARK  status: ('A' for Active; 'I' for Inactive)
REMARK    1  A    between atoms: CAB_1  and  CAL_2 
REMARK    2  A    between atoms: CAK_14  and  OAJ_15 
REMARK    3  A    between atoms: OAJ_15  and  CAA_16 
ROOT
ATOM      1  CAL HRM d   1       5.985  25.242  13.874  0.00  0.00     0.058 A 
ATOM      2  NAH HRM d   1       6.834  24.324  14.460  0.00  0.00    -0.264 NA
ATOM      3  CAC HRM d   1       8.181  24.260  14.199  0.00  0.00     0.003 A 
ATOM      4  CAE HRM d   1       8.742  25.168  13.288  0.00  0.00    -0.053 A 
ATOM      5  CAO HRM d   1       7.881  26.127  12.676  0.00  0.00     0.006 A 
ATOM      6  CAP HRM d   1       6.501  26.161  12.972  0.00  0.00     0.068 A 
ATOM      7  NAI HRM d   1       5.966  27.151  12.253  0.00  0.00    -0.353 N 
ATOM      8  CAM HRM d   1       6.900  27.725  11.545  0.00  0.00     0.046 A 
ATOM      9  CAG HRM d   1       6.793  28.775  10.676  0.00  0.00    -0.024 A 
ATOM     10  CAN HRM d   1       8.125  27.125  11.764  0.00  0.00     0.003 A 
ATOM     11  CAF HRM d   1       9.342  27.551  11.101  0.00  0.00    -0.067 A 
ATOM     12  CAD HRM d   1       9.240  28.648  10.180  0.00  0.00    -0.050 A 
ATOM     13  CAK HRM d   1       7.948  29.240   9.993  0.00  0.00     0.070 A 
ATOM     14  H   HRM d   1       8.805  23.515  14.692  0.00  0.00     0.114 H 
ATOM     15  H   HRM d   1       9.806  25.141  13.054  0.00  0.00     0.087 H 
ATOM     16  H   HRM d   1       4.981  27.417  12.257  0.00  0.00     0.166 HD
ATOM     17  H   HRM d   1       5.827  29.252  10.508  0.00  0.00     0.091 H 
ATOM     18  H   HRM d   1      10.295  27.059  11.294  0.00  0.00     0.085 H 
ATOM     19  H   HRM d   1      10.114  29.017   9.643  0.00  0.00     0.087 H 
ENDROOT
BRANCH  13  20
ATOM     20  OAJ HRM d   1       7.832  30.307   9.100  0.00  0.00    -0.356 OA
BRANCH  20  21
ATOM     21  CAA HRM d   1       6.546  31.051   8.991  0.00  0.00     0.010 C 
ATOM     22  H   HRM d   1       5.755  30.365   8.687  0.00  0.00     0.066 H 
ATOM     23  H   HRM d   1       6.297  31.488   9.958  0.00  0.00     0.066 H 
ATOM     24  H   HRM d   1       6.647  31.843   8.249  0.00  0.00     0.066 H 
ENDBRANCH  20  21
ENDBRANCH  13  20
BRANCH   1  25
ATOM     25  CAB HRM d   1       4.502  25.204  14.241  0.00  0.00    -0.033 C 
ATOM     26  H   HRM d   1       4.213  26.160  14.678  0.00  0.00     0.035 H 
ATOM     27  H   HRM d   1       3.912  25.019  13.344  0.00  0.00     0.035 H 
ATOM     28  H   HRM d   1       4.328  24.406  14.963  0.00  0.00     0.035 H 
ENDBRANCH   1  25
TORSDOF 3
