REMARK  3 active torsions:
REMARK  status: ('A' for Active; 'I' for Inactive)
REMARK    1  A    between atoms: C5_5  and  C7_7 
REMARK       I    between atoms: C7_7  and  N8_8 
REMARK    2  A    between atoms: N8_8  and  C9_9 
REMARK    3  A    between atoms: C10_10  and  C12_12 
ROOT
ATOM      1  C1  S38 d   1      22.152  26.620 116.245  0.00  0.00    -0.062 A 
ATOM      2  C2  S38 d   1      22.192  27.451 115.153  0.00  0.00     0.044 A 
ATOM      3  C3  S38 d   1      23.242  27.427 114.260  0.00  0.00    -0.062 A 
ATOM      4  C4  S38 d   1      24.284  26.550 114.463  0.00  0.00    -0.066 A 
ATOM      5  C5  S38 d   1      24.231  25.719 115.559  0.00  0.00     0.032 A 
ATOM      6  C6  S38 d   1      23.185  25.741 116.453  0.00  0.00    -0.066 A 
ATOM      7  C19 S38 d   1      21.112  28.346 114.967  0.00  0.00     0.099 C 
ATOM      8  N20 S38 d   1      20.244  29.103 114.826  0.00  0.00    -0.191 NA
ATOM      9  H1  S38 d   1      21.316  26.658 116.934  0.00  0.00     0.085 H 
ATOM     10  H2  S38 d   1      23.247  28.093 113.405  0.00  0.00     0.085 H 
ATOM     11  H3  S38 d   1      25.123  26.515 113.778  0.00  0.00     0.085 H 
ATOM     12  H4  S38 d   1      23.177  25.075 117.308  0.00  0.00     0.085 H 
ENDROOT
BRANCH   5  13
ATOM     13  C7  S38 d   1      25.297  24.772 115.855  0.00  0.00     0.252 C 
ATOM     14  N8  S38 d   1      25.846  24.073 114.815  0.00  0.00    -0.352 N 
ATOM     15  H5  S38 d   1      25.772  24.395 113.871  0.00  0.00     0.163 HD
ATOM     16  O18 S38 d   1      25.620  24.667 117.025  0.00  0.00    -0.268 OA
BRANCH  14  17
ATOM     17  C9  S38 d   1      26.527  22.867 115.137  0.00  0.00     0.020 A 
ATOM     18  C10 S38 d   1      28.024  22.849 115.195  0.00  0.00    -0.007 A 
ATOM     19  C11 S38 d   1      27.303  22.060 114.148  0.00  0.00    -0.036 A 
ATOM     20  H7  S38 d   1      28.573  23.759 114.911  0.00  0.00     0.050 H 
ATOM     21  H8  S38 d   1      27.347  22.375 113.095  0.00  0.00     0.037 H 
ATOM     22  H9  S38 d   1      27.287  20.961 114.202  0.00  0.00     0.037 H 
ATOM     23  H6  S38 d   1      25.945  22.336 115.905  0.00  0.00     0.073 H 
BRANCH  18  24
ATOM     24  C12 S38 d   1      28.790  22.151 116.245  0.00  0.00    -0.052 A 
ATOM     25  C13 S38 d   1      28.198  21.659 117.389  0.00  0.00    -0.076 A 
ATOM     26  C14 S38 d   1      28.931  21.015 118.361  0.00  0.00    -0.082 A 
ATOM     27  H10 S38 d   1      27.130  21.782 117.527  0.00  0.00     0.084 H 
ATOM     28  C15 S38 d   1      30.286  20.847 118.205  0.00  0.00    -0.083 A 
ATOM     29  H11 S38 d   1      28.438  20.640 119.251  0.00  0.00     0.083 H 
ATOM     30  C16 S38 d   1      30.893  21.335 117.071  0.00  0.00    -0.082 A 
ATOM     31  H12 S38 d   1      30.868  20.337 118.964  0.00  0.00     0.083 H 
ATOM     32  C17 S38 d   1      30.149  21.977 116.107  0.00  0.00    -0.076 A 
ATOM     33  H13 S38 d   1      31.962  21.213 116.936  0.00  0.00     0.083 H 
ATOM     34  H14 S38 d   1      30.644  22.354 115.219  0.00  0.00     0.084 H 
ENDBRANCH  18  24
ENDBRANCH  14  17
ENDBRANCH   5  13
TORSDOF 3
