REMARK  6 active torsions:
REMARK  status: ('A' for Active; 'I' for Inactive)
REMARK       I    between atoms: N1_1  and  C2_2 
REMARK       I    between atoms: C2_2  and  N3_3 
REMARK    1  A    between atoms: N3_3  and  C4_4 
REMARK    2  A    between atoms: C5_5  and  C7_7 
REMARK    3  A    between atoms: C16_16  and  C19_19 
REMARK    4  A    between atoms: C21_21  and  C24_24 
REMARK    5  A    between atoms: C24_24  and  C25_25 
REMARK    6  A    between atoms: C24_24  and  C26_26 
ROOT
ATOM      1  N1  S82 d   1      24.223  25.107 116.256  0.00  0.00    -0.334 N 
ATOM      2  C2  S82 d   1      25.436  24.536 116.559  0.00  0.00     0.318 C 
ATOM      3  N3  S82 d   1      26.059  23.890 115.522  0.00  0.00    -0.338 N 
ATOM      4  O13 S82 d   1      25.919  24.587 117.680  0.00  0.00    -0.247 OA
ATOM      5  C14 S82 d   1      23.408  25.559 117.348  0.00  0.00    -0.000 C 
ATOM      6  C15 S82 d   1      23.517  27.060 117.466  0.00  0.00    -0.040 C 
ATOM      7  C16 S82 d   1      23.059  27.690 116.169  0.00  0.00     0.015 C 
ATOM      8  C17 S82 d   1      23.815  27.160 114.966  0.00  0.00    -0.040 C 
ATOM      9  C18 S82 d   1      23.922  25.649 114.954  0.00  0.00    -0.000 C 
ATOM     10  H1  S82 d   1      25.972  24.230 114.586  0.00  0.00     0.164 HD
ATOM     11  H11 S82 d   1      23.753  25.091 118.282  0.00  0.00     0.064 H 
ATOM     12  H12 S82 d   1      22.360  25.280 117.164  0.00  0.00     0.064 H 
ATOM     13  H13 S82 d   1      24.562  27.340 117.663  0.00  0.00     0.036 H 
ATOM     14  H14 S82 d   1      22.881  27.412 118.292  0.00  0.00     0.036 H 
ATOM     15  H15 S82 d   1      23.303  28.760 116.239  0.00  0.00     0.053 H 
ATOM     16  H16 S82 d   1      24.830  27.583 114.975  0.00  0.00     0.036 H 
ATOM     17  H17 S82 d   1      23.292  27.482 114.053  0.00  0.00     0.036 H 
ATOM     18  H18 S82 d   1      22.965  25.230 114.610  0.00  0.00     0.064 H 
ATOM     19  H19 S82 d   1      24.721  25.357 114.257  0.00  0.00     0.064 H 
ENDROOT
BRANCH   3  20
ATOM     20  C4  S82 d   1      26.830  22.731 115.800  0.00  0.00     0.022 A 
ATOM     21  C5  S82 d   1      28.328  22.774 115.805  0.00  0.00    -0.007 A 
ATOM     22  C6  S82 d   1      27.602  22.010 114.743  0.00  0.00    -0.036 A 
ATOM     23  H3  S82 d   1      28.830  23.717 115.542  0.00  0.00     0.050 H 
ATOM     24  H4  S82 d   1      27.594  22.381 113.707  0.00  0.00     0.037 H 
ATOM     25  H5  S82 d   1      27.633  20.910 114.739  0.00  0.00     0.037 H 
ATOM     26  H2  S82 d   1      26.307  22.144 116.570  0.00  0.00     0.073 H 
BRANCH  21  27
ATOM     27  C7  S82 d   1      29.150  22.080 116.813  0.00  0.00    -0.052 A 
ATOM     28  C8  S82 d   1      28.615  21.489 117.939  0.00  0.00    -0.076 A 
ATOM     29  C9  S82 d   1      29.400  20.849 118.874  0.00  0.00    -0.082 A 
ATOM     30  H6  S82 d   1      27.543  21.529 118.093  0.00  0.00     0.084 H 
ATOM     31  C10 S82 d   1      30.763  20.791 118.697  0.00  0.00    -0.083 A 
ATOM     32  H7  S82 d   1      28.945  20.393 119.746  0.00  0.00     0.083 H 
ATOM     33  C11 S82 d   1      31.318  21.379 117.582  0.00  0.00    -0.082 A 
ATOM     34  H8  S82 d   1      31.391  20.290 119.424  0.00  0.00     0.083 H 
ATOM     35  C12 S82 d   1      30.516  22.010 116.657  0.00  0.00    -0.076 A 
ATOM     36  H9  S82 d   1      32.391  21.345 117.432  0.00  0.00     0.083 H 
ATOM     37  H10 S82 d   1      30.972  22.463 115.784  0.00  0.00     0.084 H 
ENDBRANCH  21  27
ENDBRANCH   3  20
BRANCH   7  38
ATOM     38  C19 S82 d   1      21.595  27.606 116.008  0.00  0.00     0.177 A 
ATOM     39  N20 S82 d   1      20.659  27.624 116.928  0.00  0.00    -0.208 NA
ATOM     40  C21 S82 d   1      19.523  27.519 116.170  0.00  0.00     0.159 A 
ATOM     41  N22 S82 d   1      19.729  27.442 114.849  0.00  0.00    -0.111 NA
ATOM     42  O23 S82 d   1      21.115  27.502 114.740  0.00  0.00    -0.196 OA
BRANCH  40  43
ATOM     43  C24 S82 d   1      18.179  27.496 116.784  0.00  0.00     0.001 C 
ATOM     44  H20 S82 d   1      18.274  27.988 117.763  0.00  0.00     0.051 H 
BRANCH  43  45
ATOM     45  C25 S82 d   1      17.700  26.087 117.046  0.00  0.00    -0.066 C 
ATOM     46  H21 S82 d   1      16.699  26.119 117.502  0.00  0.00     0.028 H 
ATOM     47  H22 S82 d   1      18.399  25.584 117.730  0.00  0.00     0.028 H 
ATOM     48  H23 S82 d   1      17.653  25.533 116.097  0.00  0.00     0.028 H 
ENDBRANCH  43  45
BRANCH  43  49
ATOM     49  C26 S82 d   1      17.157  28.287 115.998  0.00  0.00    -0.066 C 
ATOM     50  H24 S82 d   1      17.536  29.305 115.825  0.00  0.00     0.028 H 
ATOM     51  H25 S82 d   1      16.216  28.337 116.566  0.00  0.00     0.028 H 
ATOM     52  H26 S82 d   1      16.976  27.794 115.032  0.00  0.00     0.028 H 
ENDBRANCH  43  49
ENDBRANCH  40  43
ENDBRANCH   7  38
TORSDOF 6
