REMARK  1 active torsions:
REMARK  status: ('A' for Active; 'I' for Inactive)
REMARK    1  A    between atoms: C2_2  and  O10_10 
ROOT
ATOM      1  C1  BZX d   1      19.676   8.127  10.573  0.00  0.00    -0.016 A 
ATOM      2  C2  BZX d   1      20.850   7.752  11.210  0.00  0.00     0.068 A 
ATOM      3  C3  BZX d   1      22.125   8.156  10.781  0.00  0.00    -0.048 A 
ATOM      4  C4  BZX d   1      22.294   8.975   9.662  0.00  0.00    -0.045 A 
ATOM      5  C5  BZX d   1      21.134   9.362   9.016  0.00  0.00     0.105 A 
ATOM      6  C6  BZX d   1      19.821   8.943   9.471  0.00  0.00     0.107 A 
ATOM      7  O7  BZX d   1      18.887   9.469   8.622  0.00  0.00    -0.323 OA
ATOM      8  C8  BZX d   1      19.582   9.936   7.459  0.00  0.00     0.115 C 
ATOM      9  O9  BZX d   1      20.938  10.123   7.906  0.00  0.00    -0.323 OA
ATOM     10  H1  BZX d   1      18.703   7.798  10.921  0.00  0.00     0.092 H 
ATOM     11  H2  BZX d   1      22.998   7.824  11.331  0.00  0.00     0.087 H 
ATOM     12  H3  BZX d   1      23.274   9.288   9.321  0.00  0.00     0.088 H 
ATOM     13  H4  BZX d   1      19.154  10.885   7.104  0.00  0.00     0.118 H 
ATOM     14  H5  BZX d   1      19.537   9.190   6.652  0.00  0.00     0.118 H 
ENDROOT
BRANCH   2  15
ATOM     15  O10 BZX d   1      20.740   6.958  12.293  0.00  0.00    -0.361 OA
ATOM     16  H6  BZX d   1      21.114   7.399  13.047  0.00  0.00     0.217 HD
ENDBRANCH   2  15
TORSDOF 1
