REMARK  6 active torsions:
REMARK  status: ('A' for Active; 'I' for Inactive)
REMARK    1  A    between atoms: N25_27  and  C10_6 
REMARK    2  A    between atoms: C17_9  and  C21_10 
REMARK    3  A    between atoms: C17_9  and  C22_11 
REMARK    4  A    between atoms: C23_26  and  C24_12 
REMARK    5  A    between atoms: C26_13  and  N31_31 
REMARK    6  A    between atoms: C11_25  and  C23_26 
ROOT
ATOM      1  C4  EMH d   1     -22.401  14.155 -10.516  0.00  0.00    -0.068 A 
ATOM      2  C5  EMH d   1     -20.164  15.135 -10.733  0.00  0.00     0.046 A 
ATOM      3  C6  EMH d   1     -21.545  15.135 -11.029  0.00  0.00    -0.062 A 
ATOM      4  C7  EMH d   1     -22.431  12.110  -9.018  0.00  0.00     0.051 A 
ATOM      5  C8  EMH d   1     -21.434  11.449  -8.330  0.00  0.00     0.037 A 
ATOM      6  C10 EMH d   1     -24.642   8.113  -6.644  0.00  0.00     0.017 A 
ATOM      7  C13 EMH d   1     -25.393   9.911  -8.088  0.00  0.00    -0.061 A 
ATOM      8  C15 EMH d   1     -24.084  10.396  -8.150  0.00  0.00     0.023 A 
ATOM      9  C17 EMH d   1     -21.625  10.213  -7.488  0.00  0.00     0.024 A 
ATOM     10  N19 EMH d   1     -18.601  16.822 -11.688  0.00  0.00    -0.191 NA
ATOM     11  C18 EMH d   1     -19.354  16.048 -11.224  0.00  0.00     0.099 C 
ATOM     12  C3  EMH d   1     -19.641  14.153  -9.891  0.00  0.00    -0.036 A 
ATOM     13  C1  EMH d   1     -20.481  13.182  -9.358  0.00  0.00     0.045 A 
ATOM     14  C2  EMH d   1     -21.846  13.189  -9.663  0.00  0.00     0.007 A 
ATOM     15  N9  EMH d   1     -20.258  12.111  -8.528  0.00  0.00    -0.357 N 
ATOM     16  C14 EMH d   1     -23.025   9.750  -7.466  0.00  0.00    -0.028 A 
ATOM     17  C16 EMH d   1     -23.833  11.627  -8.963  0.00  0.00     0.195 A 
ATOM     18  O20 EMH d   1     -24.764  12.195  -9.558  0.00  0.00    -0.287 OA
ATOM     19  C12 EMH d   1     -23.328   8.588  -6.707  0.00  0.00    -0.054 A 
ATOM     20  C11 EMH d   1     -25.672   8.769  -7.321  0.00  0.00    -0.036 A 
ATOM     21  H   EMH d   1     -23.461  14.142 -10.770  0.00  0.00     0.085 H 
ATOM     22  H   EMH d   1     -21.953  15.916 -11.671  0.00  0.00     0.085 H 
ATOM     23  H   EMH d   1     -26.192  10.416  -8.631  0.00  0.00     0.086 H 
ATOM     24  H   EMH d   1     -18.578  14.147  -9.652  0.00  0.00     0.089 H 
ATOM     25  H   EMH d   1     -19.358  11.852  -8.124  0.00  0.00     0.166 HD
ATOM     26  H   EMH d   1     -22.535   8.065  -6.173  0.00  0.00     0.087 H 
ENDROOT
BRANCH   9  27
ATOM     27  C21 EMH d   1     -21.218  10.535  -6.041  0.00  0.00    -0.060 C 
ATOM     28  H   EMH d   1     -21.275   9.628  -5.439  0.00  0.00     0.029 H 
ATOM     29  H   EMH d   1     -20.197  10.917  -6.029  0.00  0.00     0.029 H 
ATOM     30  H   EMH d   1     -21.894  11.287  -5.633  0.00  0.00     0.029 H 
ENDBRANCH   9  27
BRANCH   9  31
ATOM     31  C22 EMH d   1     -20.690   9.162  -8.076  0.00  0.00    -0.060 C 
ATOM     32  H   EMH d   1     -19.668   9.541  -8.068  0.00  0.00     0.029 H 
ATOM     33  H   EMH d   1     -20.746   8.252  -7.478  0.00  0.00     0.029 H 
ATOM     34  H   EMH d   1     -20.990   8.944  -9.101  0.00  0.00     0.029 H 
ENDBRANCH   9  31
BRANCH  20  35
ATOM     35  C23 EMH d   1     -27.111   8.284  -7.263  0.00  0.00    -0.043 C 
ATOM     36  H   EMH d   1     -27.326   7.785  -8.208  0.00  0.00     0.039 H 
ATOM     37  H   EMH d   1     -27.201   7.631  -6.395  0.00  0.00     0.039 H 
BRANCH  35  38
ATOM     38  C24 EMH d   1     -28.126   9.407  -7.098  0.00  0.00    -0.073 C 
ATOM     39  H   EMH d   1     -27.925   9.944  -6.171  0.00  0.00     0.028 H 
ATOM     40  H   EMH d   1     -28.047  10.093  -7.941  0.00  0.00     0.028 H 
ATOM     41  H   EMH d   1     -29.131   8.985  -7.065  0.00  0.00     0.028 H 
ENDBRANCH  35  38
ENDBRANCH  20  35
BRANCH   6  42
ATOM     42  N25 EMH d   1     -24.954   6.937  -5.882  0.00  0.00    -0.283 NA
ATOM     43  C29 EMH d   1     -24.026   6.561  -4.805  0.00  0.00    -0.014 C 
ATOM     44  C27 EMH d   1     -24.795   5.545  -3.940  0.00  0.00    -0.025 C 
ATOM     45  H   EMH d   1     -23.715   7.429  -4.223  0.00  0.00     0.056 H 
ATOM     46  H   EMH d   1     -23.105   6.134  -5.201  0.00  0.00     0.056 H 
ATOM     47  C26 EMH d   1     -25.187   4.299  -4.747  0.00  0.00     0.137 C 
ATOM     48  H   EMH d   1     -24.150   5.234  -3.118  0.00  0.00     0.037 H 
ATOM     49  H   EMH d   1     -25.706   6.021  -3.577  0.00  0.00     0.037 H 
ATOM     50  C28 EMH d   1     -25.975   4.721  -5.988  0.00  0.00    -0.025 C 
ATOM     51  H   EMH d   1     -24.323   3.755  -5.128  0.00  0.00     0.088 H 
ATOM     52  C30 EMH d   1     -25.167   5.765  -6.769  0.00  0.00    -0.014 C 
ATOM     53  H   EMH d   1     -26.930   5.150  -5.686  0.00  0.00     0.037 H 
ATOM     54  H   EMH d   1     -26.155   3.851  -6.620  0.00  0.00     0.037 H 
ATOM     55  H   EMH d   1     -25.707   6.065  -7.667  0.00  0.00     0.056 H 
ATOM     56  H   EMH d   1     -24.209   5.347  -7.077  0.00  0.00     0.056 H 
BRANCH  47  57
ATOM     57  N31 EMH d   1     -25.924   3.379  -3.821  0.00  0.00     0.097 N 
ATOM     58  C32 EMH d   1     -27.011   2.590  -4.437  0.00  0.00     0.133 C 
ATOM     59  C34 EMH d   1     -27.666   1.713  -3.369  0.00  0.00     0.044 C 
ATOM     60  H   EMH d   1     -26.602   1.960  -5.227  0.00  0.00     0.083 H 
ATOM     61  H   EMH d   1     -27.755   3.263  -4.863  0.00  0.00     0.083 H 
ATOM     62  O36 EMH d   1     -26.685   0.843  -2.797  0.00  0.00    -0.388 OA
ATOM     63  H   EMH d   1     -28.458   1.118  -3.824  0.00  0.00     0.077 H 
ATOM     64  H   EMH d   1     -28.089   2.346  -2.589  0.00  0.00     0.077 H 
ATOM     65  C35 EMH d   1     -25.631   1.559  -2.154  0.00  0.00     0.044 C 
ATOM     66  C33 EMH d   1     -24.947   2.471  -3.177  0.00  0.00     0.133 C 
ATOM     67  H   EMH d   1     -24.905   0.855  -1.747  0.00  0.00     0.077 H 
ATOM     68  H   EMH d   1     -26.039   2.161  -1.342  0.00  0.00     0.077 H 
ATOM     69  H   EMH d   1     -24.199   3.073  -2.662  0.00  0.00     0.083 H 
ATOM     70  H   EMH d   1     -24.489   1.849  -3.947  0.00  0.00     0.083 H 
ENDBRANCH  47  57
ENDBRANCH   6  42
TORSDOF 6
