REMARK  23 active torsions:
REMARK  status: ('A' for Active; 'I' for Inactive)
REMARK    1  A    between atoms: C1_1  and  O1_7 
REMARK    2  A    between atoms: C2_2  and  O2_8 
REMARK    3  A    between atoms: O3_9  and  C3_3 
REMARK    4  A    between atoms: C4_4  and  O4_10 
REMARK    5  A    between atoms: C5_5  and  C6_6 
REMARK    6  A    between atoms: C6_6  and  O6_12 
REMARK    7  A    between atoms: O1_7  and  C4'_16 
REMARK    8  A    between atoms: C2_25  and  O3_9 
REMARK    9  A    between atoms: C1'_13  and  O1'_19 
REMARK   10  A    between atoms: C2'_14  and  O2'_20 
REMARK   11  A    between atoms: C3'_15  and  O3'_21 
REMARK   12  A    between atoms: C5'_17  and  C6'_18 
REMARK   13  A    between atoms: C6'_18  and  O6'_23 
REMARK   14  A    between atoms: C2_25  and  C1_24 
REMARK   15  A    between atoms: C4_27  and  O4_38 
REMARK   16  A    between atoms: N5_35  and  C5_28 
REMARK   17  A    between atoms: C6_29  and  C7_30 
REMARK   18  A    between atoms: C7_30  and  C8_31 
REMARK   19  A    between atoms: C7_30  and  O7_40 
REMARK   20  A    between atoms: C8_31  and  C9_32 
REMARK   21  A    between atoms: C8_31  and  O8_41 
REMARK   22  A    between atoms: C9_32  and  O9_42 
REMARK   23  A    between atoms: C10_33  and  C11_34 
REMARK       I    between atoms: C10_33  and  N5_35 
ROOT
ATOM      1  C1  LAT d   1      18.471  25.136  42.731  0.00  0.00     0.159 C 
ATOM      2  C2  LAT d   1      18.755  23.783  42.113  0.00  0.00     0.110 C 
ATOM      3  C3  LAT d   1      20.034  23.821  41.286  0.00  0.00     0.099 C 
ATOM      4  C4  LAT d   1      20.028  25.008  40.326  0.00  0.00     0.090 C 
ATOM      5  C5  LAT d   1      19.672  26.295  41.070  0.00  0.00     0.089 C 
ATOM      6  O5  LAT d   1      18.417  26.126  41.701  0.00  0.00    -0.348 OA
ATOM      7  H1  LAT d   1      19.251  25.394  43.463  0.00  0.00     0.133 H 
ATOM      8  H2  LAT d   1      17.919  23.516  41.450  0.00  0.00     0.094 H 
ATOM      9  H3  LAT d   1      20.896  23.909  41.964  0.00  0.00     0.091 H 
ATOM     10  H4  LAT d   1      21.032  25.120  39.891  0.00  0.00     0.091 H 
ATOM     11  H5  LAT d   1      20.439  26.474  41.838  0.00  0.00     0.090 H 
ENDROOT
BRANCH   3  12
ATOM     12  O3  LAT d   1      20.150  22.611  40.518  0.00  0.00    -0.336 OA
BRANCH  12  13
ATOM     13  C2  SIA d   1      21.197  21.719  40.883  0.00  0.00     0.259 C 
ATOM     14  C3  SIA d   1      21.017  20.469  40.016  0.00  0.00     0.024 C 
ATOM     15  C4  SIA d   1      21.833  19.277  40.514  0.00  0.00     0.063 C 
ATOM     16  H22 LAT d   1      21.332  20.706  38.989  0.00  0.00     0.045 H 
ATOM     17  H23 LAT d   1      19.953  20.191  40.018  0.00  0.00     0.045 H 
ATOM     18  C5  SIA d   1      21.614  19.026  42.004  0.00  0.00     0.064 C 
ATOM     19  H24 LAT d   1      22.900  19.486  40.349  0.00  0.00     0.086 H 
ATOM     20  C6  SIA d   1      21.880  20.337  42.749  0.00  0.00     0.091 C 
ATOM     21  H25 LAT d   1      20.573  18.716  42.178  0.00  0.00     0.080 H 
ATOM     22  O6  SIA d   1      21.007  21.369  42.262  0.00  0.00    -0.336 OA
ATOM     23  H26 LAT d   1      22.923  20.627  42.553  0.00  0.00     0.090 H 
BRANCH  13  24
ATOM     24  C1  SIA d   1      22.545  22.378  40.655  0.00  0.00     0.239 C 
ATOM     25  O1A SIA d   1      23.042  22.396  39.499  0.00  0.00    -0.644 OA
ATOM     26  O1B SIA d   1      23.140  22.889  41.640  0.00  0.00    -0.644 OA
ENDBRANCH  13  24
BRANCH  15  27
ATOM     27  O4  SIA d   1      21.460  18.111  39.757  0.00  0.00    -0.393 OA
ATOM     28  H35 LAT d   1      21.600  18.277  38.832  0.00  0.00     0.210 HD
ENDBRANCH  15  27
BRANCH  18  29
ATOM     29  N5  SIA d   1      22.510  17.957  42.455  0.00  0.00    -0.352 N 
ATOM     30  C10 SIA d   1      22.014  16.839  43.004  0.00  0.00     0.214 C 
ATOM     31  O10 SIA d   1      20.811  16.714  43.166  0.00  0.00    -0.274 OA
ATOM     32  H34 LAT d   1      23.499  18.062  42.352  0.00  0.00     0.163 HD
BRANCH  30  33
ATOM     33  C11 SIA d   1      22.941  15.735  43.420  0.00  0.00    -0.003 C 
ATOM     34  H31 LAT d   1      22.356  14.906  43.846  0.00  0.00     0.040 H 
ATOM     35  H32 LAT d   1      23.646  16.113  44.175  0.00  0.00     0.040 H 
ATOM     36  H33 LAT d   1      23.500  15.376  42.544  0.00  0.00     0.040 H 
ENDBRANCH  30  33
ENDBRANCH  18  29
BRANCH  20  37
ATOM     37  C7  SIA d   1      21.686  20.249  44.258  0.00  0.00     0.089 C 
ATOM     38  H27 LAT d   1      22.430  19.553  44.672  0.00  0.00     0.091 H 
BRANCH  37  39
ATOM     39  C8  SIA d   1      21.847  21.610  44.932  0.00  0.00     0.083 C 
ATOM     40  H28 LAT d   1      20.925  22.189  44.773  0.00  0.00     0.090 H 
BRANCH  39  41
ATOM     41  C9  SIA d   1      22.065  21.441  46.431  0.00  0.00     0.043 C 
ATOM     42  H29 LAT d   1      23.099  21.114  46.616  0.00  0.00     0.078 H 
ATOM     43  H30 LAT d   1      21.366  20.685  46.819  0.00  0.00     0.078 H 
BRANCH  41  44
ATOM     44  O9  SIA d   1      21.834  22.692  47.097  0.00  0.00    -0.398 OA
ATOM     45  H38 LAT d   1      21.971  22.582  48.031  0.00  0.00     0.209 HD
ENDBRANCH  41  44
ENDBRANCH  39  41
BRANCH  39  46
ATOM     46  O8  SIA d   1      22.949  22.335  44.363  0.00  0.00    -0.391 OA
ATOM     47  H37 LAT d   1      22.810  22.439  43.429  0.00  0.00     0.210 HD
ENDBRANCH  39  46
ENDBRANCH  37  39
BRANCH  37  48
ATOM     48  O7  SIA d   1      20.369  19.766  44.539  0.00  0.00    -0.390 OA
ATOM     49  H36 LAT d   1      20.249  18.918  44.127  0.00  0.00     0.210 HD
ENDBRANCH  37  48
ENDBRANCH  20  37
ENDBRANCH  12  13
ENDBRANCH   3  12
BRANCH   2  50
ATOM     50  O2  LAT d   1      18.853  22.798  43.150  0.00  0.00    -0.388 OA
ATOM     51  H8  LAT d   1      18.994  21.943  42.761  0.00  0.00     0.210 HD
ENDBRANCH   2  50
BRANCH   4  52
ATOM     52  O4  LAT d   1      19.089  24.753  39.269  0.00  0.00    -0.390 OA
ATOM     53  H9  LAT d   1      19.102  25.477  38.654  0.00  0.00     0.210 HD
ENDBRANCH   4  52
BRANCH   1  54
ATOM     54  O1  LAT d   1      17.194  25.061  43.367  0.00  0.00    -0.348 OA
BRANCH  54  55
ATOM     55  C4' LAT d   1      16.813  26.228  44.098  0.00  0.00     0.096 C 
ATOM     56  C3' LAT d   1      15.371  26.567  43.739  0.00  0.00     0.092 C 
ATOM     57  C2' LAT d   1      14.859  27.721  44.600  0.00  0.00     0.110 C 
ATOM     58  H13 LAT d   1      14.745  25.683  43.931  0.00  0.00     0.091 H 
ATOM     59  C1' LAT d   1      15.127  27.455  46.083  0.00  0.00     0.156 C 
ATOM     60  H12 LAT d   1      15.369  28.650  44.304  0.00  0.00     0.094 H 
ATOM     61  O5' LAT d   1      16.510  27.179  46.279  0.00  0.00    -0.349 OA
ATOM     62  H11 LAT d   1      14.527  26.593  46.410  0.00  0.00     0.133 H 
ATOM     63  C5' LAT d   1      16.950  25.999  45.603  0.00  0.00     0.089 C 
ATOM     64  H15 LAT d   1      16.316  25.146  45.889  0.00  0.00     0.090 H 
ATOM     65  H14 LAT d   1      17.465  27.065  43.808  0.00  0.00     0.091 H 
BRANCH  56  66
ATOM     66  O3' LAT d   1      15.276  26.902  42.345  0.00  0.00    -0.390 OA
ATOM     67  H20 LAT d   1      15.829  27.653  42.163  0.00  0.00     0.210 HD
ENDBRANCH  56  66
BRANCH  57  68
ATOM     68  O2' LAT d   1      13.457  27.856  44.381  0.00  0.00    -0.388 OA
ATOM     69  H19 LAT d   1      13.297  28.039  43.462  0.00  0.00     0.210 HD
ENDBRANCH  57  68
BRANCH  59  70
ATOM     70  O1' LAT d   1      14.786  28.604  46.875  0.00  0.00    -0.369 OA
ATOM     71  H18 LAT d   1      14.957  28.418  47.791  0.00  0.00     0.212 HD
ENDBRANCH  59  70
BRANCH  63  72
ATOM     72  C6' LAT d   1      18.382  25.718  46.046  0.00  0.00     0.043 C 
ATOM     73  H16 LAT d   1      18.753  24.819  45.533  0.00  0.00     0.078 H 
ATOM     74  H17 LAT d   1      18.402  25.554  47.133  0.00  0.00     0.078 H 
BRANCH  72  75
ATOM     75  O6' LAT d   1      19.221  26.834  45.717  0.00  0.00    -0.398 OA
ATOM     76  H21 LAT d   1      20.111  26.653  45.995  0.00  0.00     0.209 HD
ENDBRANCH  72  75
ENDBRANCH  63  72
ENDBRANCH  54  55
ENDBRANCH   1  54
BRANCH   5  77
ATOM     77  C6  LAT d   1      19.618  27.511  40.159  0.00  0.00     0.043 C 
ATOM     78  H6  LAT d   1      18.826  27.379  39.408  0.00  0.00     0.078 H 
ATOM     79  H7  LAT d   1      20.586  27.641  39.652  0.00  0.00     0.078 H 
BRANCH  77  80
ATOM     80  O6  LAT d   1      19.335  28.660  40.967  0.00  0.00    -0.398 OA
ATOM     81  H10 LAT d   1      18.500  28.541  41.404  0.00  0.00     0.209 HD
ENDBRANCH  77  80
ENDBRANCH   5  77
TORSDOF 23
