REMARK  3 active torsions:
REMARK  status: ('A' for Active; 'I' for Inactive)
REMARK    1  A    between atoms: N6_6  and  C7_7 
REMARK    2  A    between atoms: N11_11  and  S12_12 
REMARK    3  A    between atoms: S12_12  and  C13_13 
ROOT
ATOM      1  C7  MMD d   1     116.508  14.741  30.922  0.00  0.00     0.727 A 
ATOM      2  N8  MMD d   1     115.250  14.360  31.188  0.00  0.00    -0.061 NA
ATOM      3  N9  MMD d   1     116.997  15.894  31.400  0.00  0.00    -0.043 NA
ATOM      4  C10 MMD d   1     116.233  16.691  32.163  0.00  0.00     0.175 A 
ATOM      5  N11 MMD d   1     116.497  17.873  32.718  0.00  0.00    -0.233 N 
ATOM      6  C16 MMD d   1     115.372  18.403  33.498  0.00  0.00    -0.001 A 
ATOM      7  C17 MMD d   1     114.262  17.373  33.304  0.00  0.00    -0.051 A 
ATOM      8  C18 MMD d   1     114.921  16.313  32.439  0.00  0.00     0.043 A 
ATOM      9  C19 MMD d   1     114.422  15.107  31.945  0.00  0.00     0.103 A 
ATOM     10  C20 MMD d   1     113.120  14.626  32.180  0.00  0.00     0.030 A 
ATOM     11  C21 MMD d   1     112.606  13.597  31.385  0.00  0.00     0.035 A 
ATOM     12  N22 MMD d   1     111.388  13.118  31.587  0.00  0.00    -0.075 NA
ATOM     13  C23 MMD d   1     110.618  13.619  32.569  0.00  0.00     0.719 A 
ATOM     14  N24 MMD d   1     109.391  13.139  32.763  0.00  0.00    -0.231 N 
ATOM     15  N27 MMD d   1     111.085  14.608  33.355  0.00  0.00    -0.075 NA
ATOM     16  C28 MMD d   1     112.302  15.117  33.193  0.00  0.00     0.035 A 
ATOM     17  H   MMD d   1     115.337  19.322  34.083  0.00  0.00     0.113 H 
ATOM     18  H   MMD d   1     113.244  17.393  33.692  0.00  0.00     0.087 H 
ATOM     19  H   MMD d   1     113.219  13.182  30.585  0.00  0.00     0.117 H 
ATOM     20  H   MMD d   1     109.036  12.392  32.167  0.00  0.00     0.174 HD
ATOM     21  H   MMD d   1     108.807  13.519  33.508  0.00  0.00     0.174 HD
ATOM     22  H   MMD d   1     112.656  15.913  33.848  0.00  0.00     0.117 H 
ENDROOT
BRANCH   1  23
ATOM     23  N6  MMD d   1     117.313  13.924  30.137  0.00  0.00    -0.210 N 
ATOM     24  C1  MMD d   1     118.745  14.241  29.969  0.00  0.00     0.031 C 
ATOM     25  C2  MMD d   1     119.222  13.860  28.566  0.00  0.00     0.035 C 
ATOM     26  H   MMD d   1     118.888  15.312  30.111  0.00  0.00     0.068 H 
ATOM     27  H   MMD d   1     119.320  13.675  30.702  0.00  0.00     0.068 H 
ATOM     28  O3  MMD d   1     118.862  12.486  28.340  0.00  0.00    -0.388 OA
ATOM     29  H   MMD d   1     120.301  13.988  28.485  0.00  0.00     0.076 H 
ATOM     30  H   MMD d   1     118.755  14.502  27.819  0.00  0.00     0.076 H 
ATOM     31  C4  MMD d   1     117.428  12.414  28.163  0.00  0.00     0.035 C 
ATOM     32  C5  MMD d   1     116.713  12.751  29.471  0.00  0.00     0.031 C 
ATOM     33  H   MMD d   1     117.158  11.402  27.861  0.00  0.00     0.076 H 
ATOM     34  H   MMD d   1     117.128  13.131  27.399  0.00  0.00     0.076 H 
ATOM     35  H   MMD d   1     116.801  11.895  30.140  0.00  0.00     0.068 H 
ATOM     36  H   MMD d   1     115.672  12.981  29.243  0.00  0.00     0.068 H 
ENDBRANCH   1  23
BRANCH   5  37
ATOM     37  S12 MMD d   1     117.848  18.740  32.385  0.00  0.00     0.234 S 
ATOM     38  O14 MMD d   1     119.092  17.913  32.447  0.00  0.00    -0.206 OA
ATOM     39  O15 MMD d   1     117.963  19.867  33.358  0.00  0.00    -0.206 OA
BRANCH  37  40
ATOM     40  C13 MMD d   1     117.640  19.378  30.743  0.00  0.00     0.033 C 
ATOM     41  H   MMD d   1     118.500  19.995  30.483  0.00  0.00     0.051 H 
ATOM     42  H   MMD d   1     117.560  18.549  30.040  0.00  0.00     0.051 H 
ATOM     43  H   MMD d   1     116.733  19.980  30.701  0.00  0.00     0.051 H 
ENDBRANCH  37  40
ENDBRANCH   5  37
TORSDOF 3
