REMARK  6 active torsions:
REMARK  status: ('A' for Active; 'I' for Inactive)
REMARK    1  A    between atoms: NAV_22  and  CAA_1 
REMARK    2  A    between atoms: CAQ_17  and  SAB_2 
REMARK    3  A    between atoms: CAL_12  and  CAK_11 
REMARK    4  A    between atoms: CAK_11  and  SAO_15 
REMARK    5  A    between atoms: NAW_23  and  CAL_12 
REMARK    6  A    between atoms: SAO_15  and  CAP_16 
ROOT
ATOM      1  CAL BYH d   1       9.383  -8.112  31.233  0.00  0.00     0.010 C 
ATOM      2  H15 BYH d   1       9.957  -8.537  30.396  0.00  0.00     0.066 H 
ATOM      3  H16 BYH d   1       8.380  -8.563  31.256  0.00  0.00     0.066 H 
ENDROOT
BRANCH   1   4
ATOM      4  CAK BYH d   1       9.177  -6.605  30.902  0.00  0.00    -0.001 C 
ATOM      5  H13 BYH d   1       9.236  -6.015  31.828  0.00  0.00     0.052 H 
ATOM      6  H14 BYH d   1       8.190  -6.463  30.439  0.00  0.00     0.052 H 
BRANCH   4   7
ATOM      7  SAO BYH d   1      10.485  -6.048  29.738  0.00  0.00    -0.090 SA
BRANCH   7   8
ATOM      8  CAP BYH d   1      11.782  -5.524  30.786  0.00  0.00     0.167 A 
ATOM      9  NAM BYH d   1      12.956  -5.073  30.329  0.00  0.00    -0.333 N 
ATOM     10  CAR BYH d   1      13.699  -4.785  31.404  0.00  0.00     0.063 A 
ATOM     11  H17 BYH d   1      13.233  -4.968  29.343  0.00  0.00     0.168 HD
ATOM     12  CAG BYH d   1      15.027  -4.289  31.552  0.00  0.00    -0.055 A 
ATOM     13  CAS BYH d   1      12.896  -5.082  32.553  0.00  0.00     0.086 A 
ATOM     14  CAC BYH d   1      15.525  -4.093  32.881  0.00  0.00    -0.081 A 
ATOM     15  H9  BYH d   1      15.641  -4.067  30.686  0.00  0.00     0.087 H 
ATOM     16  CAD BYH d   1      14.715  -4.379  34.027  0.00  0.00    -0.081 A 
ATOM     17  H5  BYH d   1      16.534  -3.721  33.022  0.00  0.00     0.083 H 
ATOM     18  CAH BYH d   1      13.398  -4.876  33.868  0.00  0.00    -0.053 A 
ATOM     19  H6  BYH d   1      15.112  -4.214  35.022  0.00  0.00     0.083 H 
ATOM     20  H10 BYH d   1      12.783  -5.096  34.733  0.00  0.00     0.087 H 
ATOM     21  NAN BYH d   1      11.739  -5.530  32.118  0.00  0.00    -0.223 NA
ENDBRANCH   7   8
ENDBRANCH   4   7
ENDBRANCH   1   4
BRANCH   1  22
ATOM     22  NAW BYH d   1      10.087  -8.566  32.510  0.00  0.00    -0.325 N 
ATOM     23  CAQ BYH d   1      10.186  -7.987  33.754  0.00  0.00     0.146 A 
ATOM     24  NAV BYH d   1      10.920  -8.789  34.566  0.00  0.00    -0.330 N 
ATOM     25  CAT BYH d   1      11.303  -9.867  33.899  0.00  0.00     0.063 A 
ATOM     26  CAI BYH d   1      12.089 -11.035  34.263  0.00  0.00    -0.055 A 
ATOM     27  CAU BYH d   1      10.768  -9.725  32.565  0.00  0.00     0.063 A 
ATOM     28  CAE BYH d   1      12.316 -12.027  33.281  0.00  0.00    -0.081 A 
ATOM     29  H11 BYH d   1      12.492 -11.143  35.264  0.00  0.00     0.087 H 
ATOM     30  CAF BYH d   1      11.789 -11.886  31.964  0.00  0.00    -0.081 A 
ATOM     31  H7  BYH d   1      12.898 -12.906  33.533  0.00  0.00     0.083 H 
ATOM     32  CAJ BYH d   1      11.019 -10.745  31.606  0.00  0.00    -0.055 A 
ATOM     33  H8  BYH d   1      11.977 -12.658  31.226  0.00  0.00     0.083 H 
ATOM     34  H12 BYH d   1      10.623 -10.653  30.601  0.00  0.00     0.087 H 
BRANCH  23  35
ATOM     35  SAB BYH d   1       9.509  -6.470  34.311  0.00  0.00    -0.106 SA
ATOM     36  H4  BYH d   1       9.003  -6.032  33.557  0.00  0.00     0.110 HD
ENDBRANCH  23  35
BRANCH  24  37
ATOM     37  CAA BYH d   1      11.249  -8.498  36.014  0.00  0.00    -0.012 C 
ATOM     38  H1  BYH d   1      10.803  -7.535  36.305  0.00  0.00     0.057 H 
ATOM     39  H2  BYH d   1      12.341  -8.449  36.139  0.00  0.00     0.057 H 
ATOM     40  H3  BYH d   1      10.842  -9.298  36.650  0.00  0.00     0.057 H 
ENDBRANCH  24  37
ENDBRANCH   1  22
TORSDOF 6
