REMARK  9 active torsions:
REMARK  status: ('A' for Active; 'I' for Inactive)
REMARK    1  A    between atoms: N5_5  and  C9_9 
REMARK    2  A    between atoms: C9_9  and  C10_10 
REMARK    3  A    between atoms: C10_10  and  C11_11 
REMARK    4  A    between atoms: C11_11  and  S12_12 
REMARK    5  A    between atoms: S12_12  and  N13_13 
REMARK    6  A    between atoms: C17_17  and  C20_20 
REMARK    7  A    between atoms: C20_20  and  O21_21 
REMARK    8  A    between atoms: C20_20  and  C22_22 
REMARK    9  A    between atoms: C20_20  and  C28_28 
ROOT
ATOM      1  N13 MKH d   1       8.210  10.894 -18.692  0.00  0.00    -0.302 N 
ATOM      2  C14 MKH d   1       9.493  11.619 -18.747  0.00  0.00     0.006 C 
ATOM      3  C15 MKH d   1       9.544  11.874 -20.278  0.00  0.00    -0.048 C 
ATOM      4  C16 MKH d   1       8.094  12.019 -20.764  0.00  0.00    -0.041 C 
ATOM      5  C17 MKH d   1       7.207  11.503 -19.607  0.00  0.00     0.060 C 
ATOM      6  H12 MKH d   1      10.334  11.001 -18.401  0.00  0.00     0.065 H 
ATOM      7  H13 MKH d   1       9.465  12.556 -18.171  0.00  0.00     0.065 H 
ATOM      8  H14 MKH d   1      10.028  11.027 -20.785  0.00  0.00     0.035 H 
ATOM      9  H15 MKH d   1      10.105  12.796 -20.488  0.00  0.00     0.035 H 
ATOM     10  H16 MKH d   1       7.931  11.416 -21.669  0.00  0.00     0.036 H 
ATOM     11  H17 MKH d   1       7.866  13.073 -20.980  0.00  0.00     0.036 H 
ATOM     12  H18 MKH d   1       6.539  10.712 -19.978  0.00  0.00     0.079 H 
ENDROOT
BRANCH   5  13
ATOM     13  C20 MKH d   1       6.310  12.601 -19.014  0.00  0.00     0.133 C 
BRANCH  13  14
ATOM     14  O21 MKH d   1       7.058  13.725 -18.503  0.00  0.00    -0.378 OA
ATOM     15  H19 MKH d   1       7.644  13.428 -17.817  0.00  0.00     0.211 HD
ENDBRANCH  13  14
BRANCH  13  16
ATOM     16  C22 MKH d   1       5.327  13.103 -20.048  0.00  0.00    -0.017 A 
ATOM     17  C23 MKH d   1       4.914  14.430 -19.959  0.00  0.00    -0.073 A 
ATOM     18  C24 MKH d   1       3.956  14.920 -20.883  0.00  0.00    -0.082 A 
ATOM     19  H20 MKH d   1       5.320  15.081 -19.193  0.00  0.00     0.084 H 
ATOM     20  C25 MKH d   1       3.453  14.088 -21.897  0.00  0.00    -0.083 A 
ATOM     21  H21 MKH d   1       3.609  15.944 -20.806  0.00  0.00     0.083 H 
ATOM     22  C26 MKH d   1       3.906  12.774 -21.982  0.00  0.00    -0.082 A 
ATOM     23  H22 MKH d   1       2.722  14.464 -22.604  0.00  0.00     0.083 H 
ATOM     24  C27 MKH d   1       4.819  12.246 -21.052  0.00  0.00    -0.073 A 
ATOM     25  H23 MKH d   1       3.546  12.142 -22.786  0.00  0.00     0.083 H 
ATOM     26  H24 MKH d   1       5.126  11.208 -21.103  0.00  0.00     0.084 H 
ENDBRANCH  13  16
BRANCH  13  27
ATOM     27  C28 MKH d   1       5.518  12.088 -17.830  0.00  0.00    -0.017 A 
ATOM     28  C29 MKH d   1       5.823  12.625 -16.594  0.00  0.00    -0.073 A 
ATOM     29  C30 MKH d   1       5.124  12.234 -15.485  0.00  0.00    -0.082 A 
ATOM     30  H25 MKH d   1       6.617  13.357 -16.503  0.00  0.00     0.084 H 
ATOM     31  C31 MKH d   1       4.125  11.276 -15.560  0.00  0.00    -0.083 A 
ATOM     32  H26 MKH d   1       5.356  12.683 -14.526  0.00  0.00     0.083 H 
ATOM     33  C32 MKH d   1       3.778  10.714 -16.820  0.00  0.00    -0.082 A 
ATOM     34  H27 MKH d   1       3.610  10.956 -14.662  0.00  0.00     0.083 H 
ATOM     35  C33 MKH d   1       4.468  11.168 -17.939  0.00  0.00    -0.073 A 
ATOM     36  H28 MKH d   1       3.004   9.960 -16.905  0.00  0.00     0.083 H 
ATOM     37  H29 MKH d   1       4.186  10.801 -18.919  0.00  0.00     0.084 H 
ENDBRANCH  13  27
ENDBRANCH   5  13
BRANCH   1  38
ATOM     38  S12 MKH d   1       8.083   9.526 -17.983  0.00  0.00     0.229 S 
ATOM     39  O18 MKH d   1       9.243   8.714 -18.411  0.00  0.00    -0.206 OA
ATOM     40  O19 MKH d   1       6.874   8.795 -18.350  0.00  0.00    -0.206 OA
BRANCH  38  41
ATOM     41  C11 MKH d   1       8.003   9.669 -16.284  0.00  0.00     0.048 C 
ATOM     42  H10 MKH d   1       8.802  10.338 -15.931  0.00  0.00     0.059 H 
ATOM     43  H11 MKH d   1       7.025  10.081 -15.994  0.00  0.00     0.059 H 
BRANCH  41  44
ATOM     44  C10 MKH d   1       8.186   8.248 -15.647  0.00  0.00    -0.036 C 
ATOM     45  H8  MKH d   1       7.337   7.602 -15.915  0.00  0.00     0.036 H 
ATOM     46  H9  MKH d   1       9.121   7.792 -16.004  0.00  0.00     0.036 H 
BRANCH  44  47
ATOM     47  C9  MKH d   1       8.241   8.437 -14.144  0.00  0.00     0.000 C 
ATOM     48  H6  MKH d   1       8.532   7.482 -13.683  0.00  0.00     0.064 H 
ATOM     49  H7  MKH d   1       9.000   9.200 -13.916  0.00  0.00     0.064 H 
BRANCH  47  50
ATOM     50  N5  MKH d   1       6.920   8.878 -13.543  0.00  0.00    -0.333 N 
ATOM     51  C4  MKH d   1       6.776  10.144 -12.984  0.00  0.00     0.325 C 
ATOM     52  N3  MKH d   1       5.614  10.492 -12.397  0.00  0.00    -0.279 N 
ATOM     53  O8  MKH d   1       7.710  10.968 -13.073  0.00  0.00    -0.247 OA
ATOM     54  C2  MKH d   1       4.570   9.628 -12.407  0.00  0.00     0.227 C 
ATOM     55  H1  MKH d   1       5.522  11.385 -11.956  0.00  0.00     0.173 HD
ATOM     56  O1  MKH d   1       3.585  10.053 -11.921  0.00  0.00    -0.273 OA
ATOM     57  C7  MKH d   1       4.643   8.331 -12.871  0.00  0.00     0.025 C 
ATOM     58  C6  MKH d   1       5.895   7.962 -13.543  0.00  0.00     0.007 C 
ATOM     59  H4  MKH d   1       3.820   8.181 -13.585  0.00  0.00     0.049 H 
ATOM     60  H5  MKH d   1       4.510   7.657 -12.012  0.00  0.00     0.049 H 
ATOM     61  H2  MKH d   1       6.271   7.050 -13.057  0.00  0.00     0.065 H 
ATOM     62  H3  MKH d   1       5.651   7.744 -14.593  0.00  0.00     0.065 H 
ENDBRANCH  47  50
ENDBRANCH  44  47
ENDBRANCH  41  44
ENDBRANCH  38  41
ENDBRANCH   1  38
TORSDOF 9
