REMARK WARNING: 32 MAX_TORS EXCEEDED!!!
REMARK  41 active torsions:
REMARK  status: ('A' for Active; 'I' for Inactive)
REMARK       I    between atoms: CAA_33  and  N2_1 
REMARK    1  A    between atoms: N2_1  and  C2_35 
REMARK    2  A    between atoms: C3_2  and  C4_3 
REMARK    3  A    between atoms: C2_35  and  C3_2 
REMARK    4  A    between atoms: C3_2  and  O3_36 
REMARK    5  A    between atoms: C4_3  and  C5_4 
REMARK    6  A    between atoms: C4_3  and  O4_37 
REMARK    7  A    between atoms: C5_4  and  C6_5 
REMARK    8  A    between atoms: C6_5  and  C7_6 
REMARK    9  A    between atoms: C7_6  and  C8_7 
REMARK   10  A    between atoms: C8_7  and  C9_8 
REMARK   11  A    between atoms: C2_35  and  C1_9 
REMARK   12  A    between atoms: C1_9  and  O1A_38 
REMARK   13  A    between atoms: CAW_11  and  CAX_10 
REMARK   14  A    between atoms: CAV_12  and  CAW_11 
REMARK   15  A    between atoms: CAU_13  and  CAV_12 
REMARK   16  A    between atoms: CAT_14  and  CAU_13 
REMARK   17  A    between atoms: CAS_15  and  CAT_14 
REMARK   18  A    between atoms: CAR_16  and  CAS_15 
REMARK   19  A    between atoms: CAQ_17  and  CAR_16 
REMARK   20  A    between atoms: CAP_18  and  CAQ_17 
REMARK   21  A    between atoms: CAO_19  and  CAP_18 
REMARK   22  A    between atoms: CAN_20  and  CAO_19 
REMARK   23  A    between atoms: CAM_21  and  CAN_20 
REMARK   24  A    between atoms: CAL_22  and  CAM_21 
REMARK   25  A    between atoms: CAK_23  and  CAL_22 
REMARK   26  A    between atoms: CAJ_24  and  CAK_23 
REMARK   27  A    between atoms: CAI_25  and  CAJ_24 
REMARK   28  A    between atoms: CAH_26  and  CAI_25 
REMARK   29  A    between atoms: CAG_27  and  CAH_26 
REMARK   30  A    between atoms: CAF_28  and  CAG_27 
REMARK   31  A    between atoms: CAE_29  and  CAF_28 
REMARK   32  A    between atoms: CAD_30  and  CAE_29 
REMARK   33  A    between atoms: CAC_31  and  CAD_30 
REMARK   34  A    between atoms: CAB_32  and  CAC_31 
REMARK   35  A    between atoms: CAB_32  and  CAA_33 
REMARK   36  A    between atoms: O1A_38  and  C1A_39 
REMARK   37  A    between atoms: C5M_41  and  C6A_42 
REMARK   38  A    between atoms: C6A_42  and  O5A_43 
REMARK   39  A    between atoms: C4A_44  and  O4A_45 
REMARK   40  A    between atoms: C3A_46  and  O3A_47 
REMARK   41  A    between atoms: C2A_48  and  O2A_49 
ROOT
ATOM      1  CAD FEE d   1     -14.195 -45.480 -66.524  0.00  0.00    -0.065 C 
ATOM      2  H   FEE d   1     -13.152 -45.748 -66.689  0.00  0.00     0.033 H 
ATOM      3  H   FEE d   1     -14.771 -46.351 -66.213  0.00  0.00     0.033 H 
ENDROOT
BRANCH   1   4
ATOM      4  CAE FEE d   1     -14.778 -44.941 -67.825  0.00  0.00    -0.065 C 
ATOM      5  H   FEE d   1     -15.756 -44.509 -67.612  0.00  0.00     0.033 H 
ATOM      6  H   FEE d   1     -14.091 -44.197 -68.228  0.00  0.00     0.033 H 
BRANCH   4   7
ATOM      7  CAF FEE d   1     -14.955 -46.047 -68.862  0.00  0.00    -0.065 C 
ATOM      8  H   FEE d   1     -14.025 -46.610 -68.942  0.00  0.00     0.033 H 
ATOM      9  H   FEE d   1     -15.770 -46.700 -68.549  0.00  0.00     0.033 H 
BRANCH   7  10
ATOM     10  CAG FEE d   1     -15.293 -45.450 -70.226  0.00  0.00    -0.065 C 
ATOM     11  H   FEE d   1     -16.359 -45.225 -70.244  0.00  0.00     0.033 H 
ATOM     12  H   FEE d   1     -14.683 -44.558 -70.367  0.00  0.00     0.033 H 
BRANCH  10  13
ATOM     13  CAH FEE d   1     -14.992 -46.418 -71.367  0.00  0.00    -0.065 C 
ATOM     14  H   FEE d   1     -13.916 -46.587 -71.409  0.00  0.00     0.033 H 
ATOM     15  H   FEE d   1     -15.525 -47.351 -71.185  0.00  0.00     0.033 H 
BRANCH  13  16
ATOM     16  CAI FEE d   1     -15.451 -45.843 -72.704  0.00  0.00    -0.065 C 
ATOM     17  H   FEE d   1     -16.193 -46.517 -73.133  0.00  0.00     0.033 H 
ATOM     18  H   FEE d   1     -15.866 -44.850 -72.528  0.00  0.00     0.033 H 
BRANCH  16  19
ATOM     19  CAJ FEE d   1     -14.292 -45.714 -73.686  0.00  0.00    -0.065 C 
ATOM     20  H   FEE d   1     -13.505 -45.125 -73.216  0.00  0.00     0.033 H 
ATOM     21  H   FEE d   1     -13.943 -46.714 -73.942  0.00  0.00     0.033 H 
BRANCH  19  22
ATOM     22  CAK FEE d   1     -14.723 -45.009 -74.970  0.00  0.00    -0.065 C 
ATOM     23  H   FEE d   1     -14.502 -45.663 -75.814  0.00  0.00     0.033 H 
ATOM     24  H   FEE d   1     -15.789 -44.790 -74.902  0.00  0.00     0.033 H 
BRANCH  22  25
ATOM     25  CAL FEE d   1     -13.971 -43.695 -75.167  0.00  0.00    -0.065 C 
ATOM     26  H   FEE d   1     -13.835 -43.222 -74.194  0.00  0.00     0.033 H 
ATOM     27  H   FEE d   1     -13.011 -43.910 -75.637  0.00  0.00     0.033 H 
BRANCH  25  28
ATOM     28  CAM FEE d   1     -14.754 -42.742 -76.069  0.00  0.00    -0.065 C 
ATOM     29  H   FEE d   1     -14.237 -42.682 -77.027  0.00  0.00     0.033 H 
ATOM     30  H   FEE d   1     -15.768 -43.129 -76.170  0.00  0.00     0.033 H 
BRANCH  28  31
ATOM     31  CAN FEE d   1     -14.840 -41.332 -75.487  0.00  0.00    -0.065 C 
ATOM     32  H   FEE d   1     -15.322 -41.386 -74.511  0.00  0.00     0.033 H 
ATOM     33  H   FEE d   1     -13.832 -40.926 -75.404  0.00  0.00     0.033 H 
BRANCH  31  34
ATOM     34  CAO FEE d   1     -15.664 -40.416 -76.390  0.00  0.00    -0.065 C 
ATOM     35  H   FEE d   1     -14.989 -39.698 -76.856  0.00  0.00     0.033 H 
ATOM     36  H   FEE d   1     -16.174 -41.033 -77.130  0.00  0.00     0.033 H 
BRANCH  34  37
ATOM     37  CAP FEE d   1     -16.719 -39.641 -75.603  0.00  0.00    -0.065 C 
ATOM     38  H   FEE d   1     -16.710 -40.005 -74.576  0.00  0.00     0.033 H 
ATOM     39  H   FEE d   1     -16.478 -38.580 -75.668  0.00  0.00     0.033 H 
BRANCH  37  40
ATOM     40  CAQ FEE d   1     -18.124 -39.842 -76.164  0.00  0.00    -0.065 C 
ATOM     41  H   FEE d   1     -18.181 -39.358 -77.139  0.00  0.00     0.033 H 
ATOM     42  H   FEE d   1     -18.317 -40.912 -76.242  0.00  0.00     0.033 H 
BRANCH  40  43
ATOM     43  CAR FEE d   1     -19.178 -39.222 -75.251  0.00  0.00    -0.065 C 
ATOM     44  H   FEE d   1     -18.759 -39.142 -74.248  0.00  0.00     0.033 H 
ATOM     45  H   FEE d   1     -19.450 -38.246 -75.653  0.00  0.00     0.033 H 
BRANCH  43  46
ATOM     46  CAS FEE d   1     -20.439 -40.081 -75.179  0.00  0.00    -0.065 C 
ATOM     47  H   FEE d   1     -21.223 -39.588 -75.754  0.00  0.00     0.033 H 
ATOM     48  H   FEE d   1     -20.204 -41.068 -75.577  0.00  0.00     0.033 H 
BRANCH  46  49
ATOM     49  CAT FEE d   1     -20.931 -40.248 -73.743  0.00  0.00    -0.065 C 
ATOM     50  H   FEE d   1     -20.063 -40.258 -73.083  0.00  0.00     0.033 H 
ATOM     51  H   FEE d   1     -21.606 -39.423 -73.515  0.00  0.00     0.033 H 
BRANCH  49  52
ATOM     52  CAU FEE d   1     -21.693 -41.556 -73.551  0.00  0.00    -0.065 C 
ATOM     53  H   FEE d   1     -22.598 -41.345 -72.980  0.00  0.00     0.033 H 
ATOM     54  H   FEE d   1     -21.922 -41.967 -74.534  0.00  0.00     0.033 H 
BRANCH  52  55
ATOM     55  CAV FEE d   1     -20.868 -42.584 -72.781  0.00  0.00    -0.065 C 
ATOM     56  H   FEE d   1     -19.814 -42.326 -72.884  0.00  0.00     0.033 H 
ATOM     57  H   FEE d   1     -21.185 -42.569 -71.738  0.00  0.00     0.033 H 
BRANCH  55  58
ATOM     58  CAW FEE d   1     -21.075 -43.996 -73.328  0.00  0.00    -0.069 C 
ATOM     59  H   FEE d   1     -22.048 -44.353 -72.991  0.00  0.00     0.032 H 
ATOM     60  H   FEE d   1     -21.010 -43.953 -74.415  0.00  0.00     0.032 H 
BRANCH  58  61
ATOM     61  CAX FEE d   1     -20.010 -44.966 -72.824  0.00  0.00    -0.077 C 
ATOM     62  H   FEE d   1     -19.026 -44.619 -73.139  0.00  0.00     0.027 H 
ATOM     63  H   FEE d   1     -20.049 -45.013 -71.736  0.00  0.00     0.027 H 
ATOM     64  H   FEE d   1     -20.197 -45.957 -73.238  0.00  0.00     0.027 H 
ENDBRANCH  58  61
ENDBRANCH  55  58
ENDBRANCH  52  55
ENDBRANCH  49  52
ENDBRANCH  46  49
ENDBRANCH  43  46
ENDBRANCH  40  43
ENDBRANCH  37  40
ENDBRANCH  34  37
ENDBRANCH  31  34
ENDBRANCH  28  31
ENDBRANCH  25  28
ENDBRANCH  22  25
ENDBRANCH  19  22
ENDBRANCH  16  19
ENDBRANCH  13  16
ENDBRANCH  10  13
ENDBRANCH   7  10
ENDBRANCH   4   7
ENDBRANCH   1   4
BRANCH   1  65
ATOM     65  CAC FEE d   1     -14.265 -44.425 -65.425  0.00  0.00    -0.057 C 
ATOM     66  H   FEE d   1     -15.309 -44.300 -65.138  0.00  0.00     0.033 H 
ATOM     67  H   FEE d   1     -13.835 -43.501 -65.811  0.00  0.00     0.033 H 
BRANCH  65  68
ATOM     68  CAB FEE d   1     -13.475 -44.838 -64.185  0.00  0.00     0.009 C 
ATOM     69  H   FEE d   1     -13.655 -45.897 -64.001  0.00  0.00     0.047 H 
ATOM     70  H   FEE d   1     -13.803 -44.220 -63.349  0.00  0.00     0.047 H 
BRANCH  68  71
ATOM     71  CAA FEE d   1     -11.984 -44.634 -64.373  0.00  0.00     0.218 C 
ATOM     72  N2  FEE d   1     -11.191 -45.496 -63.731  0.00  0.00    -0.352 N 
ATOM     73  H   FEE d   1     -11.623 -46.228 -63.167  0.00  0.00     0.163 HD
ATOM     74  OAA FEE d   1     -11.560 -43.725 -65.075  0.00  0.00    -0.274 OA
BRANCH  72  75
ATOM     75  C2  FEE d   1      -9.729 -45.437 -63.801  0.00  0.00     0.060 C 
ATOM     76  H   FEE d   1      -9.361 -45.089 -64.766  0.00  0.00     0.080 H 
BRANCH  75  77
ATOM     77  C3  FEE d   1      -9.179 -46.847 -63.547  0.00  0.00     0.081 C 
ATOM     78  H   FEE d   1      -9.497 -47.095 -62.534  0.00  0.00     0.090 H 
BRANCH  77  79
ATOM     79  C4  FEE d   1      -9.752 -47.964 -64.430  0.00  0.00     0.062 C 
ATOM     80  H   FEE d   1     -10.821 -48.017 -64.223  0.00  0.00     0.086 H 
BRANCH  79  81
ATOM     81  C5  FEE d   1      -9.637 -47.702 -65.936  0.00  0.00    -0.039 C 
ATOM     82  H   FEE d   1      -8.636 -47.318 -66.130  0.00  0.00     0.036 H 
ATOM     83  H   FEE d   1     -10.424 -47.000 -66.212  0.00  0.00     0.036 H 
BRANCH  81  84
ATOM     84  C6  FEE d   1      -9.823 -48.965 -66.780  0.00  0.00    -0.063 C 
ATOM     85  H   FEE d   1      -9.370 -49.797 -66.242  0.00  0.00     0.033 H 
ATOM     86  H   FEE d   1      -9.359 -48.791 -67.751  0.00  0.00     0.033 H 
BRANCH  84  87
ATOM     87  C7  FEE d   1     -11.296 -49.304 -67.017  0.00  0.00    -0.065 C 
ATOM     88  H   FEE d   1     -11.894 -48.454 -66.690  0.00  0.00     0.033 H 
ATOM     89  H   FEE d   1     -11.526 -50.213 -66.462  0.00  0.00     0.033 H 
BRANCH  87  90
ATOM     90  C8  FEE d   1     -11.606 -49.560 -68.491  0.00  0.00    -0.069 C 
ATOM     91  H   FEE d   1     -11.131 -48.772 -69.076  0.00  0.00     0.032 H 
ATOM     92  H   FEE d   1     -12.690 -49.574 -68.609  0.00  0.00     0.032 H 
BRANCH  90  93
ATOM     93  C9  FEE d   1     -11.066 -50.893 -68.977  0.00  0.00    -0.077 C 
ATOM     94  H   FEE d   1      -9.983 -50.912 -68.853  0.00  0.00     0.027 H 
ATOM     95  H   FEE d   1     -11.513 -51.699 -68.395  0.00  0.00     0.027 H 
ATOM     96  H   FEE d   1     -11.315 -51.022 -70.030  0.00  0.00     0.027 H 
ENDBRANCH  90  93
ENDBRANCH  87  90
ENDBRANCH  84  87
ENDBRANCH  81  84
ENDBRANCH  79  81
BRANCH  79  97
ATOM     97  O4  FEE d   1      -9.080 -49.186 -64.101  0.00  0.00    -0.393 OA
ATOM     98  H   FEE d   1      -8.154 -49.116 -64.343  0.00  0.00     0.210 HD
ENDBRANCH  79  97
ENDBRANCH  77  79
BRANCH  77  99
ATOM     99  O3  FEE d   1      -7.753 -46.826 -63.687  0.00  0.00    -0.391 OA
ATOM    100  H   FEE d   1      -7.404 -47.706 -63.529  0.00  0.00     0.210 HD
ENDBRANCH  77  99
ENDBRANCH  75  77
BRANCH  75 101
ATOM    101  C1  FEE d   1      -9.306 -44.495 -62.671  0.00  0.00     0.044 C 
ATOM    102  H   FEE d   1      -9.591 -43.472 -62.917  0.00  0.00     0.077 H 
ATOM    103  H   FEE d   1      -8.225 -44.537 -62.541  0.00  0.00     0.077 H 
BRANCH 101 104
ATOM    104  O1A FEE d   1      -9.952 -44.900 -61.471  0.00  0.00    -0.356 OA
BRANCH 104 105
ATOM    105  C1A FEE d   1      -9.499 -44.228 -60.304  0.00  0.00     0.158 C 
ATOM    106  O6A FEE d   1     -10.023 -42.891 -60.223  0.00  0.00    -0.348 OA
ATOM    107  C5M FEE d   1     -11.450 -42.757 -60.100  0.00  0.00     0.089 C 
ATOM    108  C4A FEE d   1     -11.984 -43.566 -58.914  0.00  0.00     0.090 C 
ATOM    109  H   FEE d   1     -11.925 -43.163 -60.993  0.00  0.00     0.090 H 
ATOM    110  C3A FEE d   1     -11.469 -45.006 -58.968  0.00  0.00     0.092 C 
ATOM    111  H   FEE d   1     -13.072 -43.590 -58.974  0.00  0.00     0.091 H 
ATOM    112  C2A FEE d   1      -9.950 -45.034 -59.089  0.00  0.00     0.110 C 
ATOM    113  H   FEE d   1     -11.912 -45.477 -59.845  0.00  0.00     0.091 H 
ATOM    114  H   FEE d   1      -9.513 -44.587 -58.196  0.00  0.00     0.094 H 
ATOM    115  H   FEE d   1      -8.412 -44.149 -60.339  0.00  0.00     0.133 H 
BRANCH 107 116
ATOM    116  C6A FEE d   1     -11.813 -41.277 -59.985  0.00  0.00     0.043 C 
ATOM    117  H   FEE d   1     -11.116 -40.789 -59.303  0.00  0.00     0.078 H 
ATOM    118  H   FEE d   1     -12.831 -41.186 -59.606  0.00  0.00     0.078 H 
BRANCH 116 119
ATOM    119  O5A FEE d   1     -11.731 -40.649 -61.272  0.00  0.00    -0.398 OA
ATOM    120  H   FEE d   1     -11.961 -39.721 -61.189  0.00  0.00     0.209 HD
ENDBRANCH 116 119
ENDBRANCH 107 116
BRANCH 108 121
ATOM    121  O4A FEE d   1     -11.607 -42.943 -57.675  0.00  0.00    -0.390 OA
ATOM    122  H   FEE d   1     -11.948 -43.460 -56.941  0.00  0.00     0.210 HD
ENDBRANCH 108 121
BRANCH 110 123
ATOM    123  O3A FEE d   1     -11.853 -45.729 -57.797  0.00  0.00    -0.390 OA
ATOM    124  H   FEE d   1     -11.520 -46.627 -57.853  0.00  0.00     0.210 HD
ENDBRANCH 110 123
BRANCH 112 125
ATOM    125  O2A FEE d   1      -9.509 -46.387 -59.209  0.00  0.00    -0.388 OA
ATOM    126  H   FEE d   1      -9.901 -46.782 -59.991  0.00  0.00     0.210 HD
ENDBRANCH 112 125
ENDBRANCH 104 105
ENDBRANCH 101 104
ENDBRANCH  75 101
ENDBRANCH  72  75
ENDBRANCH  68  71
ENDBRANCH  65  68
ENDBRANCH   1  65
TORSDOF 41
