REMARK WARNING: 32 MAX_TORS EXCEEDED!!!
REMARK  50 active torsions:
REMARK  status: ('A' for Active; 'I' for Inactive)
REMARK    1  A    between atoms: C1_1  and  C2_2 
REMARK    2  A    between atoms: O1A_22  and  C1_1 
REMARK    3  A    between atoms: C2_2  and  N2_3 
REMARK    4  A    between atoms: C2_2  and  C3_4 
REMARK       I    between atoms: N2_3  and  CAA_32 
REMARK    5  A    between atoms: C3_4  and  O3_5 
REMARK    6  A    between atoms: C3_4  and  C4_6 
REMARK    7  A    between atoms: C4_6  and  C5_7 
REMARK    8  A    between atoms: C5_7  and  C6_8 
REMARK    9  A    between atoms: C6_8  and  C7_9 
REMARK   10  A    between atoms: C7_9  and  C8_10 
REMARK   11  A    between atoms: C8_10  and  C9_11 
REMARK   12  A    between atoms: C9_11  and  C10_12 
REMARK   13  A    between atoms: C10_12  and  C11_13 
REMARK   14  A    between atoms: C11_13  and  C12_14 
REMARK   15  A    between atoms: C12_14  and  C13_15 
REMARK   16  A    between atoms: C13_15  and  C14_16 
REMARK   17  A    between atoms: C14_16  and  C15_17 
REMARK   18  A    between atoms: C15_17  and  C16_18 
REMARK   19  A    between atoms: C16_18  and  C17_19 
REMARK   20  A    between atoms: C17_19  and  C18_20 
REMARK   21  A    between atoms: C1A_21  and  O1A_22 
REMARK   22  A    between atoms: C2A_23  and  O2A_24 
REMARK   23  A    between atoms: C4A_26  and  O4A_27 
REMARK   24  A    between atoms: C6A_30  and  O5A_28 
REMARK   25  A    between atoms: C5M_29  and  C6A_30 
REMARK   26  A    between atoms: CAA_32  and  CAB_34 
REMARK   27  A    between atoms: CAB_34  and  CAC_35 
REMARK   28  A    between atoms: CAC_35  and  CAD_36 
REMARK   29  A    between atoms: CAD_36  and  CAE_37 
REMARK   30  A    between atoms: CAE_37  and  CAF_38 
REMARK   31  A    between atoms: CAF_38  and  CAG_39 
REMARK   32  A    between atoms: CAG_39  and  CAH_40 
REMARK   33  A    between atoms: CAH_40  and  CAI_41 
REMARK   34  A    between atoms: CAI_41  and  CAJ_42 
REMARK   35  A    between atoms: CAJ_42  and  CAK_43 
REMARK   36  A    between atoms: CAK_43  and  CAL_44 
REMARK   37  A    between atoms: CAL_44  and  CAM_45 
REMARK   38  A    between atoms: CAM_45  and  CAN_46 
REMARK   39  A    between atoms: CAN_46  and  CAO_47 
REMARK   40  A    between atoms: CAO_47  and  CAP_48 
REMARK   41  A    between atoms: CAP_48  and  CAQ_49 
REMARK   42  A    between atoms: CAQ_49  and  CAR_50 
REMARK   43  A    between atoms: CAR_50  and  CAS_51 
REMARK   44  A    between atoms: CAS_51  and  CAT_52 
REMARK   45  A    between atoms: CAT_52  and  CAU_53 
REMARK   46  A    between atoms: CAU_53  and  CAV_54 
REMARK   47  A    between atoms: CAV_54  and  CAW_55 
REMARK   48  A    between atoms: CAW_55  and  CAX_56 
REMARK   49  A    between atoms: CAX_56  and  CAY_57 
REMARK   50  A    between atoms: CAY_57  and  CAZ_58 
ROOT
ATOM      1  N2  3GH d   1     -11.287 -45.196 -63.801  0.00  0.00    -0.352 N 
ATOM      2  CAA 3GH d   1     -12.009 -44.141 -64.204  0.00  0.00     0.218 C 
ATOM      3  OAA 3GH d   1     -11.545 -43.140 -64.732  0.00  0.00    -0.274 OA
ATOM      4  H   3GH d   1     -11.786 -45.972 -63.366  0.00  0.00     0.163 HD
ENDROOT
BRANCH   1   5
ATOM      5  C2  3GH d   1      -9.833 -45.314 -63.940  0.00  0.00     0.057 C 
ATOM      6  H   3GH d   1      -9.421 -44.838 -64.830  0.00  0.00     0.079 H 
BRANCH   5   7
ATOM      7  C1  3GH d   1      -9.216 -44.634 -62.715  0.00  0.00     0.044 C 
ATOM      8  H   3GH d   1      -9.348 -43.556 -62.813  0.00  0.00     0.077 H 
ATOM      9  H   3GH d   1      -8.160 -44.901 -62.665  0.00  0.00     0.077 H 
BRANCH   7  10
ATOM     10  O1A 3GH d   1      -9.848 -45.060 -61.513  0.00  0.00    -0.357 OA
BRANCH  10  11
ATOM     11  C1A 3GH d   1      -9.493 -44.246 -60.392  0.00  0.00     0.156 C 
ATOM     12  C2A 3GH d   1      -9.764 -45.010 -59.097  0.00  0.00     0.085 C 
ATOM     13  C3A 3GH d   1     -11.259 -45.138 -58.801  0.00  0.00    -0.010 C 
ATOM     14  H   3GH d   1      -9.313 -44.447 -58.279  0.00  0.00     0.090 H 
ATOM     15  C4A 3GH d   1     -11.983 -43.804 -58.931  0.00  0.00     0.065 C 
ATOM     16  H   3GH d   1     -11.374 -45.490 -57.776  0.00  0.00     0.041 H 
ATOM     17  H   3GH d   1     -11.691 -45.832 -59.522  0.00  0.00     0.041 H 
ATOM     18  C5M 3GH d   1     -11.647 -43.161 -60.276  0.00  0.00     0.086 C 
ATOM     19  H   3GH d   1     -13.060 -43.965 -58.882  0.00  0.00     0.087 H 
ATOM     20  O6A 3GH d   1     -10.223 -43.009 -60.389  0.00  0.00    -0.349 OA
ATOM     21  H   3GH d   1     -11.999 -43.822 -61.068  0.00  0.00     0.090 H 
ATOM     22  H   3GH d   1      -8.432 -44.010 -60.467  0.00  0.00     0.133 H 
BRANCH  12  23
ATOM     23  O2A 3GH d   1      -9.188 -46.316 -59.193  0.00  0.00    -0.391 OA
ATOM     24  H   3GH d   1      -9.582 -46.785 -59.933  0.00  0.00     0.210 HD
ENDBRANCH  12  23
BRANCH  15  25
ATOM     25  O4A 3GH d   1     -11.588 -42.944 -57.856  0.00  0.00    -0.393 OA
ATOM     26  H   3GH d   1     -10.639 -42.800 -57.894  0.00  0.00     0.210 HD
ENDBRANCH  15  25
BRANCH  18  27
ATOM     27  C6A 3GH d   1     -12.376 -41.832 -60.488  0.00  0.00     0.043 C 
ATOM     28  H   3GH d   1     -12.778 -41.806 -61.501  0.00  0.00     0.078 H 
ATOM     29  H   3GH d   1     -13.180 -41.748 -59.757  0.00  0.00     0.078 H 
BRANCH  27  30
ATOM     30  O5A 3GH d   1     -11.472 -40.733 -60.316  0.00  0.00    -0.398 OA
ATOM     31  H   3GH d   1     -10.758 -40.804 -60.954  0.00  0.00     0.209 HD
ENDBRANCH  27  30
ENDBRANCH  18  27
ENDBRANCH  10  11
ENDBRANCH   7  10
ENDBRANCH   5   7
BRANCH   5  32
ATOM     32  C3  3GH d   1      -9.532 -46.816 -64.010  0.00  0.00     0.057 C 
ATOM     33  H   3GH d   1     -10.232 -47.340 -63.359  0.00  0.00     0.086 H 
BRANCH  32  34
ATOM     34  O3  3GH d   1      -8.194 -47.077 -63.559  0.00  0.00    -0.393 OA
ATOM     35  H   3GH d   1      -8.019 -48.020 -63.608  0.00  0.00     0.210 HD
ENDBRANCH  32  34
BRANCH  32  36
ATOM     36  C4  3GH d   1      -9.712 -47.328 -65.438  0.00  0.00    -0.039 C 
ATOM     37  H   3GH d   1      -9.185 -46.641 -66.100  0.00  0.00     0.036 H 
ATOM     38  H   3GH d   1     -10.783 -47.386 -65.631  0.00  0.00     0.036 H 
BRANCH  36  39
ATOM     39  C5  3GH d   1      -9.130 -48.721 -65.667  0.00  0.00    -0.063 C 
ATOM     40  H   3GH d   1      -8.612 -49.032 -64.760  0.00  0.00     0.033 H 
ATOM     41  H   3GH d   1      -8.451 -48.676 -66.519  0.00  0.00     0.033 H 
BRANCH  39  42
ATOM     42  C6  3GH d   1     -10.224 -49.741 -65.974  0.00  0.00    -0.065 C 
ATOM     43  H   3GH d   1     -11.142 -49.399 -65.496  0.00  0.00     0.033 H 
ATOM     44  H   3GH d   1      -9.889 -50.710 -65.604  0.00  0.00     0.033 H 
BRANCH  42  45
ATOM     45  C7  3GH d   1     -10.502 -49.883 -67.470  0.00  0.00    -0.065 C 
ATOM     46  H   3GH d   1     -10.083 -49.022 -67.991  0.00  0.00     0.033 H 
ATOM     47  H   3GH d   1     -11.579 -49.937 -67.626  0.00  0.00     0.033 H 
BRANCH  45  48
ATOM     48  C8  3GH d   1      -9.858 -51.154 -68.015  0.00  0.00    -0.065 C 
ATOM     49  H   3GH d   1      -9.466 -51.725 -67.174  0.00  0.00     0.033 H 
ATOM     50  H   3GH d   1      -9.073 -50.865 -68.714  0.00  0.00     0.033 H 
BRANCH  48  51
ATOM     51  C9  3GH d   1     -10.861 -52.029 -68.759  0.00  0.00    -0.065 C 
ATOM     52  H   3GH d   1     -11.656 -51.396 -69.152  0.00  0.00     0.033 H 
ATOM     53  H   3GH d   1     -11.262 -52.770 -68.067  0.00  0.00     0.033 H 
BRANCH  51  54
ATOM     54  C10 3GH d   1     -10.191 -52.753 -69.919  0.00  0.00    -0.065 C 
ATOM     55  H   3GH d   1      -9.303 -52.189 -70.205  0.00  0.00     0.033 H 
ATOM     56  H   3GH d   1     -10.910 -52.826 -70.735  0.00  0.00     0.033 H 
BRANCH  54  57
ATOM     57  C11 3GH d   1      -9.757 -54.163 -69.539  0.00  0.00    -0.065 C 
ATOM     58  H   3GH d   1     -10.509 -54.873 -69.883  0.00  0.00     0.033 H 
ATOM     59  H   3GH d   1      -9.651 -54.224 -68.456  0.00  0.00     0.033 H 
BRANCH  57  60
ATOM     60  C12 3GH d   1      -8.420 -54.495 -70.192  0.00  0.00    -0.065 C 
ATOM     61  H   3GH d   1      -7.659 -54.542 -69.413  0.00  0.00     0.033 H 
ATOM     62  H   3GH d   1      -8.195 -53.723 -70.927  0.00  0.00     0.033 H 
BRANCH  60  63
ATOM     63  C13 3GH d   1      -8.463 -55.841 -70.905  0.00  0.00    -0.065 C 
ATOM     64  H   3GH d   1      -7.955 -55.743 -71.865  0.00  0.00     0.033 H 
ATOM     65  H   3GH d   1      -9.505 -56.131 -71.038  0.00  0.00     0.033 H 
BRANCH  63  66
ATOM     66  C14 3GH d   1      -7.758 -56.920 -70.090  0.00  0.00    -0.065 C 
ATOM     67  H   3GH d   1      -8.348 -57.835 -70.146  0.00  0.00     0.033 H 
ATOM     68  H   3GH d   1      -7.661 -56.569 -69.063  0.00  0.00     0.033 H 
BRANCH  66  69
ATOM     69  C15 3GH d   1      -6.364 -57.210 -70.634  0.00  0.00    -0.065 C 
ATOM     70  H   3GH d   1      -6.244 -56.686 -71.582  0.00  0.00     0.033 H 
ATOM     71  H   3GH d   1      -6.258 -58.287 -70.764  0.00  0.00     0.033 H 
BRANCH  69  72
ATOM     72  C16 3GH d   1      -5.286 -56.726 -69.669  0.00  0.00    -0.065 C 
ATOM     73  H   3GH d   1      -5.668 -56.806 -68.651  0.00  0.00     0.033 H 
ATOM     74  H   3GH d   1      -5.036 -55.694 -69.915  0.00  0.00     0.033 H 
BRANCH  72  75
ATOM     75  C17 3GH d   1      -4.024 -57.574 -69.785  0.00  0.00    -0.069 C 
ATOM     76  H   3GH d   1      -4.137 -58.254 -70.629  0.00  0.00     0.032 H 
ATOM     77  H   3GH d   1      -3.886 -58.124 -68.854  0.00  0.00     0.032 H 
BRANCH  75  78
ATOM     78  C18 3GH d   1      -2.808 -56.708 -70.020  0.00  0.00    -0.077 C 
ATOM     79  H   3GH d   1      -2.938 -56.145 -70.945  0.00  0.00     0.027 H 
ATOM     80  H   3GH d   1      -2.689 -56.017 -69.186  0.00  0.00     0.027 H 
ATOM     81  H   3GH d   1      -1.923 -57.340 -70.099  0.00  0.00     0.027 H 
ENDBRANCH  75  78
ENDBRANCH  72  75
ENDBRANCH  69  72
ENDBRANCH  66  69
ENDBRANCH  63  66
ENDBRANCH  60  63
ENDBRANCH  57  60
ENDBRANCH  54  57
ENDBRANCH  51  54
ENDBRANCH  48  51
ENDBRANCH  45  48
ENDBRANCH  42  45
ENDBRANCH  39  42
ENDBRANCH  36  39
ENDBRANCH  32  36
ENDBRANCH   5  32
ENDBRANCH   1   5
BRANCH   2  82
ATOM     82  CAB 3GH d   1     -13.499 -44.237 -63.964  0.00  0.00     0.009 C 
ATOM     83  H   3GH d   1     -13.783 -43.532 -63.183  0.00  0.00     0.047 H 
ATOM     84  H   3GH d   1     -13.748 -45.253 -63.657  0.00  0.00     0.047 H 
BRANCH  82  85
ATOM     85  CAC 3GH d   1     -14.255 -43.900 -65.241  0.00  0.00    -0.057 C 
ATOM     86  H   3GH d   1     -13.803 -43.019 -65.695  0.00  0.00     0.033 H 
ATOM     87  H   3GH d   1     -15.300 -43.714 -64.992  0.00  0.00     0.033 H 
BRANCH  85  88
ATOM     88  CAD 3GH d   1     -14.184 -45.054 -66.231  0.00  0.00    -0.065 C 
ATOM     89  H   3GH d   1     -14.740 -45.896 -65.819  0.00  0.00     0.033 H 
ATOM     90  H   3GH d   1     -13.136 -45.306 -66.392  0.00  0.00     0.033 H 
BRANCH  88  91
ATOM     91  CAE 3GH d   1     -14.801 -44.680 -67.572  0.00  0.00    -0.065 C 
ATOM     92  H   3GH d   1     -14.060 -44.159 -68.178  0.00  0.00     0.033 H 
ATOM     93  H   3GH d   1     -15.661 -44.032 -67.406  0.00  0.00     0.033 H 
BRANCH  91  94
ATOM     94  CAF 3GH d   1     -15.252 -45.940 -68.299  0.00  0.00    -0.065 C 
ATOM     95  H   3GH d   1     -16.339 -45.928 -68.378  0.00  0.00     0.033 H 
ATOM     96  H   3GH d   1     -14.910 -46.809 -67.737  0.00  0.00     0.033 H 
BRANCH  94  97
ATOM     97  CAG 3GH d   1     -14.662 -46.003 -69.701  0.00  0.00    -0.065 C 
ATOM     98  H   3GH d   1     -14.036 -46.893 -69.773  0.00  0.00     0.033 H 
ATOM     99  H   3GH d   1     -14.085 -45.095 -69.874  0.00  0.00     0.033 H 
BRANCH  97 100
ATOM    100  CAH 3GH d   1     -15.753 -46.092 -70.761  0.00  0.00    -0.065 C 
ATOM    101  H   3GH d   1     -16.353 -45.183 -70.721  0.00  0.00     0.033 H 
ATOM    102  H   3GH d   1     -16.361 -46.974 -70.561  0.00  0.00     0.033 H 
BRANCH 100 103
ATOM    103  CAI 3GH d   1     -15.155 -46.219 -72.156  0.00  0.00    -0.065 C 
ATOM    104  H   3GH d   1     -15.857 -46.777 -72.775  0.00  0.00     0.033 H 
ATOM    105  H   3GH d   1     -14.192 -46.722 -72.066  0.00  0.00     0.033 H 
BRANCH 103 106
ATOM    106  CAJ 3GH d   1     -14.921 -44.864 -72.811  0.00  0.00    -0.065 C 
ATOM    107  H   3GH d   1     -14.055 -44.396 -72.344  0.00  0.00     0.033 H 
ATOM    108  H   3GH d   1     -15.815 -44.255 -72.680  0.00  0.00     0.033 H 
BRANCH 106 109
ATOM    109  CAK 3GH d   1     -14.648 -45.015 -74.301  0.00  0.00    -0.065 C 
ATOM    110  H   3GH d   1     -15.557 -44.788 -74.858  0.00  0.00     0.033 H 
ATOM    111  H   3GH d   1     -14.332 -46.038 -74.507  0.00  0.00     0.033 H 
BRANCH 109 112
ATOM    112  CAL 3GH d   1     -13.546 -44.054 -74.726  0.00  0.00    -0.065 C 
ATOM    113  H   3GH d   1     -12.706 -44.636 -75.104  0.00  0.00     0.033 H 
ATOM    114  H   3GH d   1     -13.258 -43.454 -73.863  0.00  0.00     0.033 H 
BRANCH 112 115
ATOM    115  CAM 3GH d   1     -14.021 -43.117 -75.830  0.00  0.00    -0.065 C 
ATOM    116  H   3GH d   1     -14.970 -43.492 -76.214  0.00  0.00     0.033 H 
ATOM    117  H   3GH d   1     -13.256 -43.085 -76.605  0.00  0.00     0.033 H 
BRANCH 115 118
ATOM    118  CAN 3GH d   1     -14.240 -41.699 -75.313  0.00  0.00    -0.065 C 
ATOM    119  H   3GH d   1     -13.665 -41.000 -75.920  0.00  0.00     0.033 H 
ATOM    120  H   3GH d   1     -13.914 -41.639 -74.275  0.00  0.00     0.033 H 
BRANCH 118 121
ATOM    121  CAO 3GH d   1     -15.718 -41.343 -75.399  0.00  0.00    -0.065 C 
ATOM    122  H   3GH d   1     -16.126 -41.327 -74.388  0.00  0.00     0.033 H 
ATOM    123  H   3GH d   1     -16.214 -42.086 -76.023  0.00  0.00     0.033 H 
BRANCH 121 124
ATOM    124  CAP 3GH d   1     -15.934 -39.966 -76.027  0.00  0.00    -0.065 C 
ATOM    125  H   3GH d   1     -16.227 -40.110 -77.067  0.00  0.00     0.033 H 
ATOM    126  H   3GH d   1     -15.006 -39.402 -75.935  0.00  0.00     0.033 H 
BRANCH 124 127
ATOM    127  CAQ 3GH d   1     -17.042 -39.178 -75.325  0.00  0.00    -0.065 C 
ATOM    128  H   3GH d   1     -16.954 -38.130 -75.613  0.00  0.00     0.033 H 
ATOM    129  H   3GH d   1     -16.929 -39.311 -74.249  0.00  0.00     0.033 H 
BRANCH 127 130
ATOM    130  CAR 3GH d   1     -18.428 -39.673 -75.728  0.00  0.00    -0.065 C 
ATOM    131  H   3GH d   1     -18.515 -40.722 -75.444  0.00  0.00     0.033 H 
ATOM    132  H   3GH d   1     -18.543 -39.537 -76.803  0.00  0.00     0.033 H 
BRANCH 130 133
ATOM    133  CAS 3GH d   1     -19.528 -38.893 -75.026  0.00  0.00    -0.065 C 
ATOM    134  H   3GH d   1     -19.781 -38.015 -75.621  0.00  0.00     0.033 H 
ATOM    135  H   3GH d   1     -19.178 -38.587 -74.040  0.00  0.00     0.033 H 
BRANCH 133 136
ATOM    136  CAT 3GH d   1     -20.766 -39.766 -74.869  0.00  0.00    -0.065 C 
ATOM    137  H   3GH d   1     -20.523 -40.772 -75.212  0.00  0.00     0.033 H 
ATOM    138  H   3GH d   1     -21.573 -39.326 -75.454  0.00  0.00     0.033 H 
BRANCH 136 139
ATOM    139  CAU 3GH d   1     -21.216 -39.849 -73.414  0.00  0.00    -0.065 C 
ATOM    140  H   3GH d   1     -21.988 -39.097 -73.249  0.00  0.00     0.033 H 
ATOM    141  H   3GH d   1     -20.349 -39.681 -72.775  0.00  0.00     0.033 H 
BRANCH 139 142
ATOM    142  CAV 3GH d   1     -21.799 -41.218 -73.085  0.00  0.00    -0.065 C 
ATOM    143  H   3GH d   1     -22.225 -41.641 -73.995  0.00  0.00     0.033 H 
ATOM    144  H   3GH d   1     -22.557 -41.095 -72.312  0.00  0.00     0.033 H 
BRANCH 142 145
ATOM    145  CAW 3GH d   1     -20.726 -42.168 -72.565  0.00  0.00    -0.065 C 
ATOM    146  H   3GH d   1     -20.658 -42.055 -71.483  0.00  0.00     0.033 H 
ATOM    147  H   3GH d   1     -19.782 -41.923 -73.051  0.00  0.00     0.033 H 
BRANCH 145 148
ATOM    148  CAX 3GH d   1     -21.069 -43.620 -72.879  0.00  0.00    -0.065 C 
ATOM    149  H   3GH d   1     -21.439 -43.685 -73.902  0.00  0.00     0.033 H 
ATOM    150  H   3GH d   1     -21.830 -43.965 -72.179  0.00  0.00     0.033 H 
BRANCH 148 151
ATOM    151  CAY 3GH d   1     -19.829 -44.499 -72.740  0.00  0.00    -0.069 C 
ATOM    152  H   3GH d   1     -19.227 -44.127 -71.911  0.00  0.00     0.032 H 
ATOM    153  H   3GH d   1     -19.269 -44.465 -73.675  0.00  0.00     0.032 H 
BRANCH 151 154
ATOM    154  CAZ 3GH d   1     -20.212 -45.934 -72.456  0.00  0.00    -0.077 C 
ATOM    155  H   3GH d   1     -20.780 -45.980 -71.527  0.00  0.00     0.027 H 
ATOM    156  H   3GH d   1     -20.822 -46.315 -73.275  0.00  0.00     0.027 H 
ATOM    157  H   3GH d   1     -19.309 -46.538 -72.362  0.00  0.00     0.027 H 
ENDBRANCH 151 154
ENDBRANCH 148 151
ENDBRANCH 145 148
ENDBRANCH 142 145
ENDBRANCH 139 142
ENDBRANCH 136 139
ENDBRANCH 133 136
ENDBRANCH 130 133
ENDBRANCH 127 130
ENDBRANCH 124 127
ENDBRANCH 121 124
ENDBRANCH 118 121
ENDBRANCH 115 118
ENDBRANCH 112 115
ENDBRANCH 109 112
ENDBRANCH 106 109
ENDBRANCH 103 106
ENDBRANCH 100 103
ENDBRANCH  97 100
ENDBRANCH  94  97
ENDBRANCH  91  94
ENDBRANCH  88  91
ENDBRANCH  85  88
ENDBRANCH  82  85
ENDBRANCH   2  82
TORSDOF 50
