REMARK WARNING: 32 MAX_TORS EXCEEDED!!!
REMARK  44 active torsions:
REMARK  status: ('A' for Active; 'I' for Inactive)
REMARK    1  A    between atoms: C1_1  and  C2_2 
REMARK    2  A    between atoms: O1A_23  and  C1_1 
REMARK    3  A    between atoms: C2_2  and  N2_3 
REMARK    4  A    between atoms: C2_2  and  C3_4 
REMARK       I    between atoms: N2_3  and  CAA_34 
REMARK    5  A    between atoms: C3_4  and  O3_5 
REMARK    6  A    between atoms: C3_4  and  C4_6 
REMARK    7  A    between atoms: C4_6  and  O4_7 
REMARK    8  A    between atoms: C4_6  and  C5_8 
REMARK    9  A    between atoms: C5_8  and  C6_9 
REMARK   10  A    between atoms: C6_9  and  C7_10 
REMARK   11  A    between atoms: C7_10  and  C8_11 
REMARK   12  A    between atoms: C8_11  and  C9_12 
REMARK   13  A    between atoms: C9_12  and  C10_13 
REMARK   14  A    between atoms: C10_13  and  C11_14 
REMARK   15  A    between atoms: C11_14  and  C12_15 
REMARK   16  A    between atoms: C12_15  and  C13_16 
REMARK   17  A    between atoms: C13_16  and  C14_17 
REMARK   18  A    between atoms: C14_17  and  C15_18 
REMARK   19  A    between atoms: C15_18  and  C16_19 
REMARK   20  A    between atoms: C16_19  and  C17_20 
REMARK   21  A    between atoms: C17_20  and  C18_21 
REMARK   22  A    between atoms: C1A_22  and  O1A_23 
REMARK   23  A    between atoms: C2A_24  and  O2A_25 
REMARK   24  A    between atoms: C3A_26  and  O3A_27 
REMARK   25  A    between atoms: C4A_28  and  O4A_29 
REMARK   26  A    between atoms: C6A_32  and  O5A_30 
REMARK   27  A    between atoms: C5M_31  and  C6A_32 
REMARK   28  A    between atoms: CAA_34  and  CAB_36 
REMARK   29  A    between atoms: CAB_36  and  CAC_37 
REMARK   30  A    between atoms: CAC_37  and  CAD_38 
REMARK   31  A    between atoms: CAD_38  and  CAE_39 
REMARK   32  A    between atoms: CAE_39  and  CAF_40 
REMARK   33  A    between atoms: CAF_40  and  CAG_41 
REMARK   34  A    between atoms: CAG_41  and  CAH_42 
REMARK   35  A    between atoms: CAH_42  and  CAI_43 
REMARK   36  A    between atoms: CAI_43  and  CAJ_44 
REMARK   37  A    between atoms: CAJ_44  and  CAK_45 
REMARK   38  A    between atoms: CAL_46  and  CAM_47 
REMARK   39  A    between atoms: CAM_47  and  CAN_48 
REMARK   40  A    between atoms: CAO_49  and  CAP_50 
REMARK   41  A    between atoms: CAP_50  and  CAQ_51 
REMARK   42  A    between atoms: CAQ_51  and  CAR_52 
REMARK   43  A    between atoms: CAR_52  and  CAS_53 
REMARK   44  A    between atoms: CAS_53  and  CAT_54 
ROOT
ATOM      1  C2  DB6 d   1     -10.122 -44.546 -64.024  0.00  0.00     0.060 C 
ATOM      2  H   DB6 d   1      -9.684 -44.279 -64.986  0.00  0.00     0.080 H 
ENDROOT
BRANCH   1   3
ATOM      3  C1  DB6 d   1      -9.835 -43.460 -62.979  0.00  0.00     0.044 C 
ATOM      4  H   DB6 d   1     -10.715 -42.819 -62.920  0.00  0.00     0.077 H 
ATOM      5  H   DB6 d   1      -8.935 -42.931 -63.293  0.00  0.00     0.077 H 
BRANCH   3   6
ATOM      6  O1A DB6 d   1      -9.593 -43.984 -61.668  0.00  0.00    -0.356 OA
BRANCH   6   7
ATOM      7  C1A DB6 d   1     -10.452 -43.598 -60.558  0.00  0.00     0.158 C 
ATOM      8  C2A DB6 d   1     -10.801 -44.543 -59.454  0.00  0.00     0.110 C 
ATOM      9  C3A DB6 d   1     -12.320 -44.693 -59.419  0.00  0.00     0.092 C 
ATOM     10  H   DB6 d   1     -10.431 -44.150 -58.507  0.00  0.00     0.094 H 
ATOM     11  C4A DB6 d   1     -13.136 -43.452 -59.817  0.00  0.00     0.090 C 
ATOM     12  H   DB6 d   1     -12.551 -45.449 -60.170  0.00  0.00     0.091 H 
ATOM     13  C5M DB6 d   1     -12.456 -42.367 -60.676  0.00  0.00     0.089 C 
ATOM     14  H   DB6 d   1     -13.335 -42.953 -58.869  0.00  0.00     0.091 H 
ATOM     15  O6A DB6 d   1     -11.042 -42.279 -60.486  0.00  0.00    -0.348 OA
ATOM     16  H   DB6 d   1     -12.623 -42.670 -61.710  0.00  0.00     0.090 H 
ATOM     17  H   DB6 d   1      -9.508 -43.860 -61.036  0.00  0.00     0.133 H 
BRANCH   8  18
ATOM     18  O2A DB6 d   1     -10.196 -45.822 -59.668  0.00  0.00    -0.388 OA
ATOM     19  H   DB6 d   1     -10.508 -46.188 -60.499  0.00  0.00     0.210 HD
ENDBRANCH   8  18
BRANCH   9  20
ATOM     20  O3A DB6 d   1     -12.699 -45.053 -58.086  0.00  0.00    -0.390 OA
ATOM     21  H   DB6 d   1     -13.653 -45.153 -58.042  0.00  0.00     0.210 HD
ENDBRANCH   9  20
BRANCH  11  22
ATOM     22  O4A DB6 d   1     -14.289 -43.908 -60.537  0.00  0.00    -0.390 OA
ATOM     23  H   DB6 d   1     -14.809 -44.486 -59.974  0.00  0.00     0.210 HD
ENDBRANCH  11  22
BRANCH  13  24
ATOM     24  C6A DB6 d   1     -13.080 -41.000 -60.410  0.00  0.00     0.043 C 
ATOM     25  H   DB6 d   1     -13.539 -40.988 -59.422  0.00  0.00     0.078 H 
ATOM     26  H   DB6 d   1     -12.311 -40.228 -60.446  0.00  0.00     0.078 H 
BRANCH  24  27
ATOM     27  O5A DB6 d   1     -14.073 -40.747 -61.412  0.00  0.00    -0.398 OA
ATOM     28  H   DB6 d   1     -14.473 -39.889 -61.255  0.00  0.00     0.209 HD
ENDBRANCH  24  27
ENDBRANCH  13  24
ENDBRANCH   6   7
ENDBRANCH   3   6
ENDBRANCH   1   3
BRANCH   1  29
ATOM     29  N2  DB6 d   1     -11.582 -44.656 -64.076  0.00  0.00    -0.352 N 
ATOM     30  CAA DB6 d   1     -12.305 -43.996 -64.988  0.00  0.00     0.218 C 
ATOM     31  OAA DB6 d   1     -11.810 -43.260 -65.833  0.00  0.00    -0.274 OA
ATOM     32  H   DB6 d   1     -12.060 -45.251 -63.399  0.00  0.00     0.163 HD
BRANCH  30  33
ATOM     33  CAB DB6 d   1     -13.805 -44.196 -64.923  0.00  0.00     0.009 C 
ATOM     34  H   DB6 d   1     -14.216 -43.466 -64.226  0.00  0.00     0.047 H 
ATOM     35  H   DB6 d   1     -13.999 -45.220 -64.604  0.00  0.00     0.047 H 
BRANCH  33  36
ATOM     36  CAC DB6 d   1     -14.470 -43.985 -66.284  0.00  0.00    -0.057 C 
ATOM     37  H   DB6 d   1     -13.982 -43.144 -66.776  0.00  0.00     0.033 H 
ATOM     38  H   DB6 d   1     -15.532 -43.800 -66.121  0.00  0.00     0.033 H 
BRANCH  36  39
ATOM     39  CAD DB6 d   1     -14.330 -45.216 -67.184  0.00  0.00    -0.065 C 
ATOM     40  H   DB6 d   1     -14.637 -46.095 -66.618  0.00  0.00     0.033 H 
ATOM     41  H   DB6 d   1     -13.292 -45.293 -67.506  0.00  0.00     0.033 H 
BRANCH  39  42
ATOM     42  CAE DB6 d   1     -15.215 -45.104 -68.423  0.00  0.00    -0.065 C 
ATOM     43  H   DB6 d   1     -15.245 -44.056 -68.723  0.00  0.00     0.033 H 
ATOM     44  H   DB6 d   1     -16.202 -45.491 -68.169  0.00  0.00     0.033 H 
BRANCH  42  45
ATOM     45  CAF DB6 d   1     -14.675 -45.917 -69.598  0.00  0.00    -0.065 C 
ATOM     46  H   DB6 d   1     -15.325 -46.776 -69.763  0.00  0.00     0.033 H 
ATOM     47  H   DB6 d   1     -13.662 -46.244 -69.366  0.00  0.00     0.033 H 
BRANCH  45  48
ATOM     48  CAG DB6 d   1     -14.644 -45.066 -70.869  0.00  0.00    -0.065 C 
ATOM     49  H   DB6 d   1     -13.707 -44.510 -70.875  0.00  0.00     0.033 H 
ATOM     50  H   DB6 d   1     -15.521 -44.418 -70.858  0.00  0.00     0.033 H 
BRANCH  48  51
ATOM     51  CAH DB6 d   1     -14.698 -45.904 -72.145  0.00  0.00    -0.065 C 
ATOM     52  H   DB6 d   1     -15.394 -46.729 -71.996  0.00  0.00     0.033 H 
ATOM     53  H   DB6 d   1     -13.698 -46.279 -72.363  0.00  0.00     0.033 H 
BRANCH  51  54
ATOM     54  CAI DB6 d   1     -15.178 -45.060 -73.325  0.00  0.00    -0.062 C 
ATOM     55  H   DB6 d   1     -15.047 -44.009 -73.068  0.00  0.00     0.033 H 
ATOM     56  H   DB6 d   1     -16.222 -45.306 -73.518  0.00  0.00     0.033 H 
BRANCH  54  57
ATOM     57  CAJ DB6 d   1     -14.378 -45.345 -74.594  0.00  0.00    -0.050 C 
ATOM     58  H   DB6 d   1     -14.672 -46.315 -74.996  0.00  0.00     0.038 H 
ATOM     59  H   DB6 d   1     -13.314 -45.352 -74.356  0.00  0.00     0.038 H 
BRANCH  57  60
ATOM     60  CAK DB6 d   1     -14.654 -44.272 -75.624  0.00  0.00    -0.106 C 
ATOM     61  CAL DB6 d   1     -13.858 -43.207 -75.720  0.00  0.00    -0.103 C 
ATOM     62  H   DB6 d   1     -12.998 -43.110 -75.057  0.00  0.00     0.076 H 
ATOM     63  H   DB6 d   1     -15.509 -44.370 -76.292  0.00  0.00     0.076 H 
BRANCH  61  64
ATOM     64  CAM DB6 d   1     -14.144 -42.134 -76.745  0.00  0.00    -0.035 C 
ATOM     65  H   DB6 d   1     -14.781 -42.543 -77.529  0.00  0.00     0.044 H 
ATOM     66  H   DB6 d   1     -13.206 -41.789 -77.179  0.00  0.00     0.044 H 
BRANCH  64  67
ATOM     67  CAN DB6 d   1     -14.848 -40.972 -76.080  0.00  0.00    -0.103 C 
ATOM     68  CAO DB6 d   1     -16.045 -40.574 -76.508  0.00  0.00    -0.106 C 
ATOM     69  H   DB6 d   1     -16.521 -41.087 -77.344  0.00  0.00     0.076 H 
ATOM     70  H   DB6 d   1     -14.373 -40.457 -75.245  0.00  0.00     0.076 H 
BRANCH  68  71
ATOM     71  CAP DB6 d   1     -16.747 -39.412 -75.837  0.00  0.00    -0.050 C 
ATOM     72  H   DB6 d   1     -16.169 -38.507 -76.021  0.00  0.00     0.038 H 
ATOM     73  H   DB6 d   1     -16.827 -39.626 -74.771  0.00  0.00     0.038 H 
BRANCH  71  74
ATOM     74  CAQ DB6 d   1     -18.156 -39.209 -76.397  0.00  0.00    -0.062 C 
ATOM     75  H   DB6 d   1     -18.143 -39.446 -77.461  0.00  0.00     0.033 H 
ATOM     76  H   DB6 d   1     -18.452 -38.175 -76.223  0.00  0.00     0.033 H 
BRANCH  74  77
ATOM     77  CAR DB6 d   1     -19.167 -40.124 -75.710  0.00  0.00    -0.065 C 
ATOM     78  H   DB6 d   1     -18.710 -40.509 -74.798  0.00  0.00     0.033 H 
ATOM     79  H   DB6 d   1     -19.432 -40.919 -76.407  0.00  0.00     0.033 H 
BRANCH  77  80
ATOM     80  CAS DB6 d   1     -20.445 -39.387 -75.325  0.00  0.00    -0.069 C 
ATOM     81  H   DB6 d   1     -21.065 -39.280 -76.215  0.00  0.00     0.032 H 
ATOM     82  H   DB6 d   1     -20.174 -38.415 -74.912  0.00  0.00     0.032 H 
BRANCH  80  83
ATOM     83  CAT DB6 d   1     -21.230 -40.154 -74.279  0.00  0.00    -0.077 C 
ATOM     84  H   DB6 d   1     -21.500 -41.133 -74.675  0.00  0.00     0.027 H 
ATOM     85  H   DB6 d   1     -20.618 -40.278 -73.386  0.00  0.00     0.027 H 
ATOM     86  H   DB6 d   1     -22.135 -39.601 -74.027  0.00  0.00     0.027 H 
ENDBRANCH  80  83
ENDBRANCH  77  80
ENDBRANCH  74  77
ENDBRANCH  71  74
ENDBRANCH  68  71
ENDBRANCH  64  67
ENDBRANCH  61  64
ENDBRANCH  57  60
ENDBRANCH  54  57
ENDBRANCH  51  54
ENDBRANCH  48  51
ENDBRANCH  45  48
ENDBRANCH  42  45
ENDBRANCH  39  42
ENDBRANCH  36  39
ENDBRANCH  33  36
ENDBRANCH  30  33
ENDBRANCH   1  29
BRANCH   1  87
ATOM     87  C3  DB6 d   1      -9.506 -45.899 -63.641  0.00  0.00     0.081 C 
ATOM     88  H   DB6 d   1      -9.847 -46.113 -62.628  0.00  0.00     0.090 H 
BRANCH  87  89
ATOM     89  O3  DB6 d   1      -8.079 -45.788 -63.739  0.00  0.00    -0.391 OA
ATOM     90  H   DB6 d   1      -7.677 -46.627 -63.502  0.00  0.00     0.210 HD
ENDBRANCH  87  89
BRANCH  87  91
ATOM     91  C4  DB6 d   1      -9.962 -47.082 -64.497  0.00  0.00     0.062 C 
ATOM     92  H   DB6 d   1     -11.052 -47.099 -64.499  0.00  0.00     0.086 H 
BRANCH  91  93
ATOM     93  O4  DB6 d   1      -9.418 -48.280 -63.925  0.00  0.00    -0.393 OA
ATOM     94  H   DB6 d   1      -8.460 -48.224 -63.920  0.00  0.00     0.210 HD
ENDBRANCH  91  93
BRANCH  91  95
ATOM     95  C5  DB6 d   1      -9.533 -46.964 -65.961  0.00  0.00    -0.039 C 
ATOM     96  H   DB6 d   1      -8.499 -46.619 -65.984  0.00  0.00     0.036 H 
ATOM     97  H   DB6 d   1     -10.211 -46.270 -66.457  0.00  0.00     0.036 H 
BRANCH  95  98
ATOM     98  C6  DB6 d   1      -9.603 -48.299 -66.693  0.00  0.00    -0.063 C 
ATOM     99  H   DB6 d   1      -9.583 -49.101 -65.955  0.00  0.00     0.033 H 
ATOM    100  H   DB6 d   1      -8.755 -48.366 -67.374  0.00  0.00     0.033 H 
BRANCH  98 101
ATOM    101  C7  DB6 d   1     -10.885 -48.419 -67.503  0.00  0.00    -0.065 C 
ATOM    102  H   DB6 d   1     -10.800 -47.809 -68.402  0.00  0.00     0.033 H 
ATOM    103  H   DB6 d   1     -11.725 -48.076 -66.898  0.00  0.00     0.033 H 
BRANCH 101 104
ATOM    104  C8  DB6 d   1     -11.114 -49.867 -67.901  0.00  0.00    -0.065 C 
ATOM    105  H   DB6 d   1     -12.124 -50.151 -67.607  0.00  0.00     0.033 H 
ATOM    106  H   DB6 d   1     -10.366 -50.485 -67.404  0.00  0.00     0.033 H 
BRANCH 104 107
ATOM    107  C9  DB6 d   1     -10.977 -50.059 -69.405  0.00  0.00    -0.065 C 
ATOM    108  H   DB6 d   1      -9.984 -49.733 -69.716  0.00  0.00     0.033 H 
ATOM    109  H   DB6 d   1     -11.744 -49.472 -69.910  0.00  0.00     0.033 H 
BRANCH 107 110
ATOM    110  C10 DB6 d   1     -11.155 -51.527 -69.770  0.00  0.00    -0.065 C 
ATOM    111  H   DB6 d   1     -11.905 -51.603 -70.557  0.00  0.00     0.033 H 
ATOM    112  H   DB6 d   1     -11.466 -52.073 -68.880  0.00  0.00     0.033 H 
BRANCH 110 113
ATOM    113  C11 DB6 d   1      -9.851 -52.125 -70.279  0.00  0.00    -0.065 C 
ATOM    114  H   DB6 d   1      -9.068 -51.949 -69.542  0.00  0.00     0.033 H 
ATOM    115  H   DB6 d   1      -9.592 -51.656 -71.228  0.00  0.00     0.033 H 
BRANCH 113 116
ATOM    116  C12 DB6 d   1     -10.003 -53.624 -70.492  0.00  0.00    -0.065 C 
ATOM    117  H   DB6 d   1      -9.974 -53.833 -71.561  0.00  0.00     0.033 H 
ATOM    118  H   DB6 d   1     -10.951 -53.947 -70.062  0.00  0.00     0.033 H 
BRANCH 116 119
ATOM    119  C13 DB6 d   1      -8.872 -54.380 -69.812  0.00  0.00    -0.065 C 
ATOM    120  H   DB6 d   1      -8.978 -54.276 -68.732  0.00  0.00     0.033 H 
ATOM    121  H   DB6 d   1      -7.920 -53.967 -70.147  0.00  0.00     0.033 H 
BRANCH 119 122
ATOM    122  C14 DB6 d   1      -8.921 -55.860 -70.172  0.00  0.00    -0.065 C 
ATOM    123  H   DB6 d   1      -9.879 -56.070 -70.647  0.00  0.00     0.033 H 
ATOM    124  H   DB6 d   1      -8.794 -56.443 -69.260  0.00  0.00     0.033 H 
BRANCH 122 125
ATOM    125  C15 DB6 d   1      -7.805 -56.232 -71.145  0.00  0.00    -0.065 C 
ATOM    126  H   DB6 d   1      -7.446 -55.324 -71.629  0.00  0.00     0.033 H 
ATOM    127  H   DB6 d   1      -8.200 -56.935 -71.878  0.00  0.00     0.033 H 
BRANCH 125 128
ATOM    128  C16 DB6 d   1      -6.639 -56.891 -70.413  0.00  0.00    -0.065 C 
ATOM    129  H   DB6 d   1      -6.765 -57.972 -70.466  0.00  0.00     0.033 H 
ATOM    130  H   DB6 d   1      -6.636 -56.540 -69.381  0.00  0.00     0.033 H 
BRANCH 128 131
ATOM    131  C17 DB6 d   1      -5.304 -56.528 -71.051  0.00  0.00    -0.069 C 
ATOM    132  H   DB6 d   1      -5.493 -56.073 -72.023  0.00  0.00     0.032 H 
ATOM    133  H   DB6 d   1      -4.707 -57.434 -71.153  0.00  0.00     0.032 H 
BRANCH 131 134
ATOM    134  C18 DB6 d   1      -4.545 -55.542 -70.194  0.00  0.00    -0.077 C 
ATOM    135  H   DB6 d   1      -5.136 -54.634 -70.077  0.00  0.00     0.027 H 
ATOM    136  H   DB6 d   1      -4.357 -55.983 -69.215  0.00  0.00     0.027 H 
ATOM    137  H   DB6 d   1      -3.596 -55.301 -70.674  0.00  0.00     0.027 H 
ENDBRANCH 131 134
ENDBRANCH 128 131
ENDBRANCH 125 128
ENDBRANCH 122 125
ENDBRANCH 119 122
ENDBRANCH 116 119
ENDBRANCH 113 116
ENDBRANCH 110 113
ENDBRANCH 107 110
ENDBRANCH 104 107
ENDBRANCH 101 104
ENDBRANCH  98 101
ENDBRANCH  95  98
ENDBRANCH  91  95
ENDBRANCH  87  91
ENDBRANCH   1  87
TORSDOF 44
