REMARK  11 active torsions:
REMARK  status: ('A' for Active; 'I' for Inactive)
REMARK    1  A    between atoms: C9_9  and  N5_5 
REMARK    2  A    between atoms: O10_11  and  C9_9 
REMARK    3  A    between atoms: C10_10  and  C13_15 
REMARK    4  A    between atoms: N17_21  and  C10_10 
REMARK    5  A    between atoms: C10_10  and  C25_25 
REMARK    6  A    between atoms: C10_10  and  C26_26 
REMARK    7  A    between atoms: C11_12  and  O10_11 
REMARK    8  A    between atoms: C12_13  and  C11_12 
REMARK    9  A    between atoms: C13_15  and  C12_13 
REMARK   10  A    between atoms: S12_14  and  C14_17 
REMARK   11  A    between atoms: S12_14  and  N17_21 
ROOT
ATOM      1  C10 MSJ d   1      -6.471  33.018  24.877  0.00  0.00     0.033 C 
ENDROOT
BRANCH   1   2
ATOM      2  C13 MSJ d   1      -6.763  33.199  26.401  0.00  0.00    -0.040 C 
ATOM      3  H10 MSJ d   1      -6.960  34.263  26.601  0.00  0.00     0.036 H 
ATOM      4  H11 MSJ d   1      -5.880  32.876  26.972  0.00  0.00     0.036 H 
BRANCH   2   5
ATOM      5  C12 MSJ d   1      -8.016  32.350  26.872  0.00  0.00    -0.043 C 
ATOM      6  H8  MSJ d   1      -8.936  32.883  26.589  0.00  0.00     0.036 H 
ATOM      7  H9  MSJ d   1      -7.992  31.370  26.373  0.00  0.00     0.036 H 
BRANCH   5   8
ATOM      8  C11 MSJ d   1      -8.011  32.137  28.385  0.00  0.00     0.022 C 
ATOM      9  H6  MSJ d   1      -8.854  31.493  28.676  0.00  0.00     0.074 H 
ATOM     10  H7  MSJ d   1      -7.066  31.667  28.695  0.00  0.00     0.074 H 
BRANCH   8  11
ATOM     11  O10 MSJ d   1      -8.146  33.456  29.018  0.00  0.00    -0.371 OA
BRANCH  11  12
ATOM     12  C9  MSJ d   1      -8.361  33.359  30.463  0.00  0.00     0.087 C 
ATOM     13  H4  MSJ d   1      -8.672  34.334  30.865  0.00  0.00     0.108 H 
ATOM     14  H5  MSJ d   1      -9.136  32.609  30.680  0.00  0.00     0.108 H 
BRANCH  12  15
ATOM     15  N5  MSJ d   1      -7.069  32.947  31.067  0.00  0.00    -0.288 N 
ATOM     16  C4  MSJ d   1      -6.933  31.675  31.590  0.00  0.00     0.330 A 
ATOM     17  N3  MSJ d   1      -5.771  31.322  32.143  0.00  0.00    -0.275 N 
ATOM     18  O8  MSJ d   1      -7.903  30.890  31.567  0.00  0.00    -0.246 OA
ATOM     19  C2  MSJ d   1      -4.695  32.162  32.190  0.00  0.00     0.250 A 
ATOM     20  H1  MSJ d   1      -5.685  30.407  32.538  0.00  0.00     0.173 HD
ATOM     21  O1  MSJ d   1      -3.596  31.747  32.661  0.00  0.00    -0.268 OA
ATOM     22  C7  MSJ d   1      -4.766  33.463  31.682  0.00  0.00    -0.002 A 
ATOM     23  C6  MSJ d   1      -5.996  33.761  31.114  0.00  0.00    -0.009 A 
ATOM     24  H3  MSJ d   1      -3.939  34.170  31.728  0.00  0.00     0.094 H 
ATOM     25  H2  MSJ d   1      -6.105  34.746  30.663  0.00  0.00     0.112 H 
ENDBRANCH  12  15
ENDBRANCH  11  12
ENDBRANCH   8  11
ENDBRANCH   5   8
ENDBRANCH   2   5
ENDBRANCH   1   2
BRANCH   1  26
ATOM     26  N17 MSJ d   1      -6.193  31.653  24.408  0.00  0.00    -0.306 N 
ATOM     27  H15 MSJ d   1      -6.828  31.299  23.721  0.00  0.00     0.173 HD
BRANCH  26  28
ATOM     28  S12 MSJ d   1      -5.055  30.679  24.825  0.00  0.00     0.259 S 
ATOM     29  O13 MSJ d   1      -5.078  29.473  24.132  0.00  0.00    -0.201 OA
ATOM     30  O19 MSJ d   1      -3.918  31.358  24.453  0.00  0.00    -0.201 OA
BRANCH  28  31
ATOM     31  C14 MSJ d   1      -4.823  30.418  26.401  0.00  0.00     0.079 A 
ATOM     32  C15 MSJ d   1      -5.757  29.560  27.001  0.00  0.00    -0.060 A 
ATOM     33  C16 MSJ d   1      -5.730  29.209  28.372  0.00  0.00    -0.082 A 
ATOM     34  H12 MSJ d   1      -6.542  29.143  26.381  0.00  0.00     0.085 H 
ATOM     35  C17 MSJ d   1      -4.774  29.785  29.187  0.00  0.00    -0.083 A 
ATOM     36  H13 MSJ d   1      -6.446  28.502  28.775  0.00  0.00     0.083 H 
ATOM     37  C18 MSJ d   1      -3.852  30.680  28.581  0.00  0.00    -0.082 A 
ATOM     38  H14 MSJ d   1      -4.729  29.563  30.247  0.00  0.00     0.083 H 
ATOM     39  C20 MSJ d   1      -3.853  30.991  27.215  0.00  0.00    -0.060 A 
ATOM     40  H16 MSJ d   1      -3.105  31.149  29.212  0.00  0.00     0.083 H 
ATOM     41  H17 MSJ d   1      -3.112  31.665  26.801  0.00  0.00     0.085 H 
ENDBRANCH  28  31
ENDBRANCH  26  28
ENDBRANCH   1  26
BRANCH   1  42
ATOM     42  C25 MSJ d   1      -5.301  33.973  24.560  0.00  0.00    -0.053 C 
ATOM     43  H18 MSJ d   1      -5.043  33.895  23.494  0.00  0.00     0.030 H 
ATOM     44  H19 MSJ d   1      -4.428  33.698  25.170  0.00  0.00     0.030 H 
ATOM     45  H20 MSJ d   1      -5.599  35.007  24.790  0.00  0.00     0.030 H 
ENDBRANCH   1  42
BRANCH   1  46
ATOM     46  C26 MSJ d   1      -7.703  33.540  24.086  0.00  0.00    -0.053 C 
ATOM     47  H21 MSJ d   1      -7.522  33.423  23.007  0.00  0.00     0.030 H 
ATOM     48  H22 MSJ d   1      -7.864  34.603  24.318  0.00  0.00     0.030 H 
ATOM     49  H23 MSJ d   1      -8.594  32.963  24.373  0.00  0.00     0.030 H 
ENDBRANCH   1  46
TORSDOF 11
