REMARK  8 active torsions:
REMARK  status: ('A' for Active; 'I' for Inactive)
REMARK    1  A    between atoms: CAA_1  and  CAM_2 
REMARK    2  A    between atoms: CAM_2  and  CAJ_4 
REMARK    3  A    between atoms: CAJ_4  and  CAH_5 
REMARK    4  A    between atoms: CAH_5  and  CAI_6 
REMARK    5  A    between atoms: CAI_6  and  CAK_7 
REMARK    6  A    between atoms: CAK_7  and  N1_8 
REMARK    7  A    between atoms: N7_12  and  CAB_13 
REMARK    8  A    between atoms: N3_17  and  CAC_18 
ROOT
ATOM      1  N1  PNX d   1      -5.318 -11.167   1.292  0.00  0.00    -0.264 N 
ATOM      2  C6  PNX d   1      -4.239 -12.033   1.325  0.00  0.00     0.282 A 
ATOM      3  O6  PNX d   1      -3.070 -11.669   1.439  0.00  0.00    -0.265 OA
ATOM      4  C5  PNX d   1      -4.503 -13.388   1.214  0.00  0.00     0.151 A 
ATOM      5  N7  PNX d   1      -3.700 -14.370   1.248  0.00  0.00    -0.338 N 
ATOM      6  C8  PNX d   1      -4.417 -15.530   1.083  0.00  0.00     0.068 A 
ATOM      7  N9  PNX d   1      -5.742 -15.237   0.974  0.00  0.00    -0.223 NA
ATOM      8  C4  PNX d   1      -5.772 -13.916   1.098  0.00  0.00     0.167 A 
ATOM      9  N3  PNX d   1      -6.823 -13.119   1.047  0.00  0.00    -0.286 N 
ATOM     10  C2  PNX d   1      -6.631 -11.759   1.205  0.00  0.00     0.333 A 
ATOM     11  O2  PNX d   1      -7.606 -11.053   1.108  0.00  0.00    -0.246 OA
ATOM     12  H15 PNX d   1      -3.990 -16.531   1.045  0.00  0.00     0.143 H 
ENDROOT
BRANCH   1  13
ATOM     13  CAK PNX d   1      -5.115  -9.649   1.382  0.00  0.00     0.007 C 
ATOM     14  H10 PNX d   1      -4.183  -9.376   0.865  0.00  0.00     0.065 H 
ATOM     15  H11 PNX d   1      -5.964  -9.140   0.902  0.00  0.00     0.065 H 
BRANCH  13  16
ATOM     16  CAI PNX d   1      -5.027  -9.213   2.843  0.00  0.00    -0.049 C 
ATOM     17  H8  PNX d   1      -5.639  -9.898   3.448  0.00  0.00     0.035 H 
ATOM     18  H9  PNX d   1      -3.977  -9.279   3.164  0.00  0.00     0.035 H 
BRANCH  16  19
ATOM     19  CAH PNX d   1      -5.525  -7.764   3.086  0.00  0.00    -0.057 C 
ATOM     20  H6  PNX d   1      -6.570  -7.650   2.761  0.00  0.00     0.033 H 
ATOM     21  H7  PNX d   1      -5.441  -7.495   4.149  0.00  0.00     0.033 H 
BRANCH  19  22
ATOM     22  CAJ PNX d   1      -4.619  -6.925   2.256  0.00  0.00    -0.010 C 
ATOM     23  H4  PNX d   1      -3.606  -7.338   2.368  0.00  0.00     0.044 H 
ATOM     24  H5  PNX d   1      -4.946  -7.035   1.212  0.00  0.00     0.044 H 
BRANCH  22  25
ATOM     25  CAM PNX d   1      -4.526  -5.442   2.537  0.00  0.00     0.123 C 
ATOM     26  OAD PNX d   1      -4.933  -4.934   3.568  0.00  0.00    -0.298 OA
BRANCH  25  27
ATOM     27  CAA PNX d   1      -3.874  -4.648   1.471  0.00  0.00    -0.021 C 
ATOM     28  H1  PNX d   1      -3.591  -5.312   0.641  0.00  0.00     0.037 H 
ATOM     29  H2  PNX d   1      -2.974  -4.161   1.875  0.00  0.00     0.037 H 
ATOM     30  H3  PNX d   1      -4.573  -3.881   1.105  0.00  0.00     0.037 H 
ENDBRANCH  25  27
ENDBRANCH  22  25
ENDBRANCH  19  22
ENDBRANCH  16  19
ENDBRANCH  13  16
ENDBRANCH   1  13
BRANCH   9  31
ATOM     31  CAC PNX d   1      -8.149 -13.781   0.909  0.00  0.00    -0.008 C 
ATOM     32  H16 PNX d   1      -8.007 -14.866   0.798  0.00  0.00     0.057 H 
ATOM     33  H17 PNX d   1      -8.666 -13.386   0.022  0.00  0.00     0.057 H 
ATOM     34  H18 PNX d   1      -8.754 -13.581   1.806  0.00  0.00     0.057 H 
ENDBRANCH   9  31
BRANCH   5  35
ATOM     35  CAB PNX d   1      -2.243 -14.134   1.403  0.00  0.00    -0.013 C 
ATOM     36  H12 PNX d   1      -1.714 -15.098   1.411  0.00  0.00     0.057 H 
ATOM     37  H13 PNX d   1      -2.056 -13.606   2.349  0.00  0.00     0.057 H 
ATOM     38  H14 PNX d   1      -1.879 -13.523   0.564  0.00  0.00     0.057 H 
ENDBRANCH   5  35
TORSDOF 8
