REMARK  15 active torsions:
REMARK  status: ('A' for Active; 'I' for Inactive)
REMARK    1  A    between atoms: C7_7  and  N4_33 
REMARK    2  A    between atoms: C9_9  and  C30_31 
REMARK    3  A    between atoms: C28_30  and  N1_10 
REMARK    4  A    between atoms: C19_21  and  N2_13 
REMARK    5  A    between atoms: C12_14  and  C29_32 
REMARK    6  A    between atoms: C14_16  and  N3_34 
REMARK    7  A    between atoms: C20_22  and  C19_21 
REMARK    8  A    between atoms: C21_23  and  C20_22 
REMARK    9  A    between atoms: C22_24  and  C21_23 
REMARK   10  A    between atoms: C23_25  and  C22_24 
REMARK   11  A    between atoms: C24_26  and  C23_25 
REMARK   12  A    between atoms: C25_27  and  C24_26 
REMARK   13  A    between atoms: C26_28  and  C25_27 
REMARK   14  A    between atoms: C27_29  and  C26_28 
REMARK   15  A    between atoms: C27_29  and  C28_30 
ROOT
ATOM      1  C24 DEQ d   1      -8.168  12.008  21.108  0.00  0.00    -0.065 C 
ATOM      2  H22 DEQ d   1      -8.655  12.606  20.324  0.00  0.00     0.033 H 
ATOM      3  H23 DEQ d   1      -8.743  12.090  22.042  0.00  0.00     0.033 H 
ENDROOT
BRANCH   1   4
ATOM      4  C23 DEQ d   1      -6.758  12.596  21.357  0.00  0.00    -0.065 C 
ATOM      5  H20 DEQ d   1      -6.008  11.854  21.047  0.00  0.00     0.033 H 
ATOM      6  H21 DEQ d   1      -6.645  13.507  20.751  0.00  0.00     0.033 H 
BRANCH   4   7
ATOM      7  C22 DEQ d   1      -6.512  12.956  22.840  0.00  0.00    -0.065 C 
ATOM      8  H18 DEQ d   1      -5.571  13.521  22.916  0.00  0.00     0.033 H 
ATOM      9  H19 DEQ d   1      -7.345  13.581  23.195  0.00  0.00     0.033 H 
BRANCH   7  10
ATOM     10  C21 DEQ d   1      -6.412  11.699  23.740  0.00  0.00    -0.064 C 
ATOM     11  H16 DEQ d   1      -6.972  11.896  24.666  0.00  0.00     0.033 H 
ATOM     12  H17 DEQ d   1      -6.874  10.857  23.204  0.00  0.00     0.033 H 
BRANCH  10  13
ATOM     13  C20 DEQ d   1      -4.974  11.293  24.125  0.00  0.00    -0.050 C 
ATOM     14  H14 DEQ d   1      -4.380  12.202  24.298  0.00  0.00     0.035 H 
ATOM     15  H15 DEQ d   1      -5.006  10.695  25.048  0.00  0.00     0.035 H 
BRANCH  13  16
ATOM     16  C19 DEQ d   1      -4.307  10.463  23.013  0.00  0.00     0.000 C 
ATOM     17  H12 DEQ d   1      -5.101   9.868  22.537  0.00  0.00     0.064 H 
ATOM     18  H13 DEQ d   1      -3.896  11.176  22.283  0.00  0.00     0.064 H 
BRANCH  16  19
ATOM     19  N2  DEQ d   1      -3.180   9.495  23.374  0.00  0.00    -0.350 N 
ATOM     20  C11 DEQ d   1      -3.090   8.641  24.571  0.00  0.00     0.047 A 
ATOM     21  C10 DEQ d   1      -1.967   7.773  24.727  0.00  0.00     0.019 A 
ATOM     22  C18 DEQ d   1      -4.066   8.639  25.595  0.00  0.00    -0.056 A 
ATOM     23  C14 DEQ d   1      -0.962   7.747  23.729  0.00  0.00     0.062 A 
ATOM     24  C15 DEQ d   1      -1.837   6.945  25.871  0.00  0.00    -0.069 A 
ATOM     25  C13 DEQ d   1      -1.054   8.563  22.602  0.00  0.00    -0.033 A 
ATOM     26  C12 DEQ d   1      -2.142   9.415  22.398  0.00  0.00     0.010 A 
ATOM     27  H7  DEQ d   1      -0.256   8.535  21.861  0.00  0.00     0.090 H 
ATOM     28  C16 DEQ d   1      -2.806   6.958  26.871  0.00  0.00    -0.082 A 
ATOM     29  H8  DEQ d   1      -0.975   6.295  25.968  0.00  0.00     0.085 H 
ATOM     30  C17 DEQ d   1      -3.921   7.810  26.723  0.00  0.00    -0.081 A 
ATOM     31  H9  DEQ d   1      -2.706   6.326  27.746  0.00  0.00     0.083 H 
ATOM     32  H10 DEQ d   1      -4.682   7.826  27.495  0.00  0.00     0.083 H 
ATOM     33  H11 DEQ d   1      -4.934   9.282  25.510  0.00  0.00     0.087 H 
BRANCH  23  34
ATOM     34  N3  DEQ d   1       0.126   6.947  23.825  0.00  0.00    -0.299 NA
ATOM     35  H40 DEQ d   1       0.236   6.340  24.622  0.00  0.00     0.187 HD
ENDBRANCH  23  34
BRANCH  26  36
ATOM     36  C29 DEQ d   1      -2.171  10.271  21.099  0.00  0.00    -0.037 C 
ATOM     37  H35 DEQ d   1      -1.278  10.051  20.495  0.00  0.00     0.035 H 
ATOM     38  H36 DEQ d   1      -2.180  11.339  21.363  0.00  0.00     0.035 H 
ATOM     39  H37 DEQ d   1      -3.074  10.029  20.520  0.00  0.00     0.035 H 
ENDBRANCH  26  36
ENDBRANCH  16  19
ENDBRANCH  13  16
ENDBRANCH  10  13
ENDBRANCH   7  10
ENDBRANCH   4   7
ENDBRANCH   1   4
BRANCH   1  40
ATOM     40  C25 DEQ d   1      -8.181  10.513  20.658  0.00  0.00    -0.065 C 
ATOM     41  H24 DEQ d   1      -8.956  10.391  19.887  0.00  0.00     0.033 H 
ATOM     42  H25 DEQ d   1      -8.432   9.892  21.531  0.00  0.00     0.033 H 
BRANCH  40  43
ATOM     43  C26 DEQ d   1      -6.834  10.014  20.077  0.00  0.00    -0.064 C 
ATOM     44  H26 DEQ d   1      -6.115  10.847  20.068  0.00  0.00     0.033 H 
ATOM     45  H27 DEQ d   1      -6.995   9.658  19.049  0.00  0.00     0.033 H 
BRANCH  43  46
ATOM     46  C27 DEQ d   1      -6.262   8.863  20.926  0.00  0.00    -0.050 C 
ATOM     47  H28 DEQ d   1      -7.042   8.103  21.082  0.00  0.00     0.035 H 
ATOM     48  H29 DEQ d   1      -5.933   9.256  21.899  0.00  0.00     0.035 H 
BRANCH  46  49
ATOM     49  C28 DEQ d   1      -5.057   8.220  20.199  0.00  0.00    -0.004 C 
ATOM     50  H30 DEQ d   1      -5.443   7.766  19.274  0.00  0.00     0.064 H 
ATOM     51  H31 DEQ d   1      -4.361   9.034  19.946  0.00  0.00     0.064 H 
BRANCH  49  52
ATOM     52  N1  DEQ d   1      -4.245   7.144  20.922  0.00  0.00    -0.372 N 
ATOM     53  C5  DEQ d   1      -2.928   6.822  20.368  0.00  0.00     0.043 A 
ATOM     54  C1  DEQ d   1      -2.412   7.487  19.227  0.00  0.00    -0.056 A 
ATOM     55  C6  DEQ d   1      -2.109   5.835  20.960  0.00  0.00     0.016 A 
ATOM     56  C2  DEQ d   1      -1.124   7.178  18.717  0.00  0.00    -0.081 A 
ATOM     57  H1  DEQ d   1      -3.012   8.245  18.736  0.00  0.00     0.086 H 
ATOM     58  C3  DEQ d   1      -0.321   6.200  19.319  0.00  0.00    -0.082 A 
ATOM     59  H2  DEQ d   1      -0.755   7.708  17.846  0.00  0.00     0.083 H 
ATOM     60  C4  DEQ d   1      -0.824   5.537  20.440  0.00  0.00    -0.069 A 
ATOM     61  H3  DEQ d   1       0.662   5.965  18.926  0.00  0.00     0.083 H 
ATOM     62  H4  DEQ d   1      -0.219   4.778  20.923  0.00  0.00     0.085 H 
ATOM     63  C7  DEQ d   1      -2.570   5.154  22.086  0.00  0.00     0.036 A 
ATOM     64  C8  DEQ d   1      -3.828   5.439  22.637  0.00  0.00    -0.056 A 
ATOM     65  C9  DEQ d   1      -4.694   6.406  22.095  0.00  0.00     0.027 A 
ATOM     66  H5  DEQ d   1      -4.147   4.889  23.521  0.00  0.00     0.083 H 
ATOM     67  H6  DEQ d   1      -5.154   5.657  21.434  0.00  0.00     0.078 H 
BRANCH  63  68
ATOM     68  N4  DEQ d   1      -1.796   4.221  22.650  0.00  0.00    -0.399 N 
ATOM     69  H38 DEQ d   1      -0.871   4.008  22.249  0.00  0.00     0.156 HD
ATOM     70  H39 DEQ d   1      -2.124   3.715  23.485  0.00  0.00     0.156 HD
ENDBRANCH  63  68
BRANCH  65  71
ATOM     71  C30 DEQ d   1      -6.071   6.603  22.814  0.00  0.00    -0.054 C 
ATOM     72  H32 DEQ d   1      -6.140   5.914  23.668  0.00  0.00     0.030 H 
ATOM     73  H33 DEQ d   1      -6.887   6.394  22.107  0.00  0.00     0.030 H 
ATOM     74  H34 DEQ d   1      -6.153   7.640  23.172  0.00  0.00     0.030 H 
ENDBRANCH  65  71
ENDBRANCH  49  52
ENDBRANCH  46  49
ENDBRANCH  43  46
ENDBRANCH  40  43
ENDBRANCH   1  40
TORSDOF 15
