REMARK  8 active torsions:
REMARK  status: ('A' for Active; 'I' for Inactive)
REMARK    1  A    between atoms: CAA_1  and  CAM_2 
REMARK    2  A    between atoms: CAM_2  and  CAJ_4 
REMARK    3  A    between atoms: CAJ_4  and  CAH_5 
REMARK    4  A    between atoms: CAH_5  and  CAI_6 
REMARK    5  A    between atoms: CAI_6  and  CAK_7 
REMARK    6  A    between atoms: CAK_7  and  N1_8 
REMARK    7  A    between atoms: N7_12  and  CAB_13 
REMARK    8  A    between atoms: N3_17  and  CAC_18 
ROOT
ATOM      1  N1  PNX d   1      -1.690   7.791  18.298  0.00  0.00    -0.264 N 
ATOM      2  C6  PNX d   1      -2.883   7.886  19.053  0.00  0.00     0.282 A 
ATOM      3  O6  PNX d   1      -3.763   8.667  18.689  0.00  0.00    -0.265 OA
ATOM      4  C5  PNX d   1      -3.017   7.079  20.212  0.00  0.00     0.151 A 
ATOM      5  N7  PNX d   1      -4.013   6.929  21.102  0.00  0.00    -0.338 N 
ATOM      6  C8  PNX d   1      -3.656   6.010  22.018  0.00  0.00     0.068 A 
ATOM      7  N9  PNX d   1      -2.416   5.550  21.721  0.00  0.00    -0.223 NA
ATOM      8  C4  PNX d   1      -1.996   6.184  20.611  0.00  0.00     0.167 A 
ATOM      9  N3  PNX d   1      -0.792   6.100  19.881  0.00  0.00    -0.286 N 
ATOM     10  C2  PNX d   1      -0.644   6.913  18.767  0.00  0.00     0.333 A 
ATOM     11  O2  PNX d   1       0.402   6.818  18.143  0.00  0.00    -0.246 OA
ATOM     12  H15 PNX d   1      -4.265   5.688  22.861  0.00  0.00     0.143 H 
ENDROOT
BRANCH   1  13
ATOM     13  CAK PNX d   1      -1.491   8.674  17.068  0.00  0.00     0.007 C 
ATOM     14  H10 PNX d   1      -0.845   8.157  16.343  0.00  0.00     0.065 H 
ATOM     15  H11 PNX d   1      -2.466   8.886  16.604  0.00  0.00     0.065 H 
BRANCH  13  16
ATOM     16  CAI PNX d   1      -0.811  10.026  17.515  0.00  0.00    -0.049 C 
ATOM     17  H8  PNX d   1      -1.306  10.371  18.435  0.00  0.00     0.035 H 
ATOM     18  H9  PNX d   1       0.250   9.824  17.723  0.00  0.00     0.035 H 
BRANCH  16  19
ATOM     19  CAH PNX d   1      -0.891  11.175  16.457  0.00  0.00    -0.057 C 
ATOM     20  H6  PNX d   1      -1.929  11.524  16.355  0.00  0.00     0.033 H 
ATOM     21  H7  PNX d   1      -0.250  12.015  16.762  0.00  0.00     0.033 H 
BRANCH  19  22
ATOM     22  CAJ PNX d   1      -0.397  10.589  15.123  0.00  0.00    -0.010 C 
ATOM     23  H4  PNX d   1       0.592  10.132  15.277  0.00  0.00     0.044 H 
ATOM     24  H5  PNX d   1      -1.107   9.820  14.785  0.00  0.00     0.044 H 
BRANCH  22  25
ATOM     25  CAM PNX d   1      -0.281  11.697  14.021  0.00  0.00     0.123 C 
ATOM     26  OAD PNX d   1      -0.463  12.880  14.294  0.00  0.00    -0.298 OA
BRANCH  25  27
ATOM     27  CAA PNX d   1       0.008  11.307  12.593  0.00  0.00    -0.021 C 
ATOM     28  H1  PNX d   1       0.143  10.217  12.531  0.00  0.00     0.037 H 
ATOM     29  H2  PNX d   1       0.925  11.810  12.254  0.00  0.00     0.037 H 
ATOM     30  H3  PNX d   1      -0.834  11.609  11.953  0.00  0.00     0.037 H 
ENDBRANCH  25  27
ENDBRANCH  22  25
ENDBRANCH  19  22
ENDBRANCH  16  19
ENDBRANCH  13  16
ENDBRANCH   1  13
BRANCH   9  31
ATOM     31  CAC PNX d   1       0.336   5.165  20.271  0.00  0.00    -0.008 C 
ATOM     32  H16 PNX d   1       0.050   4.600  21.171  0.00  0.00     0.057 H 
ATOM     33  H17 PNX d   1       1.243   5.752  20.479  0.00  0.00     0.057 H 
ATOM     34  H18 PNX d   1       0.534   4.465  19.446  0.00  0.00     0.057 H 
ENDBRANCH   9  31
BRANCH   5  35
ATOM     35  CAB PNX d   1      -5.304   7.676  21.050  0.00  0.00    -0.013 C 
ATOM     36  H12 PNX d   1      -5.941   7.367  21.892  0.00  0.00     0.057 H 
ATOM     37  H13 PNX d   1      -5.817   7.456  20.102  0.00  0.00     0.057 H 
ATOM     38  H14 PNX d   1      -5.106   8.756  21.117  0.00  0.00     0.057 H 
ENDBRANCH   5  35
TORSDOF 8
