REMARK  1 active torsions:
REMARK  status: ('A' for Active; 'I' for Inactive)
REMARK    1  A    between atoms: N_1  and  C25_25 
ROOT
ATOM      1  N   SAU d   1      18.320  -8.904  23.778  0.00  0.00    -0.379 N 
ATOM      2  C1  SAU d   1      23.295 -11.575  21.007  0.00  0.00     0.115 C 
ATOM      3  O1  SAU d   1      22.698 -10.680  22.077  0.00  0.00    -0.323 OA
ATOM      4  C2  SAU d   1      21.190 -10.990  20.393  0.00  0.00     0.105 A 
ATOM      5  O2  SAU d   1      22.377 -11.487  19.846  0.00  0.00    -0.323 OA
ATOM      6  C3  SAU d   1      21.381 -10.520  21.707  0.00  0.00     0.105 A 
ATOM      7  O3  SAU d   1      12.856  -7.287  25.230  0.00  0.00    -0.323 OA
ATOM      8  C4  SAU d   1      19.936 -10.921  19.795  0.00  0.00    -0.037 A 
ATOM      9  O4  SAU d   1      14.952  -7.406  26.028  0.00  0.00    -0.322 OA
ATOM     10  C5  SAU d   1      18.859 -10.398  20.513  0.00  0.00    -0.021 A 
ATOM     11  C6  SAU d   1      19.068  -9.936  21.786  0.00  0.00     0.004 A 
ATOM     12  C7  SAU d   1      20.333  -9.985  22.384  0.00  0.00    -0.035 A 
ATOM     13  C8  SAU d   1      17.568 -10.326  19.963  0.00  0.00    -0.071 A 
ATOM     14  C9  SAU d   1      16.463  -9.833  20.685  0.00  0.00    -0.069 A 
ATOM     15  C10 SAU d   1      18.021  -9.388  22.476  0.00  0.00     0.052 A 
ATOM     16  C12 SAU d   1      17.239  -8.446  24.527  0.00  0.00     0.022 A 
ATOM     17  C13 SAU d   1      15.969  -8.405  23.966  0.00  0.00     0.007 A 
ATOM     18  C14 SAU d   1      15.705  -8.831  22.670  0.00  0.00    -0.013 A 
ATOM     19  C15 SAU d   1      16.733  -9.342  21.951  0.00  0.00     0.002 A 
ATOM     20  C18 SAU d   1      14.424  -8.847  22.150  0.00  0.00    -0.069 A 
ATOM     21  C19 SAU d   1      13.376  -8.297  22.922  0.00  0.00    -0.047 A 
ATOM     22  C20 SAU d   1      13.639  -7.839  24.230  0.00  0.00     0.105 A 
ATOM     23  C21 SAU d   1      14.929  -7.900  24.741  0.00  0.00     0.113 A 
ATOM     24  C23 SAU d   1      13.555  -7.470  26.451  0.00  0.00     0.115 C 
ATOM     25  H1  SAU d   1      23.358 -12.612  21.367  0.00  0.00     0.118 H 
ATOM     26  H2  SAU d   1      24.299 -11.222  20.729  0.00  0.00     0.118 H 
ATOM     27  H3  SAU d   1      19.796 -11.271  18.779  0.00  0.00     0.089 H 
ATOM     28  H4  SAU d   1      20.475  -9.596  23.386  0.00  0.00     0.089 H 
ATOM     29  H5  SAU d   1      17.416 -10.663  18.944  0.00  0.00     0.084 H 
ATOM     30  H6  SAU d   1      15.460  -9.838  20.273  0.00  0.00     0.085 H 
ATOM     31  H7  SAU d   1      17.481  -7.419  24.838  0.00  0.00     0.071 H 
ATOM     32  H8  SAU d   1      17.172  -9.092  25.415  0.00  0.00     0.071 H 
ATOM     33  H9  SAU d   1      14.228  -9.272  21.172  0.00  0.00     0.085 H 
ATOM     34  H10 SAU d   1      12.375  -8.227  22.511  0.00  0.00     0.087 H 
ATOM     35  H11 SAU d   1      13.320  -8.446  26.901  0.00  0.00     0.118 H 
ATOM     36  H12 SAU d   1      13.320  -6.669  27.168  0.00  0.00     0.118 H 
ENDROOT
BRANCH   1  37
ATOM     37  C25 SAU d   1      19.693  -9.040  24.350  0.00  0.00    -0.018 C 
ATOM     38  H13 SAU d   1      20.377  -9.418  23.576  0.00  0.00     0.056 H 
ATOM     39  H14 SAU d   1      19.670  -9.745  25.195  0.00  0.00     0.056 H 
ATOM     40  H15 SAU d   1      20.043  -8.058  24.701  0.00  0.00     0.056 H 
ENDBRANCH   1  37
TORSDOF 1
