REMARK  2 active torsions:
REMARK  status: ('A' for Active; 'I' for Inactive)
REMARK    1  A    between atoms: C1_1  and  N15_15 
REMARK    2  A    between atoms: C8_8  and  C10_10 
ROOT
ATOM      1  N15 I5I d   1      13.397  -7.203  24.913  0.00  0.00    -0.234 NA
ATOM      2  C16 I5I d   1      13.741  -7.437  26.013  0.00  0.00     0.163 C 
ATOM      3  S17 I5I d   1      14.180  -7.719  27.510  0.00  0.00    -0.055 SA
ENDROOT
BRANCH   1   4
ATOM      4  C1  I5I d   1      14.061  -7.849  23.978  0.00  0.00     0.059 A 
ATOM      5  C2  I5I d   1      15.441  -7.902  24.052  0.00  0.00    -0.043 A 
ATOM      6  C3  I5I d   1      16.102  -8.600  23.067  0.00  0.00     0.003 A 
ATOM      7  H1  I5I d   1      15.981  -7.413  24.855  0.00  0.00     0.088 H 
ATOM      8  C4  I5I d   1      15.432  -9.249  22.012  0.00  0.00     0.086 A 
ATOM      9  C7  I5I d   1      17.395  -8.796  22.892  0.00  0.00    -0.034 A 
ATOM     10  C5  I5I d   1      14.068  -9.203  21.974  0.00  0.00    -0.047 A 
ATOM     11  O9  I5I d   1      16.369  -9.810  21.184  0.00  0.00    -0.306 OA
ATOM     12  C6  I5I d   1      13.364  -8.479  22.942  0.00  0.00    -0.052 A 
ATOM     13  H2  I5I d   1      13.530  -9.728  21.193  0.00  0.00     0.087 H 
ATOM     14  H3  I5I d   1      12.284  -8.407  22.889  0.00  0.00     0.087 H 
ATOM     15  C8  I5I d   1      17.534  -9.503  21.778  0.00  0.00     0.122 A 
ATOM     16  H4  I5I d   1      18.197  -8.444  23.540  0.00  0.00     0.089 H 
BRANCH  15  17
ATOM     17  C10 I5I d   1      18.691  -9.994  21.287  0.00  0.00     0.153 A 
ATOM     18  N11 I5I d   1      18.763 -10.662  20.133  0.00  0.00    -0.269 NA
ATOM     19  C12 I5I d   1      20.174 -11.190  20.032  0.00  0.00     0.032 A 
ATOM     20  C13 I5I d   1      20.910 -10.777  21.329  0.00  0.00     0.011 A 
ATOM     21  H5  I5I d   1      20.678 -10.754  19.157  0.00  0.00     0.069 H 
ATOM     22  H6  I5I d   1      20.161 -12.286  19.939  0.00  0.00     0.069 H 
ATOM     23  N14 I5I d   1      19.848 -10.036  22.056  0.00  0.00    -0.371 N 
ATOM     24  H7  I5I d   1      21.773 -10.130  21.112  0.00  0.00     0.066 H 
ATOM     25  H8  I5I d   1      21.245 -11.657  21.897  0.00  0.00     0.066 H 
ATOM     26  H9  I5I d   1      19.953  -9.616  22.991  0.00  0.00     0.161 HD
ENDBRANCH  15  17
ENDBRANCH   1   4
TORSDOF 2
