REMARK  3 active torsions:
REMARK  status: ('A' for Active; 'I' for Inactive)
REMARK    1  A    between atoms: C1_1  and  N15_15 
REMARK    2  A    between atoms: C8_8  and  C10_10 
REMARK    3  A    between atoms: N15_15  and  C16_16 
ROOT
ATOM      1  C1  I5I d   1      -1.057 -15.287   1.601  0.00  0.00     0.033 A 
ATOM      2  C2  I5I d   1      -2.360 -15.766   1.345  0.00  0.00    -0.044 A 
ATOM      3  C3  I5I d   1      -3.447 -14.865   1.295  0.00  0.00     0.003 A 
ATOM      4  C4  I5I d   1      -3.216 -13.499   1.496  0.00  0.00     0.086 A 
ATOM      5  C5  I5I d   1      -1.943 -13.027   1.755  0.00  0.00    -0.047 A 
ATOM      6  C6  I5I d   1      -0.883 -13.917   1.809  0.00  0.00    -0.054 A 
ATOM      7  C7  I5I d   1      -4.779 -15.014   1.090  0.00  0.00    -0.034 A 
ATOM      8  C8  I5I d   1      -5.397 -13.807   1.153  0.00  0.00     0.122 A 
ATOM      9  O9  I5I d   1      -4.422 -12.853   1.409  0.00  0.00    -0.306 OA
ATOM     10  H1  I5I d   1      -2.526 -16.825   1.187  0.00  0.00     0.088 H 
ATOM     11  H2  I5I d   1      -1.775 -11.968   1.915  0.00  0.00     0.087 H 
ATOM     12  H3  I5I d   1       0.111 -13.539   2.019  0.00  0.00     0.087 H 
ATOM     13  H4  I5I d   1      -5.280 -15.963   0.902  0.00  0.00     0.089 H 
ENDROOT
BRANCH   8  14
ATOM     14  C10 I5I d   1      -6.775 -13.452   1.042  0.00  0.00     0.153 A 
ATOM     15  N11 I5I d   1      -7.243 -12.187   1.075  0.00  0.00    -0.269 NA
ATOM     16  C12 I5I d   1      -8.727 -12.126   1.017  0.00  0.00     0.032 A 
ATOM     17  C13 I5I d   1      -9.127 -13.604   1.038  0.00  0.00     0.011 A 
ATOM     18  H5  I5I d   1      -9.068 -11.636   0.093  0.00  0.00     0.069 H 
ATOM     19  H6  I5I d   1      -9.136 -11.592   1.887  0.00  0.00     0.069 H 
ATOM     20  N14 I5I d   1      -7.821 -14.308   1.104  0.00  0.00    -0.371 N 
ATOM     21  H7  I5I d   1      -9.677 -13.877   0.125  0.00  0.00     0.066 H 
ATOM     22  H8  I5I d   1      -9.744 -13.833   1.919  0.00  0.00     0.066 H 
ATOM     23  H9  I5I d   1      -7.723 -15.330   1.187  0.00  0.00     0.161 HD
ENDBRANCH   8  14
BRANCH   1  24
ATOM     24  N15 I5I d   1       0.031 -16.105   1.669  0.00  0.00    -0.357 N 
ATOM     25  H10 I5I d   1       0.168 -16.820   0.983  0.00  0.00     0.166 HD
BRANCH  24  26
ATOM     26  C16 I5I d   1       0.918 -15.943   2.664  0.00  0.00     0.041 C 
ATOM     27  S17 I5I d   1       2.317 -16.889   2.982  0.00  0.00    -0.074 SA
ATOM     28  H11 I5I d   1       0.729 -15.117   3.348  0.00  0.00     0.130 H 
ENDBRANCH  24  26
ENDBRANCH   1  24
TORSDOF 3
