REMARK  1 active torsions:
REMARK  status: ('A' for Active; 'I' for Inactive)
REMARK    1  A    between atoms: N_1  and  C25_25 
ROOT
ATOM      1  N   SAU d   1      -4.520   7.981  20.477  0.00  0.00    -0.379 N 
ATOM      2  C1  SAU d   1       1.541   6.038  19.080  0.00  0.00     0.115 C 
ATOM      3  O1  SAU d   1       0.252   6.567  18.616  0.00  0.00    -0.323 OA
ATOM      4  C2  SAU d   1      -0.050   5.323  20.465  0.00  0.00     0.105 A 
ATOM      5  O2  SAU d   1       1.193   4.951  19.998  0.00  0.00    -0.323 OA
ATOM      6  C3  SAU d   1      -0.605   6.302  19.629  0.00  0.00     0.105 A 
ATOM      7  O3  SAU d   1      -9.626   8.720  23.590  0.00  0.00    -0.323 OA
ATOM      8  C4  SAU d   1      -0.788   4.898  21.585  0.00  0.00    -0.037 A 
ATOM      9  O4  SAU d   1      -8.568   9.498  21.737  0.00  0.00    -0.322 OA
ATOM     10  C5  SAU d   1      -2.055   5.433  21.868  0.00  0.00    -0.021 A 
ATOM     11  C6  SAU d   1      -2.614   6.414  21.027  0.00  0.00     0.004 A 
ATOM     12  C7  SAU d   1      -1.862   6.831  19.914  0.00  0.00    -0.035 A 
ATOM     13  C8  SAU d   1      -2.736   4.981  22.988  0.00  0.00    -0.071 A 
ATOM     14  C9  SAU d   1      -3.993   5.520  23.277  0.00  0.00    -0.069 A 
ATOM     15  C10 SAU d   1      -3.893   6.968  21.308  0.00  0.00     0.052 A 
ATOM     16  C12 SAU d   1      -5.808   8.491  20.839  0.00  0.00     0.022 A 
ATOM     17  C13 SAU d   1      -6.475   8.021  21.990  0.00  0.00     0.007 A 
ATOM     18  C14 SAU d   1      -5.870   7.027  22.806  0.00  0.00    -0.013 A 
ATOM     19  C15 SAU d   1      -4.589   6.507  22.459  0.00  0.00     0.002 A 
ATOM     20  C18 SAU d   1      -6.549   6.562  23.955  0.00  0.00    -0.069 A 
ATOM     21  C19 SAU d   1      -7.809   7.064  24.298  0.00  0.00    -0.047 A 
ATOM     22  C20 SAU d   1      -8.416   8.046  23.489  0.00  0.00     0.105 A 
ATOM     23  C21 SAU d   1      -7.754   8.533  22.331  0.00  0.00     0.113 A 
ATOM     24  C23 SAU d   1      -9.416   9.976  22.839  0.00  0.00     0.115 C 
ATOM     25  H1  SAU d   1       2.114   6.818  19.603  0.00  0.00     0.118 H 
ATOM     26  H2  SAU d   1       2.130   5.656  18.233  0.00  0.00     0.118 H 
ATOM     27  H3  SAU d   1      -0.371   4.143  22.242  0.00  0.00     0.089 H 
ATOM     28  H4  SAU d   1      -2.274   7.588  19.257  0.00  0.00     0.089 H 
ATOM     29  H5  SAU d   1      -2.301   4.223  23.629  0.00  0.00     0.084 H 
ATOM     30  H6  SAU d   1      -4.526   5.171  24.154  0.00  0.00     0.085 H 
ATOM     31  H7  SAU d   1      -6.475   8.292  19.987  0.00  0.00     0.071 H 
ATOM     32  H8  SAU d   1      -5.691   9.577  20.966  0.00  0.00     0.071 H 
ATOM     33  H9  SAU d   1      -6.087   5.806  24.579  0.00  0.00     0.085 H 
ATOM     34  H10 SAU d   1      -8.317   6.699  25.183  0.00  0.00     0.087 H 
ATOM     35  H11 SAU d   1      -8.899  10.731  23.449  0.00  0.00     0.118 H 
ATOM     36  H12 SAU d   1     -10.365  10.390  22.469  0.00  0.00     0.118 H 
ENDROOT
BRANCH   1  37
ATOM     37  C25 SAU d   1      -3.874   8.545  19.243  0.00  0.00    -0.018 C 
ATOM     38  H13 SAU d   1      -2.897   8.064  19.088  0.00  0.00     0.056 H 
ATOM     39  H14 SAU d   1      -3.734   9.629  19.365  0.00  0.00     0.056 H 
ATOM     40  H15 SAU d   1      -4.518   8.354  18.372  0.00  0.00     0.056 H 
ENDBRANCH   1  37
TORSDOF 1
