REMARK  5 active torsions:
REMARK  status: ('A' for Active; 'I' for Inactive)
REMARK    1  A    between atoms: N9_9  and  C13_13 
REMARK    2  A    between atoms: C14_14  and  O20_20 
REMARK    3  A    between atoms: C17_17  and  O18_18 
REMARK    4  A    between atoms: O18_18  and  C19_19 
REMARK    5  A    between atoms: O20_20  and  C21_21 
ROOT
ATOM      1  C1  CTI d   1      -1.784   6.750  20.153  0.00  0.00    -0.035 A 
ATOM      2  C2  CTI d   1      -2.615   6.367  21.218  0.00  0.00     0.004 A 
ATOM      3  C3  CTI d   1      -2.148   5.411  22.155  0.00  0.00    -0.021 A 
ATOM      4  C4  CTI d   1      -0.871   4.859  22.006  0.00  0.00    -0.037 A 
ATOM      5  C5  CTI d   1      -3.902   6.933  21.349  0.00  0.00     0.052 A 
ATOM      6  C6  CTI d   1      -4.713   6.518  22.444  0.00  0.00     0.002 A 
ATOM      7  C7  CTI d   1      -4.219   5.564  23.367  0.00  0.00    -0.069 A 
ATOM      8  C8  CTI d   1      -2.941   5.010  23.225  0.00  0.00    -0.071 A 
ATOM      9  N9  CTI d   1      -4.410   7.907  20.414  0.00  0.00    -0.379 N 
ATOM     10  C10 CTI d   1      -6.014   7.057  22.614  0.00  0.00    -0.013 A 
ATOM     11  C11 CTI d   1      -6.499   8.008  21.689  0.00  0.00     0.007 A 
ATOM     12  C12 CTI d   1      -5.701   8.423  20.610  0.00  0.00     0.022 A 
ATOM     13  C14 CTI d   1      -8.600   8.162  22.927  0.00  0.00     0.102 A 
ATOM     14  C15 CTI d   1      -8.115   7.207  23.844  0.00  0.00    -0.047 A 
ATOM     15  C16 CTI d   1      -6.833   6.663  23.692  0.00  0.00    -0.069 A 
ATOM     16  C17 CTI d   1      -7.790   8.552  21.834  0.00  0.00     0.110 A 
ATOM     17  C22 CTI d   1      -0.516   6.202  20.010  0.00  0.00     0.105 A 
ATOM     18  C23 CTI d   1      -0.050   5.259  20.937  0.00  0.00     0.105 A 
ATOM     19  O24 CTI d   1       0.443   6.419  19.075  0.00  0.00    -0.323 OA
ATOM     20  C25 CTI d   1       1.663   5.900  19.651  0.00  0.00     0.115 C 
ATOM     21  O26 CTI d   1       1.221   4.884  20.576  0.00  0.00    -0.323 OA
ATOM     22  H1  CTI d   1      -2.136   7.481  19.435  0.00  0.00     0.089 H 
ATOM     23  H2  CTI d   1      -0.514   4.122  22.716  0.00  0.00     0.089 H 
ATOM     24  H3  CTI d   1      -4.842   5.257  24.199  0.00  0.00     0.085 H 
ATOM     25  H4  CTI d   1      -2.575   4.280  23.938  0.00  0.00     0.084 H 
ATOM     26  H5  CTI d   1      -6.269   8.193  19.697  0.00  0.00     0.071 H 
ATOM     27  H6  CTI d   1      -5.589   9.513  20.708  0.00  0.00     0.071 H 
ATOM     28  H10 CTI d   1      -8.739   6.891  24.673  0.00  0.00     0.087 H 
ATOM     29  H11 CTI d   1      -6.468   5.935  24.407  0.00  0.00     0.085 H 
ATOM     30  H18 CTI d   1       2.213   6.694  20.178  0.00  0.00     0.118 H 
ATOM     31  H19 CTI d   1       2.306   5.464  18.872  0.00  0.00     0.118 H 
ENDROOT
BRANCH  13  32
ATOM     32  O20 CTI d   1      -9.869   8.691  23.088  0.00  0.00    -0.353 OA
BRANCH  32  33
ATOM     33  C21 CTI d   1      -9.994   9.981  23.787  0.00  0.00     0.010 C 
ATOM     34  H15 CTI d   1     -11.054  10.270  23.837  0.00  0.00     0.066 H 
ATOM     35  H16 CTI d   1      -9.430  10.751  23.240  0.00  0.00     0.066 H 
ATOM     36  H17 CTI d   1      -9.591   9.886  24.806  0.00  0.00     0.066 H 
ENDBRANCH  32  33
ENDBRANCH  13  32
BRANCH  16  37
ATOM     37  O18 CTI d   1      -8.240   9.465  20.906  0.00  0.00    -0.352 OA
BRANCH  37  38
ATOM     38  C19 CTI d   1      -8.741   8.769  19.714  0.00  0.00     0.011 C 
ATOM     39  H12 CTI d   1      -9.097   9.508  18.981  0.00  0.00     0.067 H 
ATOM     40  H13 CTI d   1      -9.571   8.105  19.999  0.00  0.00     0.067 H 
ATOM     41  H14 CTI d   1      -7.930   8.173  19.270  0.00  0.00     0.067 H 
ENDBRANCH  37  38
ENDBRANCH  16  37
BRANCH   9  42
ATOM     42  C13 CTI d   1      -3.664   8.420  19.226  0.00  0.00    -0.018 C 
ATOM     43  H7  CTI d   1      -2.673   7.944  19.182  0.00  0.00     0.056 H 
ATOM     44  H8  CTI d   1      -3.543   9.510  19.311  0.00  0.00     0.056 H 
ATOM     45  H9  CTI d   1      -4.226   8.184  18.310  0.00  0.00     0.056 H 
ENDBRANCH   9  42
TORSDOF 5
