REMARK  10 active torsions:
REMARK  status: ('A' for Active; 'I' for Inactive)
REMARK    1  A    between atoms: N1_1  and  C10_10 
REMARK    2  A    between atoms: N5_5  and  C19_19 
REMARK    3  A    between atoms: N7_7  and  C20_20 
REMARK    4  A    between atoms: C10_10  and  C11_11 
REMARK    5  A    between atoms: C11_11  and  C12_12 
REMARK    6  A    between atoms: C12_12  and  C13_13 
REMARK    7  A    between atoms: C13_13  and  C14_14 
REMARK    8  A    between atoms: C14_14  and  C15_15 
REMARK    9  A    between atoms: C20_20  and  C21_21 
REMARK   10  A    between atoms: C21_21  and  C22_22 
ROOT
ATOM      1  N1  POY d   1      -1.639   7.616  18.580  0.00  0.00    -0.264 N 
ATOM      2  C2  POY d   1      -0.591   6.743  18.988  0.00  0.00     0.282 A 
ATOM      3  C3  POY d   1      -0.685   6.048  20.199  0.00  0.00     0.151 A 
ATOM      4  C4  POY d   1      -1.825   6.213  21.033  0.00  0.00     0.167 A 
ATOM      5  N5  POY d   1      -2.913   7.096  20.671  0.00  0.00    -0.286 N 
ATOM      6  C6  POY d   1      -2.808   7.802  19.408  0.00  0.00     0.333 A 
ATOM      7  N7  POY d   1       0.142   5.187  20.812  0.00  0.00    -0.334 N 
ATOM      8  C8  POY d   1      -0.430   4.814  21.966  0.00  0.00     0.069 A 
ATOM      9  N9  POY d   1      -1.617   5.431  22.099  0.00  0.00    -0.223 NA
ATOM     10  O17 POY d   1       0.408   6.584  18.287  0.00  0.00    -0.265 OA
ATOM     11  O18 POY d   1      -3.694   8.568  19.012  0.00  0.00    -0.246 OA
ATOM     12  H1  POY d   1       0.001   4.118  22.685  0.00  0.00     0.143 H 
ENDROOT
BRANCH   1  13
ATOM     13  C10 POY d   1      -1.514   8.321  17.281  0.00  0.00     0.007 C 
ATOM     14  H2  POY d   1      -2.508   8.413  16.820  0.00  0.00     0.065 H 
ATOM     15  H3  POY d   1      -0.853   7.745  16.616  0.00  0.00     0.065 H 
BRANCH  13  16
ATOM     16  C11 POY d   1      -0.928   9.708  17.494  0.00  0.00    -0.049 C 
ATOM     17  H4  POY d   1       0.170   9.644  17.521  0.00  0.00     0.035 H 
ATOM     18  H5  POY d   1      -1.295  10.121  18.445  0.00  0.00     0.035 H 
BRANCH  16  19
ATOM     19  C12 POY d   1      -1.359  10.615  16.342  0.00  0.00    -0.057 C 
ATOM     20  H6  POY d   1      -1.715  11.576  16.741  0.00  0.00     0.033 H 
ATOM     21  H7  POY d   1      -2.167  10.132  15.773  0.00  0.00     0.033 H 
BRANCH  19  22
ATOM     22  C13 POY d   1      -0.172  10.848  15.440  0.00  0.00    -0.010 C 
ATOM     23  H8  POY d   1       0.172   9.886  15.032  0.00  0.00     0.044 H 
ATOM     24  H9  POY d   1       0.641  11.313  16.017  0.00  0.00     0.044 H 
BRANCH  22  25
ATOM     25  C14 POY d   1      -0.569  11.758  14.311  0.00  0.00     0.123 C 
ATOM     26  O16 POY d   1      -0.720  12.935  14.529  0.00  0.00    -0.298 OA
BRANCH  25  27
ATOM     27  C15 POY d   1      -0.609  11.225  12.874  0.00  0.00    -0.021 C 
ATOM     28  H10 POY d   1      -0.919  12.031  12.193  0.00  0.00     0.037 H 
ATOM     29  H11 POY d   1      -1.327  10.395  12.811  0.00  0.00     0.037 H 
ATOM     30  H12 POY d   1       0.391  10.867  12.588  0.00  0.00     0.037 H 
ENDBRANCH  25  27
ENDBRANCH  22  25
ENDBRANCH  19  22
ENDBRANCH  16  19
ENDBRANCH  13  16
ENDBRANCH   1  13
BRANCH   5  31
ATOM     31  C19 POY d   1      -4.103   7.253  21.572  0.00  0.00    -0.008 C 
ATOM     32  H13 POY d   1      -3.969   6.629  22.468  0.00  0.00     0.057 H 
ATOM     33  H14 POY d   1      -5.011   6.938  21.038  0.00  0.00     0.057 H 
ATOM     34  H15 POY d   1      -4.200   8.307  21.871  0.00  0.00     0.057 H 
ENDBRANCH   5  31
BRANCH   7  35
ATOM     35  C20 POY d   1       1.481   4.691  20.337  0.00  0.00     0.001 C 
ATOM     36  H16 POY d   1       1.459   4.617  19.240  0.00  0.00     0.065 H 
ATOM     37  H17 POY d   1       1.659   3.695  20.768  0.00  0.00     0.065 H 
BRANCH  35  38
ATOM     38  C21 POY d   1       2.662   5.631  20.750  0.00  0.00    -0.053 C 
ATOM     39  H18 POY d   1       2.227   6.601  21.030  0.00  0.00     0.034 H 
ATOM     40  H19 POY d   1       3.304   5.759  19.866  0.00  0.00     0.034 H 
BRANCH  38  41
ATOM     41  C22 POY d   1       3.576   5.173  21.928  0.00  0.00    -0.075 C 
ATOM     42  H20 POY d   1       4.356   5.929  22.102  0.00  0.00     0.027 H 
ATOM     43  H21 POY d   1       4.047   4.212  21.674  0.00  0.00     0.027 H 
ATOM     44  H22 POY d   1       2.970   5.055  22.838  0.00  0.00     0.027 H 
ENDBRANCH  38  41
ENDBRANCH  35  38
ENDBRANCH   7  35
TORSDOF 10
