REMARK  2 active torsions:
REMARK  status: ('A' for Active; 'I' for Inactive)
REMARK    1  A    between atoms: C1_1  and  N15_15 
REMARK    2  A    between atoms: C8_8  and  C10_10 
ROOT
ATOM      1  C1  I5I d   1      -0.180   5.135  20.227  0.00  0.00     0.033 A 
ATOM      2  C2  I5I d   1      -1.389   5.116  20.971  0.00  0.00    -0.044 A 
ATOM      3  C3  I5I d   1      -2.446   6.017  20.685  0.00  0.00     0.003 A 
ATOM      4  C4  I5I d   1      -2.274   6.938  19.644  0.00  0.00     0.086 A 
ATOM      5  C5  I5I d   1      -1.074   6.966  18.905  0.00  0.00    -0.047 A 
ATOM      6  C6  I5I d   1      -0.039   6.075  19.197  0.00  0.00    -0.054 A 
ATOM      7  C7  I5I d   1      -3.680   6.223  21.206  0.00  0.00    -0.034 A 
ATOM      8  C8  I5I d   1      -4.301   7.236  20.554  0.00  0.00     0.122 A 
ATOM      9  O9  I5I d   1      -3.436   7.683  19.577  0.00  0.00    -0.306 OA
ATOM     10  H1  I5I d   1      -1.507   4.398  21.774  0.00  0.00     0.088 H 
ATOM     11  H2  I5I d   1      -0.954   7.685  18.103  0.00  0.00     0.087 H 
ATOM     12  H3  I5I d   1       0.880   6.111  18.623  0.00  0.00     0.087 H 
ATOM     13  H4  I5I d   1      -4.111   5.656  22.030  0.00  0.00     0.089 H 
ENDROOT
BRANCH   8  14
ATOM     14  C10 I5I d   1      -5.607   7.793  20.700  0.00  0.00     0.153 A 
ATOM     15  N11 I5I d   1      -6.244   8.502  19.733  0.00  0.00    -0.371 N 
ATOM     16  C12 I5I d   1      -7.622   8.893  20.103  0.00  0.00     0.011 A 
ATOM     17  H5  I5I d   1      -5.810   8.744  18.831  0.00  0.00     0.161 HD
ATOM     18  C13 I5I d   1      -7.765   8.278  21.491  0.00  0.00     0.032 A 
ATOM     19  H6  I5I d   1      -8.358   8.473  19.402  0.00  0.00     0.066 H 
ATOM     20  H7  I5I d   1      -7.731   9.987  20.138  0.00  0.00     0.066 H 
ATOM     21  N14 I5I d   1      -6.459   7.602  21.728  0.00  0.00    -0.269 NA
ATOM     22  H8  I5I d   1      -8.590   7.551  21.512  0.00  0.00     0.069 H 
ATOM     23  H9  I5I d   1      -7.944   9.057  22.247  0.00  0.00     0.069 H 
ENDBRANCH   8  14
BRANCH   1  24
ATOM     24  N15 I5I d   1       0.870   4.296  20.464  0.00  0.00    -0.357 N 
ATOM     25  C16 I5I d   1       0.781   2.986  20.749  0.00  0.00     0.041 C 
ATOM     26  S17 I5I d   1       2.162   1.943  21.000  0.00  0.00    -0.074 SA
ATOM     27  H11 I5I d   1      -0.212   2.547  20.829  0.00  0.00     0.130 H 
ATOM     28  H10 I5I d   1       1.788   4.691  20.422  0.00  0.00     0.166 HD
ENDBRANCH   1  24
TORSDOF 2
