REMARK WARNING: 32 MAX_TORS EXCEEDED!!!
REMARK  54 active torsions:
REMARK  status: ('A' for Active; 'I' for Inactive)
REMARK    1  A    between atoms: N_1  and  CA_2 
REMARK    2  A    between atoms: CA_2  and  C_3 
REMARK    3  A    between atoms: CA_2  and  CB_5 
REMARK       I    between atoms: C_3  and  N_6 
REMARK    4  A    between atoms: N_6  and  CA_7 
REMARK    5  A    between atoms: CA_7  and  C_8 
REMARK    6  A    between atoms: CA_7  and  CB_10 
REMARK       I    between atoms: C_8  and  N_17 
REMARK    7  A    between atoms: CB_10  and  CG_11 
REMARK    8  A    between atoms: CG_11  and  CD_12 
REMARK    9  A    between atoms: CD_12  and  NE_13 
REMARK       I    between atoms: NE_13  and  CZ_14 
REMARK       I    between atoms: CZ_14  and  NH1_15 
REMARK       I    between atoms: CZ_14  and  NH2_16 
REMARK   10  A    between atoms: N_17  and  CA_18 
REMARK   11  A    between atoms: CA_18  and  C_19 
REMARK   12  A    between atoms: CA_18  and  CB_21 
REMARK       I    between atoms: C_19  and  N_24 
REMARK   13  A    between atoms: CB_21  and  OG1_22 
REMARK   14  A    between atoms: CB_21  and  CG2_23 
REMARK   15  A    between atoms: N_24  and  CA_25 
REMARK   16  A    between atoms: CA_25  and  C_26 
REMARK   17  A    between atoms: CA_25  and  CB_28 
REMARK       I    between atoms: C_26  and  N_33 
REMARK   18  A    between atoms: CB_28  and  CG_29 
REMARK   19  A    between atoms: CG_29  and  CD_30 
REMARK   20  A    between atoms: CD_30  and  CE_31 
REMARK   21  A    between atoms: CE_31  and  NZ_32 
REMARK   22  A    between atoms: N_33  and  CA_34 
REMARK   23  A    between atoms: CA_34  and  C_35 
REMARK   24  A    between atoms: CA_34  and  CB_37 
REMARK       I    between atoms: C_35  and  N_42 
REMARK   25  A    between atoms: CB_37  and  CG_38 
REMARK   26  A    between atoms: CG_38  and  CD_39 
REMARK       I    between atoms: CD_39  and  NE2_41 
REMARK   27  A    between atoms: N_42  and  CA_43 
REMARK   28  A    between atoms: CA_43  and  C_44 
REMARK   29  A    between atoms: CA_43  and  CB_46 
REMARK       I    between atoms: C_44  and  N_49 
REMARK   30  A    between atoms: CB_46  and  OG1_47 
REMARK   31  A    between atoms: CB_46  and  CG2_48 
REMARK   32  A    between atoms: N_49  and  CA_50 
REMARK   33  A    between atoms: CA_50  and  C_51 
REMARK   34  A    between atoms: CA_50  and  CB_53 
REMARK       I    between atoms: C_51  and  N_54 
REMARK   35  A    between atoms: N_54  and  CA_55 
REMARK   36  A    between atoms: CA_55  and  C_56 
REMARK   37  A    between atoms: CA_55  and  CB_58 
REMARK       I    between atoms: C_56  and  N_65 
REMARK   38  A    between atoms: CB_58  and  CG_59 
REMARK   39  A    between atoms: CG_59  and  CD_60 
REMARK   40  A    between atoms: CD_60  and  NE_61 
REMARK       I    between atoms: NE_61  and  CZ_62 
REMARK       I    between atoms: CZ_62  and  NH1_63 
REMARK   41  A    between atoms: N_65  and  CA_66 
REMARK   42  A    between atoms: CA_66  and  CB_67 
REMARK   43  A    between atoms: CA_66  and  C_72 
REMARK   44  A    between atoms: CB_67  and  CG_68 
REMARK   45  A    between atoms: CG_68  and  CD_69 
REMARK   46  A    between atoms: CD_69  and  CE_70 
REMARK   47  A    between atoms: CE_70  and  NZ_71 
REMARK   48  A    between atoms: NZ_71  and  CM1_74 
REMARK   49  A    between atoms: NZ_71  and  CM2_75 
REMARK   50  A    between atoms: NZ_71  and  CM3_76 
REMARK       I    between atoms: C_72  and  N_77 
REMARK   51  A    between atoms: N_77  and  CA_78 
REMARK   52  A    between atoms: CA_78  and  C_79 
REMARK   53  A    between atoms: CA_78  and  CB_81 
REMARK   54  A    between atoms: CB_81  and  OG_82 
ROOT
ATOM      1  N   THR d   1      33.541 -22.680  61.689  0.00  0.00    -0.344 N 
ATOM      2  H   THR d   1      34.034 -23.312  62.320  0.00  0.00     0.163 HD
ATOM      3  C   GLN d   1      34.204 -22.130  60.683  0.00  0.00     0.241 C 
ATOM      4  O   GLN d   1      33.693 -21.354  59.883  0.00  0.00    -0.271 OA
ENDROOT
BRANCH   1   5
ATOM      5  CA  THR d   1      32.133 -22.409  61.920  0.00  0.00     0.113 C 
ATOM      6  H   THR d   1      31.597 -22.717  61.022  0.00  0.00     0.091 H 
BRANCH   5   7
ATOM      7  C   THR d   1      31.913 -20.941  62.188  0.00  0.00     0.243 C 
ATOM      8  O   THR d   1      31.175 -20.275  61.468  0.00  0.00    -0.271 OA
ATOM      9  N   ALA d   1      32.562 -20.435  63.229  0.00  0.00    -0.346 N 
ATOM     10  H   ALA d   1      33.244 -21.010  63.723  0.00  0.00     0.163 HD
BRANCH   9  11
ATOM     11  CA  ALA d   1      32.316 -19.072  63.677  0.00  0.00     0.086 C 
ATOM     12  H   ALA d   1      31.233 -18.953  63.721  0.00  0.00     0.086 H 
BRANCH  11  13
ATOM     13  C   ALA d   1      32.818 -18.008  62.698  0.00  0.00     0.240 C 
ATOM     14  O   ALA d   1      32.474 -16.835  62.829  0.00  0.00    -0.271 OA
ATOM     15  N   ARG d   1      33.617 -18.419  61.715  0.00  0.00    -0.346 N 
ATOM     16  H   ARG d   1      33.857 -19.408  61.649  0.00  0.00     0.163 HD
BRANCH  15  17
ATOM     17  CA  ARG d   1      34.157 -17.488  60.730  0.00  0.00     0.089 C 
ATOM     18  H   ARG d   1      34.812 -16.779  61.236  0.00  0.00     0.087 H 
BRANCH  17  19
ATOM     19  C   ARG d   1      33.022 -16.702  60.074  0.00  0.00     0.241 C 
ATOM     20  O   ARG d   1      33.268 -15.796  59.282  0.00  0.00    -0.271 OA
ATOM     21  N   M3L d   1      31.782 -17.068  60.404  0.00  0.00    -0.346 N 
ATOM     22  H   M3L d   1      31.654 -17.941  60.916  0.00  0.00     0.163 HD
BRANCH  21  23
ATOM     23  CA  M3L d   1      30.593 -16.277  60.067  0.00  0.00     0.089 C 
ATOM     24  H   M3L d   1      30.971 -15.376  59.584  0.00  0.00     0.087 H 
BRANCH  23  25
ATOM     25  CB  M3L d   1      29.661 -16.915  58.996  0.00  0.00    -0.038 C 
ATOM     26  H   M3L d   1      29.054 -16.090  58.622  0.00  0.00     0.036 H 
ATOM     27  H   M3L d   1      29.166 -17.740  59.508  0.00  0.00     0.036 H 
BRANCH  25  28
ATOM     28  CG  M3L d   1      30.302 -17.551  57.731  0.00  0.00    -0.061 C 
ATOM     29  H   M3L d   1      30.614 -18.540  58.066  0.00  0.00     0.033 H 
ATOM     30  H   M3L d   1      31.027 -16.806  57.404  0.00  0.00     0.033 H 
BRANCH  28  31
ATOM     31  CD  M3L d   1      29.457 -17.841  56.445  0.00  0.00    -0.042 C 
ATOM     32  H   M3L d   1      28.858 -16.945  56.283  0.00  0.00     0.035 H 
ATOM     33  H   M3L d   1      28.933 -18.775  56.647  0.00  0.00     0.035 H 
BRANCH  31  34
ATOM     34  CE  M3L d   1      30.221 -18.076  55.108  0.00  0.00     0.084 C 
ATOM     35  H   M3L d   1      31.108 -18.641  55.394  0.00  0.00     0.076 H 
ATOM     36  H   M3L d   1      30.331 -17.081  54.675  0.00  0.00     0.076 H 
BRANCH  34  37
ATOM     37  NZ  M3L d   1      29.589 -18.888  54.029  0.00  0.00    -0.079 N 
BRANCH  37  38
ATOM     38  CM1 M3L d   1      30.295 -18.705  52.780  0.00  0.00     0.067 C 
ATOM     39  H   M3L d   1      30.264 -17.653  52.497  0.00  0.00     0.068 H 
ATOM     40  H   M3L d   1      31.332 -19.020  52.901  0.00  0.00     0.068 H 
ATOM     41  H   M3L d   1      29.820 -19.305  52.004  0.00  0.00     0.068 H 
ENDBRANCH  37  38
BRANCH  37  42
ATOM     42  CM2 M3L d   1      29.761 -20.239  54.525  0.00  0.00     0.067 C 
ATOM     43  H   M3L d   1      30.824 -20.447  54.648  0.00  0.00     0.068 H 
ATOM     44  H   M3L d   1      29.256 -20.339  55.486  0.00  0.00     0.068 H 
ATOM     45  H   M3L d   1      29.332 -20.944  53.812  0.00  0.00     0.068 H 
ENDBRANCH  37  42
BRANCH  37  46
ATOM     46  CM3 M3L d   1      28.179 -18.861  53.673  0.00  0.00     0.067 C 
ATOM     47  H   M3L d   1      27.582 -19.157  54.536  0.00  0.00     0.068 H 
ATOM     48  H   M3L d   1      27.902 -17.852  53.367  0.00  0.00     0.068 H 
ATOM     49  H   M3L d   1      28.000 -19.554  52.851  0.00  0.00     0.068 H 
ENDBRANCH  37  46
ENDBRANCH  34  37
ENDBRANCH  31  34
ENDBRANCH  28  31
ENDBRANCH  25  28
ENDBRANCH  23  25
BRANCH  23  50
ATOM     50  C   M3L d   1      29.821 -15.869  61.343  0.00  0.00     0.241 C 
ATOM     51  O   M3L d   1      29.020 -16.601  61.838  0.00  0.00    -0.271 OA
ATOM     52  N   SER d   1      30.137 -14.668  61.844  0.00  0.00    -0.343 N 
ATOM     53  H   SER d   1      30.863 -14.134  61.367  0.00  0.00     0.163 HD
BRANCH  52  54
ATOM     54  CA  SER d   1      29.514 -14.059  63.034  0.00  0.00     0.116 C 
ATOM     55  H   SER d   1      30.034 -14.459  63.905  0.00  0.00     0.093 H 
BRANCH  54  56
ATOM     56  C   SER d   1      28.036 -14.438  63.211  0.00  0.00     0.198 C 
ATOM     57  O   SER d   1      27.692 -15.457  63.867  0.00  0.00    -0.646 OA
ATOM     58  O   SER d   1      27.148 -13.714  62.688  0.00  0.00    -0.646 OA
ENDBRANCH  54  56
BRANCH  54  59
ATOM     59  CB  SER d   1      29.678 -12.523  62.980  0.00  0.00     0.045 C 
ATOM     60  H   SER d   1      29.113 -12.161  62.121  0.00  0.00     0.077 H 
ATOM     61  H   SER d   1      30.744 -12.307  62.915  0.00  0.00     0.077 H 
BRANCH  59  62
ATOM     62  OG  SER d   1      29.174 -11.863  64.138  0.00  0.00    -0.398 OA
ATOM     63  H   SER d   1      28.237 -12.052  64.230  0.00  0.00     0.209 HD
ENDBRANCH  59  62
ENDBRANCH  54  59
ENDBRANCH  52  54
ENDBRANCH  23  50
ENDBRANCH  21  23
ENDBRANCH  17  19
BRANCH  17  64
ATOM     64  CB  ARG d   1      35.003 -18.232  59.686  0.00  0.00    -0.036 C 
ATOM     65  H   ARG d   1      34.306 -18.652  58.960  0.00  0.00     0.036 H 
ATOM     66  H   ARG d   1      35.602 -18.962  60.231  0.00  0.00     0.036 H 
BRANCH  64  67
ATOM     67  CG  ARG d   1      35.984 -17.359  58.899  0.00  0.00    -0.048 C 
ATOM     68  H   ARG d   1      36.721 -16.960  59.596  0.00  0.00     0.035 H 
ATOM     69  H   ARG d   1      35.418 -16.568  58.407  0.00  0.00     0.035 H 
BRANCH  67  70
ATOM     70  CD  ARG d   1      36.728 -18.161  57.819  0.00  0.00     0.009 C 
ATOM     71  H   ARG d   1      36.048 -18.916  57.425  0.00  0.00     0.064 H 
ATOM     72  H   ARG d   1      37.612 -18.608  58.273  0.00  0.00     0.064 H 
BRANCH  70  73
ATOM     73  NE  ARG d   1      37.163 -17.308  56.708  0.00  0.00    -0.227 N 
ATOM     74  CZ  ARG d   1      38.084 -17.656  55.816  0.00  0.00     0.665 C 
ATOM     75  NH1 ARG d   1      38.674 -18.841  55.896  0.00  0.00    -0.235 N 
ATOM     76  NH2 ARG d   1      38.417 -16.818  54.845  0.00  0.00    -0.235 N 
ATOM     77  H   ARG d   1      38.421 -19.487  56.643  0.00  0.00     0.174 HD
ATOM     78  H   ARG d   1      39.381 -19.106  55.210  0.00  0.00     0.174 HD
ATOM     79  H   ARG d   1      37.966 -15.905  54.782  0.00  0.00     0.174 HD
ATOM     80  H   ARG d   1      39.124 -17.086  54.160  0.00  0.00     0.174 HD
ATOM     81  H   ARG d   1      36.731 -16.389  56.614  0.00  0.00     0.177 HD
ENDBRANCH  70  73
ENDBRANCH  67  70
ENDBRANCH  64  67
ENDBRANCH  17  64
ENDBRANCH  15  17
ENDBRANCH  11  13
BRANCH  11  82
ATOM     82  CB  ALA d   1      32.901 -18.853  65.062  0.00  0.00    -0.049 C 
ATOM     83  H   ALA d   1      32.438 -19.546  65.764  0.00  0.00     0.030 H 
ATOM     84  H   ALA d   1      33.977 -19.028  65.033  0.00  0.00     0.030 H 
ATOM     85  H   ALA d   1      32.707 -17.828  65.379  0.00  0.00     0.030 H 
ENDBRANCH  11  82
ENDBRANCH   9  11
ENDBRANCH   5   7
BRANCH   5  86
ATOM     86  CB  THR d   1      31.609 -23.191  63.131  0.00  0.00     0.060 C 
ATOM     87  H   THR d   1      32.411 -23.287  63.862  0.00  0.00     0.086 H 
BRANCH  86  88
ATOM     88  OG1 THR d   1      31.183 -24.492  62.710  0.00  0.00    -0.393 OA
ATOM     89  H   THR d   1      31.926 -24.961  62.322  0.00  0.00     0.210 HD
ENDBRANCH  86  88
BRANCH  86  90
ATOM     90  CG2 THR d   1      30.442 -22.450  63.786  0.00  0.00    -0.050 C 
ATOM     91  H   THR d   1      30.777 -21.467  64.118  0.00  0.00     0.031 H 
ATOM     92  H   THR d   1      29.635 -22.335  63.063  0.00  0.00     0.031 H 
ATOM     93  H   THR d   1      30.085 -23.022  64.643  0.00  0.00     0.031 H 
ENDBRANCH  86  90
ENDBRANCH   5  86
ENDBRANCH   1   5
BRANCH   3  94
ATOM     94  CA  GLN d   1      35.654 -22.549  60.549  0.00  0.00     0.090 C 
ATOM     95  H   GLN d   1      36.227 -21.881  59.906  0.00  0.00     0.087 H 
BRANCH  94  96
ATOM     96  N   GLN d   1      36.277 -22.509  61.863  0.00  0.00    -0.346 N 
ATOM     97  C   LYS d   1      36.561 -21.334  62.416  0.00  0.00     0.241 C 
ATOM     98  O   LYS d   1      36.552 -20.293  61.773  0.00  0.00    -0.271 OA
ATOM     99  H   GLN d   1      36.494 -23.375  62.356  0.00  0.00     0.163 HD
BRANCH  97 100
ATOM    100  CA  LYS d   1      36.903 -21.317  63.907  0.00  0.00     0.089 C 
ATOM    101  H   LYS d   1      36.253 -20.590  64.395  0.00  0.00     0.087 H 
BRANCH 100 102
ATOM    102  N   LYS d   1      36.648 -22.620  64.511  0.00  0.00    -0.346 N 
ATOM    103  C   THR d   1      35.411 -23.098  64.586  0.00  0.00     0.243 C 
ATOM    104  O   THR d   1      34.430 -22.450  64.224  0.00  0.00    -0.271 OA
ATOM    105  H   LYS d   1      37.426 -23.168  64.879  0.00  0.00     0.163 HD
BRANCH 103 106
ATOM    106  CA  THR d   1      35.253 -24.513  65.134  0.00  0.00     0.113 C 
ATOM    107  H   THR d   1      36.087 -24.762  65.790  0.00  0.00     0.091 H 
BRANCH 106 108
ATOM    108  N   THR d   1      34.058 -24.641  65.977  0.00  0.00    -0.344 N 
ATOM    109  C   ARG d   1      34.082 -24.385  67.289  0.00  0.00     0.241 C 
ATOM    110  O   ARG d   1      35.109 -24.057  67.894  0.00  0.00    -0.271 OA
ATOM    111  H   THR d   1      33.181 -24.935  65.548  0.00  0.00     0.163 HD
BRANCH 109 112
ATOM    112  CA  ARG d   1      32.744 -24.520  68.032  0.00  0.00     0.089 C 
ATOM    113  H   ARG d   1      32.004 -24.634  67.240  0.00  0.00     0.087 H 
BRANCH 112 114
ATOM    114  N   ARG d   1      32.648 -25.701  68.877  0.00  0.00    -0.346 N 
ATOM    115  C   ALA d   1      32.235 -26.851  68.363  0.00  0.00     0.248 C 
ATOM    116  O   ALA d   1      32.168 -27.058  67.150  0.00  0.00    -0.271 OA
ATOM    117  H   ARG d   1      32.898 -25.644  69.864  0.00  0.00     0.163 HD
BRANCH 115 118
ATOM    118  CA  ALA d   1      31.834 -27.918  69.349  0.00  0.00     0.172 C 
ATOM    119  H   ALA d   1      32.117 -27.632  70.362  0.00  0.00     0.098 H 
BRANCH 118 120
ATOM    120  N   ALA d   1      30.387 -28.080  69.247  0.00  0.00    -0.067 N 
ATOM    121  H   ALA d   1      29.931 -27.194  69.464  0.00  0.00     0.275 HD
ATOM    122  H   ALA d   1      30.144 -28.365  68.298  0.00  0.00     0.275 HD
ATOM    123  H   ALA d   1      30.079 -28.794  69.907  0.00  0.00     0.275 HD
ENDBRANCH 118 120
BRANCH 118 124
ATOM    124  CB  ALA d   1      32.535 -29.219  69.031  0.00  0.00    -0.042 C 
ATOM    125  H   ALA d   1      32.261 -29.542  68.026  0.00  0.00     0.030 H 
ATOM    126  H   ALA d   1      33.614 -29.072  69.085  0.00  0.00     0.030 H 
ATOM    127  H   ALA d   1      32.234 -29.978  69.753  0.00  0.00     0.030 H 
ENDBRANCH 118 124
ENDBRANCH 115 118
ENDBRANCH 112 114
BRANCH 112 128
ATOM    128  CB  ARG d   1      32.424 -23.273  68.858  0.00  0.00    -0.036 C 
ATOM    129  H   ARG d   1      33.346 -22.701  68.958  0.00  0.00     0.036 H 
ATOM    130  H   ARG d   1      32.014 -23.608  69.811  0.00  0.00     0.036 H 
BRANCH 128 131
ATOM    131  CG  ARG d   1      31.391 -22.364  68.210  0.00  0.00    -0.048 C 
ATOM    132  H   ARG d   1      30.722 -22.977  67.606  0.00  0.00     0.035 H 
ATOM    133  H   ARG d   1      31.914 -21.625  67.603  0.00  0.00     0.035 H 
BRANCH 131 134
ATOM    134  CD  ARG d   1      30.560 -21.629  69.253  0.00  0.00     0.009 C 
ATOM    135  H   ARG d   1      29.965 -22.367  69.791  0.00  0.00     0.064 H 
ATOM    136  H   ARG d   1      29.943 -20.894  68.736  0.00  0.00     0.064 H 
BRANCH 134 137
ATOM    137  NE  ARG d   1      31.387 -20.919  70.226  0.00  0.00    -0.227 N 
ATOM    138  CZ  ARG d   1      32.100 -19.839  69.940  0.00  0.00     0.665 C 
ATOM    139  NH1 ARG d   1      32.091 -19.352  68.707  0.00  0.00    -0.235 N 
ATOM    140  NH2 ARG d   1      32.821 -19.247  70.883  0.00  0.00    -0.235 N 
ATOM    141  H   ARG d   1      31.537 -19.808  67.983  0.00  0.00     0.174 HD
ATOM    142  H   ARG d   1      32.638 -18.521  68.483  0.00  0.00     0.174 HD
ATOM    143  H   ARG d   1      32.828 -19.623  71.831  0.00  0.00     0.174 HD
ATOM    144  H   ARG d   1      33.369 -18.416  70.660  0.00  0.00     0.174 HD
ATOM    145  H   ARG d   1      31.417 -21.275  71.181  0.00  0.00     0.177 HD
ENDBRANCH 134 137
ENDBRANCH 131 134
ENDBRANCH 128 131
ENDBRANCH 112 128
ENDBRANCH 109 112
ENDBRANCH 106 108
BRANCH 106 146
ATOM    146  CB  THR d   1      35.241 -25.488  63.921  0.00  0.00     0.060 C 
ATOM    147  H   THR d   1      36.233 -25.467  63.469  0.00  0.00     0.086 H 
BRANCH 146 148
ATOM    148  OG1 THR d   1      34.263 -25.064  62.961  0.00  0.00    -0.393 OA
ATOM    149  H   THR d   1      34.479 -24.180  62.655  0.00  0.00     0.210 HD
ENDBRANCH 146 148
BRANCH 146 150
ATOM    150  CG2 THR d   1      34.952 -26.925  64.353  0.00  0.00    -0.050 C 
ATOM    151  H   THR d   1      35.721 -27.255  65.051  0.00  0.00     0.031 H 
ATOM    152  H   THR d   1      33.977 -26.968  64.838  0.00  0.00     0.031 H 
ATOM    153  H   THR d   1      34.953 -27.573  63.477  0.00  0.00     0.031 H 
ENDBRANCH 146 150
ENDBRANCH 106 146
ENDBRANCH 103 106
ENDBRANCH 100 102
BRANCH 100 154
ATOM    154  CB  LYS d   1      38.347 -20.865  64.139  0.00  0.00    -0.038 C 
ATOM    155  H   LYS d   1      38.978 -21.485  63.502  0.00  0.00     0.036 H 
ATOM    156  H   LYS d   1      38.540 -20.960  65.207  0.00  0.00     0.036 H 
BRANCH 154 157
ATOM    157  CG  LYS d   1      38.632 -19.414  63.766  0.00  0.00    -0.061 C 
ATOM    158  H   LYS d   1      38.501 -19.302  62.690  0.00  0.00     0.033 H 
ATOM    159  H   LYS d   1      39.650 -19.172  64.071  0.00  0.00     0.033 H 
BRANCH 157 160
ATOM    160  CD  LYS d   1      37.679 -18.462  64.469  0.00  0.00    -0.043 C 
ATOM    161  H   LYS d   1      37.807 -18.575  65.546  0.00  0.00     0.035 H 
ATOM    162  H   LYS d   1      36.660 -18.702  64.164  0.00  0.00     0.035 H 
BRANCH 160 163
ATOM    163  CE  LYS d   1      37.968 -17.016  64.096  0.00  0.00     0.080 C 
ATOM    164  H   LYS d   1      37.272 -16.377  64.639  0.00  0.00     0.075 H 
ATOM    165  H   LYS d   1      37.857 -16.913  63.017  0.00  0.00     0.075 H 
BRANCH 163 166
ATOM    166  NZ  LYS d   1      39.354 -16.614  64.463  0.00  0.00    -0.079 N 
ATOM    167  H   LYS d   1      39.506 -15.641  64.197  0.00  0.00     0.274 HD
ATOM    168  H   LYS d   1      39.481 -16.716  65.470  0.00  0.00     0.274 HD
ATOM    169  H   LYS d   1      40.021 -17.210  63.973  0.00  0.00     0.274 HD
ENDBRANCH 163 166
ENDBRANCH 160 163
ENDBRANCH 157 160
ENDBRANCH 154 157
ENDBRANCH 100 154
ENDBRANCH  97 100
ENDBRANCH  94  96
BRANCH  94 170
ATOM    170  CB  GLN d   1      35.662 -23.944  59.933  0.00  0.00    -0.030 C 
ATOM    171  H   GLN d   1      35.534 -24.681  60.726  0.00  0.00     0.037 H 
ATOM    172  H   GLN d   1      36.610 -24.097  59.417  0.00  0.00     0.037 H 
BRANCH 170 173
ATOM    173  CG  GLN d   1      34.508 -24.095  58.917  0.00  0.00     0.011 C 
ATOM    174  H   GLN d   1      34.774 -23.501  58.043  0.00  0.00     0.047 H 
ATOM    175  H   GLN d   1      33.596 -23.776  59.421  0.00  0.00     0.047 H 
BRANCH 173 176
ATOM    176  CD  GLN d   1      34.274 -25.518  58.433  0.00  0.00     0.215 C 
ATOM    177  OE1 GLN d   1      33.828 -25.720  57.307  0.00  0.00    -0.274 OA
ATOM    178  NE2 GLN d   1      34.567 -26.508  59.280  0.00  0.00    -0.370 N 
ATOM    179  H   GLN d   1      34.422 -27.478  59.000  0.00  0.00     0.159 HD
ATOM    180  H   GLN d   1      34.936 -26.294  60.207  0.00  0.00     0.159 HD
ENDBRANCH 173 176
ENDBRANCH 170 173
ENDBRANCH  94 170
ENDBRANCH   3  94
TORSDOF 54
