REMARK WARNING: 32 MAX_TORS EXCEEDED!!!
REMARK  47 active torsions:
REMARK  status: ('A' for Active; 'I' for Inactive)
REMARK    1  A    between atoms: N_1  and  CA_2 
REMARK    2  A    between atoms: CA_2  and  C_3 
REMARK    3  A    between atoms: CA_2  and  CB_5 
REMARK       I    between atoms: C_3  and  N_6 
REMARK    4  A    between atoms: N_6  and  CA_7 
REMARK    5  A    between atoms: CA_7  and  C_8 
REMARK    6  A    between atoms: CA_7  and  CB_10 
REMARK       I    between atoms: C_8  and  N_17 
REMARK    7  A    between atoms: CB_10  and  CG_11 
REMARK    8  A    between atoms: CG_11  and  CD_12 
REMARK    9  A    between atoms: CD_12  and  NE_13 
REMARK       I    between atoms: NE_13  and  CZ_14 
REMARK       I    between atoms: CZ_14  and  NH1_15 
REMARK       I    between atoms: CZ_14  and  NH2_16 
REMARK   10  A    between atoms: N_17  and  CA_18 
REMARK   11  A    between atoms: CA_18  and  C_19 
REMARK   12  A    between atoms: CA_18  and  CB_21 
REMARK       I    between atoms: C_19  and  N_24 
REMARK   13  A    between atoms: CB_21  and  OG1_22 
REMARK   14  A    between atoms: CB_21  and  CG2_23 
REMARK   15  A    between atoms: N_24  and  CA_25 
REMARK   16  A    between atoms: CA_25  and  C_26 
REMARK   17  A    between atoms: CA_25  and  CB_28 
REMARK       I    between atoms: C_26  and  N_33 
REMARK   18  A    between atoms: CB_28  and  CG_29 
REMARK   19  A    between atoms: CG_29  and  CD_30 
REMARK   20  A    between atoms: CD_30  and  CE_31 
REMARK   21  A    between atoms: CE_31  and  NZ_32 
REMARK   22  A    between atoms: N_33  and  CA_34 
REMARK   23  A    between atoms: CA_34  and  C_35 
REMARK   24  A    between atoms: CA_34  and  CB_37 
REMARK       I    between atoms: C_35  and  N_42 
REMARK   25  A    between atoms: CB_37  and  CG_38 
REMARK   26  A    between atoms: CG_38  and  CD_39 
REMARK       I    between atoms: CD_39  and  NE2_41 
REMARK   27  A    between atoms: N_42  and  CA_43 
REMARK   28  A    between atoms: CA_43  and  C_44 
REMARK   29  A    between atoms: CA_43  and  CB_46 
REMARK       I    between atoms: C_44  and  N_49 
REMARK   30  A    between atoms: CB_46  and  OG1_47 
REMARK   31  A    between atoms: CB_46  and  CG2_48 
REMARK   32  A    between atoms: N_49  and  CA_50 
REMARK   33  A    between atoms: CA_50  and  C_51 
REMARK   34  A    between atoms: CA_50  and  CB_53 
REMARK       I    between atoms: C_51  and  N_54 
REMARK   35  A    between atoms: N_54  and  CA_55 
REMARK   36  A    between atoms: CA_55  and  C_56 
REMARK   37  A    between atoms: CA_55  and  CB_58 
REMARK       I    between atoms: C_56  and  N_65 
REMARK   38  A    between atoms: CB_58  and  CG_59 
REMARK   39  A    between atoms: CG_59  and  CD_60 
REMARK   40  A    between atoms: CD_60  and  NE_61 
REMARK       I    between atoms: NE_61  and  CZ_62 
REMARK       I    between atoms: CZ_62  and  NH1_63 
REMARK   41  A    between atoms: N_65  and  CA_66 
REMARK   42  A    between atoms: CA_66  and  C_67 
REMARK   43  A    between atoms: CA_66  and  CB_69 
REMARK   44  A    between atoms: CB_69  and  CG_70 
REMARK   45  A    between atoms: CG_70  and  CD_71 
REMARK   46  A    between atoms: CD_71  and  CE_72 
REMARK   47  A    between atoms: CE_72  and  NZ_73 
ROOT
ATOM      1  CA  GLN d   1      14.786   9.687  -4.944  0.00  0.00     0.090 C 
ATOM      2  H   GLN d   1      14.805   8.947  -4.144  0.00  0.00     0.087 H 
ENDROOT
BRANCH   1   3
ATOM      3  N   GLN d   1      13.945  10.806  -4.518  0.00  0.00    -0.346 N 
ATOM      4  C   LYS d   1      13.051  10.688  -3.549  0.00  0.00     0.241 C 
ATOM      5  O   LYS d   1      12.714   9.602  -3.052  0.00  0.00    -0.271 OA
ATOM      6  H   GLN d   1      14.051  11.707  -4.983  0.00  0.00     0.163 HD
BRANCH   4   7
ATOM      7  CA  LYS d   1      12.388  11.973  -3.128  0.00  0.00     0.089 C 
ATOM      8  H   LYS d   1      11.949  11.807  -2.144  0.00  0.00     0.087 H 
BRANCH   7   9
ATOM      9  N   LYS d   1      13.329  13.055  -2.979  0.00  0.00    -0.346 N 
ATOM     10  C   THR d   1      14.302  12.991  -2.070  0.00  0.00     0.243 C 
ATOM     11  O   THR d   1      14.495  11.989  -1.344  0.00  0.00    -0.271 OA
ATOM     12  H   LYS d   1      13.249  13.879  -3.576  0.00  0.00     0.163 HD
BRANCH  10  13
ATOM     13  CA  THR d   1      15.219  14.204  -2.003  0.00  0.00     0.113 C 
ATOM     14  H   THR d   1      14.657  15.133  -2.100  0.00  0.00     0.091 H 
BRANCH  13  15
ATOM     15  N   THR d   1      15.892  14.172  -0.709  0.00  0.00    -0.344 N 
ATOM     16  C   ARG d   1      15.709  15.128   0.190  0.00  0.00     0.241 C 
ATOM     17  O   ARG d   1      15.117  16.172  -0.078  0.00  0.00    -0.271 OA
ATOM     18  H   THR d   1      16.517  13.396  -0.491  0.00  0.00     0.163 HD
BRANCH  16  19
ATOM     19  CA  ARG d   1      16.257  14.852   1.593  0.00  0.00     0.089 C 
ATOM     20  H   ARG d   1      17.069  14.129   1.515  0.00  0.00     0.087 H 
BRANCH  19  21
ATOM     21  N   ARG d   1      16.814  16.058   2.198  0.00  0.00    -0.346 N 
ATOM     22  C   ALA d   1      17.998  16.533   1.860  0.00  0.00     0.248 C 
ATOM     23  O   ALA d   1      18.740  15.957   1.078  0.00  0.00    -0.271 OA
ATOM     24  H   ARG d   1      16.270  16.550   2.906  0.00  0.00     0.163 HD
BRANCH  22  25
ATOM     25  CA  ALA d   1      18.426  17.841   2.502  0.00  0.00     0.172 C 
ATOM     26  H   ALA d   1      18.190  17.800   3.565  0.00  0.00     0.098 H 
BRANCH  25  27
ATOM     27  N   ALA d   1      19.903  18.041   2.343  0.00  0.00    -0.067 N 
ATOM     28  H   ALA d   1      20.399  17.258   2.769  0.00  0.00     0.275 HD
ATOM     29  H   ALA d   1      20.133  18.091   1.351  0.00  0.00     0.275 HD
ATOM     30  H   ALA d   1      20.178  18.910   2.801  0.00  0.00     0.275 HD
ENDBRANCH  25  27
BRANCH  25  31
ATOM     31  CB  ALA d   1      17.670  19.011   1.865  0.00  0.00    -0.042 C 
ATOM     32  H   ALA d   1      17.890  19.046   0.798  0.00  0.00     0.030 H 
ATOM     33  H   ALA d   1      16.599  18.873   2.012  0.00  0.00     0.030 H 
ATOM     34  H   ALA d   1      17.985  19.944   2.333  0.00  0.00     0.030 H 
ENDBRANCH  25  31
ENDBRANCH  22  25
ENDBRANCH  19  21
BRANCH  19  35
ATOM     35  CB  ARG d   1      15.131  14.268   2.472  0.00  0.00    -0.036 C 
ATOM     36  H   ARG d   1      14.652  13.475   1.898  0.00  0.00     0.036 H 
ATOM     37  H   ARG d   1      14.467  15.091   2.734  0.00  0.00     0.036 H 
BRANCH  35  38
ATOM     38  CG  ARG d   1      15.611  13.657   3.760  0.00  0.00    -0.048 C 
ATOM     39  H   ARG d   1      16.071  14.443   4.359  0.00  0.00     0.035 H 
ATOM     40  H   ARG d   1      16.317  12.862   3.518  0.00  0.00     0.035 H 
BRANCH  38  41
ATOM     41  CD  ARG d   1      14.482  13.058   4.555  0.00  0.00     0.009 C 
ATOM     42  H   ARG d   1      14.880  12.679   5.496  0.00  0.00     0.064 H 
ATOM     43  H   ARG d   1      14.030  12.257   3.970  0.00  0.00     0.064 H 
BRANCH  41  44
ATOM     44  NE  ARG d   1      13.456  14.061   4.850  0.00  0.00    -0.227 N 
ATOM     45  CZ  ARG d   1      12.147  13.955   4.609  0.00  0.00     0.665 C 
ATOM     46  NH1 ARG d   1      11.618  12.850   4.095  0.00  0.00    -0.235 N 
ATOM     47  NH2 ARG d   1      11.352  14.968   4.926  0.00  0.00    -0.235 N 
ATOM     48  H   ARG d   1      12.216  12.054   3.874  0.00  0.00     0.174 HD
ATOM     49  H   ARG d   1      10.614  12.798   3.922  0.00  0.00     0.174 HD
ATOM     50  H   ARG d   1      11.743  15.811   5.347  0.00  0.00     0.174 HD
ATOM     51  H   ARG d   1      10.350  14.904   4.749  0.00  0.00     0.174 HD
ATOM     52  H   ARG d   1      13.774  14.928   5.283  0.00  0.00     0.177 HD
ENDBRANCH  41  44
ENDBRANCH  38  41
ENDBRANCH  35  38
ENDBRANCH  19  35
ENDBRANCH  16  19
ENDBRANCH  13  15
BRANCH  13  53
ATOM     53  CB  THR d   1      16.235  14.153  -3.169  0.00  0.00     0.060 C 
ATOM     54  H   THR d   1      15.677  14.131  -4.105  0.00  0.00     0.086 H 
BRANCH  53  55
ATOM     55  OG1 THR d   1      17.054  12.983  -3.026  0.00  0.00    -0.393 OA
ATOM     56  H   THR d   1      16.498  12.200  -3.046  0.00  0.00     0.210 HD
ENDBRANCH  53  55
BRANCH  53  57
ATOM     57  CG2 THR d   1      17.139  15.369  -3.165  0.00  0.00    -0.050 C 
ATOM     58  H   THR d   1      16.535  16.270  -3.270  0.00  0.00     0.031 H 
ATOM     59  H   THR d   1      17.690  15.407  -2.225  0.00  0.00     0.031 H 
ATOM     60  H   THR d   1      17.840  15.302  -3.997  0.00  0.00     0.031 H 
ENDBRANCH  53  57
ENDBRANCH  13  53
ENDBRANCH  10  13
ENDBRANCH   7   9
BRANCH   7  61
ATOM     61  CB  LYS d   1      11.278  12.341  -4.109  0.00  0.00    -0.038 C 
ATOM     62  H   LYS d   1      11.669  12.291  -5.125  0.00  0.00     0.036 H 
ATOM     63  H   LYS d   1      10.928  13.350  -3.890  0.00  0.00     0.036 H 
BRANCH  61  64
ATOM     64  CG  LYS d   1      10.118  11.373  -3.975  0.00  0.00    -0.061 C 
ATOM     65  H   LYS d   1       9.900  11.260  -2.913  0.00  0.00     0.033 H 
ATOM     66  H   LYS d   1      10.409  10.437  -4.451  0.00  0.00     0.033 H 
BRANCH  64  67
ATOM     67  CD  LYS d   1       8.891  11.852  -4.638  0.00  0.00    -0.043 C 
ATOM     68  H   LYS d   1       8.693  12.886  -4.353  0.00  0.00     0.035 H 
ATOM     69  H   LYS d   1       8.041  11.241  -4.334  0.00  0.00     0.035 H 
BRANCH  67  70
ATOM     70  CE  LYS d   1       9.082  11.759  -6.104  0.00  0.00     0.080 C 
ATOM     71  H   LYS d   1       9.239  10.718  -6.386  0.00  0.00     0.075 H 
ATOM     72  H   LYS d   1       9.952  12.347  -6.396  0.00  0.00     0.075 H 
BRANCH  70  73
ATOM     73  NZ  LYS d   1       7.882  12.280  -6.788  0.00  0.00    -0.079 N 
ATOM     74  H   LYS d   1       8.013  12.216  -7.798  0.00  0.00     0.274 HD
ATOM     75  H   LYS d   1       7.069  11.728  -6.514  0.00  0.00     0.274 HD
ATOM     76  H   LYS d   1       7.738  13.255  -6.524  0.00  0.00     0.274 HD
ENDBRANCH  70  73
ENDBRANCH  67  70
ENDBRANCH  64  67
ENDBRANCH  61  64
ENDBRANCH   7  61
ENDBRANCH   4   7
ENDBRANCH   1   3
BRANCH   1  77
ATOM     77  C   GLN d   1      16.204  10.158  -5.197  0.00  0.00     0.241 C 
ATOM     78  O   GLN d   1      16.510  11.330  -5.086  0.00  0.00    -0.271 OA
ATOM     79  N   THR d   1      17.086   9.201  -5.469  0.00  0.00    -0.344 N 
ATOM     80  H   THR d   1      16.792   8.232  -5.351  0.00  0.00     0.163 HD
BRANCH  79  81
ATOM     81  CA  THR d   1      18.461   9.454  -5.930  0.00  0.00     0.113 C 
ATOM     82  H   THR d   1      18.687  10.518  -5.858  0.00  0.00     0.091 H 
BRANCH  81  83
ATOM     83  C   THR d   1      18.551   8.959  -7.369  0.00  0.00     0.243 C 
ATOM     84  O   THR d   1      17.672   8.195  -7.826  0.00  0.00    -0.271 OA
ATOM     85  N   ALA d   1      19.626   9.340  -8.066  0.00  0.00    -0.346 N 
ATOM     86  H   ALA d   1      20.310   9.946  -7.613  0.00  0.00     0.163 HD
BRANCH  85  87
ATOM     87  CA  ALA d   1      19.867   8.929  -9.446  0.00  0.00     0.086 C 
ATOM     88  H   ALA d   1      19.279   8.037  -9.661  0.00  0.00     0.086 H 
BRANCH  87  89
ATOM     89  C   ALA d   1      21.340   8.627  -9.611  0.00  0.00     0.240 C 
ATOM     90  O   ALA d   1      22.183   9.198  -8.918  0.00  0.00    -0.271 OA
ATOM     91  N   ARG d   1      21.617   7.754 -10.576  0.00  0.00    -0.346 N 
ATOM     92  H   ARG d   1      20.841   7.378 -11.120  0.00  0.00     0.163 HD
BRANCH  91  93
ATOM     93  CA  ARG d   1      22.960   7.306 -10.899  0.00  0.00     0.089 C 
ATOM     94  H   ARG d   1      23.454   6.913 -10.011  0.00  0.00     0.087 H 
BRANCH  93  95
ATOM     95  C   ARG d   1      23.737   8.491 -11.438  0.00  0.00     0.241 C 
ATOM     96  O   ARG d   1      23.178   9.315 -12.158  0.00  0.00    -0.271 OA
ATOM     97  N   LYS d   1      25.017   8.567 -11.076  0.00  0.00    -0.345 N 
ATOM     98  H   LYS d   1      25.380   7.865 -10.431  0.00  0.00     0.163 HD
BRANCH  97  99
ATOM     99  CA  LYS d   1      25.927   9.605 -11.557  0.00  0.00     0.096 C 
ATOM    100  H   LYS d   1      25.394  10.554 -11.614  0.00  0.00     0.089 H 
BRANCH  99 101
ATOM    101  C   LYS d   1      26.434   9.264 -12.958  0.00  0.00     0.196 C 
ATOM    102  O   LYS d   1      25.730   8.610 -13.773  0.00  0.00    -0.646 OA
ATOM    103  O   LYS d   1      27.583   9.646 -13.306  0.00  0.00    -0.646 OA
ENDBRANCH  99 101
BRANCH  99 104
ATOM    104  CB  LYS d   1      27.102   9.740 -10.577  0.00  0.00    -0.037 C 
ATOM    105  H   LYS d   1      27.583   8.762 -10.550  0.00  0.00     0.036 H 
ATOM    106  H   LYS d   1      26.672  10.102  -9.643  0.00  0.00     0.036 H 
BRANCH 104 107
ATOM    107  CG  LYS d   1      28.193  10.732 -10.947  0.00  0.00    -0.061 C 
ATOM    108  H   LYS d   1      27.726  11.581 -11.446  0.00  0.00     0.033 H 
ATOM    109  H   LYS d   1      28.912  10.223 -11.590  0.00  0.00     0.033 H 
BRANCH 107 110
ATOM    110  CD  LYS d   1      28.944  11.257  -9.708  0.00  0.00    -0.043 C 
ATOM    111  H   LYS d   1      28.273  11.933  -9.178  0.00  0.00     0.035 H 
ATOM    112  H   LYS d   1      29.857  11.741 -10.056  0.00  0.00     0.035 H 
BRANCH 110 113
ATOM    113  CE  LYS d   1      29.351  10.147  -8.731  0.00  0.00     0.080 C 
ATOM    114  H   LYS d   1      28.454   9.819  -8.206  0.00  0.00     0.075 H 
ATOM    115  H   LYS d   1      30.108  10.553  -8.060  0.00  0.00     0.075 H 
BRANCH 113 116
ATOM    116  NZ  LYS d   1      29.941   8.955  -9.421  0.00  0.00    -0.079 N 
ATOM    117  H   LYS d   1      30.192   8.252  -8.726  0.00  0.00     0.274 HD
ATOM    118  H   LYS d   1      29.256   8.565 -10.069  0.00  0.00     0.274 HD
ATOM    119  H   LYS d   1      30.774   9.239  -9.935  0.00  0.00     0.274 HD
ENDBRANCH 113 116
ENDBRANCH 110 113
ENDBRANCH 107 110
ENDBRANCH 104 107
ENDBRANCH  99 104
ENDBRANCH  97  99
ENDBRANCH  93  95
BRANCH  93 120
ATOM    120  CB  ARG d   1      22.895   6.186 -11.951  0.00  0.00    -0.036 C 
ATOM    121  H   ARG d   1      22.932   6.669 -12.928  0.00  0.00     0.036 H 
ATOM    122  H   ARG d   1      21.985   5.619 -11.752  0.00  0.00     0.036 H 
BRANCH 120 123
ATOM    123  CG  ARG d   1      24.052   5.193 -11.906  0.00  0.00    -0.048 C 
ATOM    124  H   ARG d   1      24.212   4.901 -10.868  0.00  0.00     0.035 H 
ATOM    125  H   ARG d   1      24.933   5.674 -12.332  0.00  0.00     0.035 H 
BRANCH 123 126
ATOM    126  CD  ARG d   1      23.750   3.926 -12.723  0.00  0.00     0.009 C 
ATOM    127  H   ARG d   1      24.227   4.026 -13.698  0.00  0.00     0.064 H 
ATOM    128  H   ARG d   1      22.668   3.824 -12.809  0.00  0.00     0.064 H 
BRANCH 126 129
ATOM    129  NE  ARG d   1      24.275   2.723 -12.076  0.00  0.00    -0.227 N 
ATOM    130  CZ  ARG d   1      24.373   1.528 -12.655  0.00  0.00     0.665 C 
ATOM    131  NH1 ARG d   1      23.984   1.343 -13.921  0.00  0.00    -0.235 N 
ATOM    132  NH2 ARG d   1      24.880   0.507 -11.969  0.00  0.00    -0.235 N 
ATOM    133  H   ARG d   1      23.606   2.124 -14.457  0.00  0.00     0.174 HD
ATOM    134  H   ARG d   1      24.066   0.421 -14.350  0.00  0.00     0.174 HD
ATOM    135  H   ARG d   1      25.190   0.643 -11.007  0.00  0.00     0.174 HD
ATOM    136  H   ARG d   1      24.959  -0.412 -12.405  0.00  0.00     0.174 HD
ATOM    137  H   ARG d   1      24.589   2.806 -11.109  0.00  0.00     0.177 HD
ENDBRANCH 126 129
ENDBRANCH 123 126
ENDBRANCH 120 123
ENDBRANCH  93 120
ENDBRANCH  91  93
ENDBRANCH  87  89
BRANCH  87 138
ATOM    138  CB  ALA d   1      19.426  10.003 -10.429  0.00  0.00    -0.049 C 
ATOM    139  H   ALA d   1      18.360  10.192 -10.305  0.00  0.00     0.030 H 
ATOM    140  H   ALA d   1      19.984  10.920 -10.238  0.00  0.00     0.030 H 
ATOM    141  H   ALA d   1      19.620   9.664 -11.447  0.00  0.00     0.030 H 
ENDBRANCH  87 138
ENDBRANCH  85  87
ENDBRANCH  81  83
BRANCH  81 142
ATOM    142  CB  THR d   1      19.488   8.699  -5.059  0.00  0.00     0.060 C 
ATOM    143  H   THR d   1      20.497   8.941  -5.392  0.00  0.00     0.086 H 
BRANCH 142 144
ATOM    144  OG1 THR d   1      19.264   7.294  -5.190  0.00  0.00    -0.393 OA
ATOM    145  H   THR d   1      19.900   6.818  -4.651  0.00  0.00     0.210 HD
ENDBRANCH 142 144
BRANCH 142 146
ATOM    146  CG2 THR d   1      19.353   9.114  -3.621  0.00  0.00    -0.050 C 
ATOM    147  H   THR d   1      19.531  10.186  -3.535  0.00  0.00     0.031 H 
ATOM    148  H   THR d   1      18.347   8.882  -3.270  0.00  0.00     0.031 H 
ATOM    149  H   THR d   1      20.083   8.574  -3.018  0.00  0.00     0.031 H 
ENDBRANCH 142 146
ENDBRANCH  81 142
ENDBRANCH  79  81
ENDBRANCH   1  77
BRANCH   1 150
ATOM    150  CB  GLN d   1      14.205   9.021  -6.205  0.00  0.00    -0.030 C 
ATOM    151  H   GLN d   1      14.833   8.164  -6.450  0.00  0.00     0.037 H 
ATOM    152  H   GLN d   1      14.184   9.769  -6.998  0.00  0.00     0.037 H 
BRANCH 150 153
ATOM    153  CG  GLN d   1      12.801   8.521  -6.005  0.00  0.00     0.011 C 
ATOM    154  H   GLN d   1      12.187   9.378  -5.728  0.00  0.00     0.047 H 
ATOM    155  H   GLN d   1      12.838   7.743  -5.243  0.00  0.00     0.047 H 
BRANCH 153 156
ATOM    156  CD  GLN d   1      12.190   7.910  -7.243  0.00  0.00     0.215 C 
ATOM    157  OE1 GLN d   1      12.887   7.525  -8.180  0.00  0.00    -0.274 OA
ATOM    158  NE2 GLN d   1      10.866   7.831  -7.258  0.00  0.00    -0.370 N 
ATOM    159  H   GLN d   1      10.388   7.439  -8.069  0.00  0.00     0.159 HD
ATOM    160  H   GLN d   1      10.326   8.162  -6.458  0.00  0.00     0.159 HD
ENDBRANCH 153 156
ENDBRANCH 150 153
ENDBRANCH   1 150
TORSDOF 47
