REMARK  13 active torsions:
REMARK  status: ('A' for Active; 'I' for Inactive)
REMARK    1  A    between atoms: N1_2  and  C1_1 
REMARK       I    between atoms: C14_23  and  N1_2 
REMARK    2  A    between atoms: N1_2  and  C24_33 
REMARK    3  A    between atoms: C7_16  and  O1_3 
REMARK       I    between atoms: N2_6  and  C17_26 
REMARK    4  A    between atoms: C6_15  and  C7_16 
REMARK    5  A    between atoms: C7_16  and  C8_17 
REMARK    6  A    between atoms: C15_24  and  C14_23 
REMARK    7  A    between atoms: C16_25  and  C15_24 
REMARK    8  A    between atoms: C17_26  and  C16_25 
REMARK    9  A    between atoms: C19_28  and  C23_32 
REMARK   10  A    between atoms: C24_33  and  C25_34 
REMARK   11  A    between atoms: C25_34  and  C26_35 
REMARK   12  A    between atoms: C25_34  and  C27_36 
REMARK   13  A    between atoms: C25_34  and  C28_37 
ROOT
ATOM      1  N1  D99 d   1      17.711  -4.411  56.122  0.00  0.00    -0.317 N 
ATOM      2  O2  D99 d   1      17.380  -5.024  58.224  0.00  0.00    -0.273 OA
ATOM      3  C14 D99 d   1      17.027  -4.360  57.288  0.00  0.00     0.224 C 
ENDROOT
BRANCH   1   4
ATOM      4  C1  D99 d   1      17.172  -3.609  55.072  0.00  0.00     0.046 A 
ATOM      5  C2  D99 d   1      16.059  -4.129  54.392  0.00  0.00    -0.055 A 
ATOM      6  C3  D99 d   1      15.490  -3.392  53.312  0.00  0.00    -0.060 A 
ATOM      7  H2  D99 d   1      15.636  -5.083  54.686  0.00  0.00     0.087 H 
ATOM      8  C4  D99 d   1      15.990  -2.125  53.029  0.00  0.00     0.034 A 
ATOM      9  H3  D99 d   1      14.683  -3.811  52.722  0.00  0.00     0.086 H 
ATOM     10 CL2  D99 d   1      15.216  -1.144  51.732  0.00  0.00    -0.084 Cl
ATOM     11  C5  D99 d   1      17.117  -1.610  53.710  0.00  0.00    -0.051 A 
ATOM     12  C6  D99 d   1      17.686  -2.348  54.733  0.00  0.00     0.004 A 
ATOM     13  H4  D99 d   1      17.531  -0.647  53.434  0.00  0.00     0.087 H 
BRANCH  12  14
ATOM     14  C7  D99 d   1      18.827  -1.740  55.485  0.00  0.00     0.090 C 
ATOM     15  H5  D99 d   1      19.438  -2.552  55.905  0.00  0.00     0.098 H 
BRANCH  14  16
ATOM     16  O1  D99 d   1      18.225  -0.955  56.547  0.00  0.00    -0.386 OA
ATOM     17  H1  D99 d   1      17.707  -1.523  57.105  0.00  0.00     0.210 HD
ENDBRANCH  14  16
BRANCH  14  18
ATOM     18  C8  D99 d   1      19.740  -0.812  54.718  0.00  0.00    -0.003 A 
ATOM     19  C9  D99 d   1      20.691  -1.291  53.832  0.00  0.00     0.043 A 
ATOM     20 CL1  D99 d   1      20.802  -3.040  53.523  0.00  0.00    -0.084 Cl
ATOM     21  C10 D99 d   1      21.582  -0.442  53.194  0.00  0.00    -0.061 A 
ATOM     22  C11 D99 d   1      21.482   0.924  53.414  0.00  0.00    -0.081 A 
ATOM     23  H6  D99 d   1      22.345  -0.839  52.534  0.00  0.00     0.086 H 
ATOM     24  C12 D99 d   1      20.516   1.440  54.282  0.00  0.00    -0.082 A 
ATOM     25  H7  D99 d   1      22.161   1.599  52.907  0.00  0.00     0.083 H 
ATOM     26  C13 D99 d   1      19.633   0.585  54.927  0.00  0.00    -0.072 A 
ATOM     27  H8  D99 d   1      20.456   2.509  54.452  0.00  0.00     0.083 H 
ATOM     28  H9  D99 d   1      18.869   0.983  55.585  0.00  0.00     0.084 H 
ENDBRANCH  14  18
ENDBRANCH  12  14
ENDBRANCH   1   4
BRANCH   1  29
ATOM     29  C24 D99 d   1      18.950  -5.223  55.913  0.00  0.00     0.009 C 
ATOM     30  H23 D99 d   1      19.439  -5.337  56.892  0.00  0.00     0.066 H 
ATOM     31  H24 D99 d   1      19.607  -4.654  55.239  0.00  0.00     0.066 H 
BRANCH  29  32
ATOM     32  C25 D99 d   1      18.783  -6.613  55.322  0.00  0.00    -0.035 C 
BRANCH  32  33
ATOM     33  C26 D99 d   1      17.628  -7.414  55.939  0.00  0.00    -0.068 C 
ATOM     34  H25 D99 d   1      17.572  -8.403  55.462  0.00  0.00     0.028 H 
ATOM     35  H26 D99 d   1      16.682  -6.876  55.779  0.00  0.00     0.028 H 
ATOM     36  H27 D99 d   1      17.802  -7.537  57.018  0.00  0.00     0.028 H 
ENDBRANCH  32  33
BRANCH  32  37
ATOM     37  C27 D99 d   1      20.096  -7.287  55.675  0.00  0.00    -0.068 C 
ATOM     38  H28 D99 d   1      20.929  -6.719  55.236  0.00  0.00     0.028 H 
ATOM     39  H29 D99 d   1      20.101  -8.312  55.276  0.00  0.00     0.028 H 
ATOM     40  H30 D99 d   1      20.209  -7.319  56.769  0.00  0.00     0.028 H 
ENDBRANCH  32  37
BRANCH  32  41
ATOM     41  C28 D99 d   1      18.662  -6.533  53.779  0.00  0.00    -0.068 C 
ATOM     42  H31 D99 d   1      17.713  -6.046  53.510  0.00  0.00     0.028 H 
ATOM     43  H32 D99 d   1      18.685  -7.548  53.356  0.00  0.00     0.028 H 
ATOM     44  H33 D99 d   1      19.502  -5.948  53.375  0.00  0.00     0.028 H 
ENDBRANCH  32  41
ENDBRANCH  29  32
ENDBRANCH   1  29
BRANCH   3  45
ATOM     45  C15 D99 d   1      15.798  -3.445  57.444  0.00  0.00     0.018 C 
ATOM     46  H10 D99 d   1      14.912  -3.932  57.010  0.00  0.00     0.047 H 
ATOM     47  H11 D99 d   1      15.977  -2.487  56.933  0.00  0.00     0.047 H 
BRANCH  45  48
ATOM     48  C16 D99 d   1      15.575  -3.199  58.968  0.00  0.00     0.017 C 
ATOM     49  H12 D99 d   1      15.507  -4.169  59.481  0.00  0.00     0.047 H 
ATOM     50  H13 D99 d   1      14.636  -2.643  59.108  0.00  0.00     0.047 H 
BRANCH  48  51
ATOM     51  C17 D99 d   1      16.717  -2.400  59.570  0.00  0.00     0.220 C 
ATOM     52  N2  D99 d   1      16.672  -2.102  60.898  0.00  0.00    -0.351 N 
ATOM     53  C18 D99 d   1      15.423  -2.192  61.697  0.00  0.00     0.010 C 
ATOM     54  C22 D99 d   1      17.906  -1.801  61.638  0.00  0.00    -0.002 C 
ATOM     55  C19 D99 d   1      15.580  -1.433  63.024  0.00  0.00     0.046 C 
ATOM     56  H14 D99 d   1      15.203  -3.249  61.908  0.00  0.00     0.065 H 
ATOM     57  H15 D99 d   1      14.594  -1.752  61.124  0.00  0.00     0.065 H 
ATOM     58  C20 D99 d   1      16.365  -0.127  62.784  0.00  0.00    -0.050 C 
ATOM     59  H16 D99 d   1      16.146  -2.054  63.734  0.00  0.00     0.059 H 
ATOM     60  C21 D99 d   1      17.754  -0.379  62.179  0.00  0.00    -0.049 C 
ATOM     61  H17 D99 d   1      16.488   0.393  63.746  0.00  0.00     0.034 H 
ATOM     62  H18 D99 d   1      15.790   0.509  62.095  0.00  0.00     0.034 H 
ATOM     63  H19 D99 d   1      18.513  -0.214  62.958  0.00  0.00     0.035 H 
ATOM     64  H20 D99 d   1      17.914   0.331  61.355  0.00  0.00     0.035 H 
ATOM     65  H21 D99 d   1      18.775  -1.861  60.967  0.00  0.00     0.064 H 
ATOM     66  H22 D99 d   1      18.034  -2.511  62.468  0.00  0.00     0.064 H 
ATOM     67  O3  D99 d   1      17.673  -2.072  58.866  0.00  0.00    -0.273 OA
BRANCH  55  68
ATOM     68  C23 D99 d   1      14.191  -1.181  63.593  0.00  0.00     0.178 C 
ATOM     69  O4  D99 d   1      13.324  -2.053  63.530  0.00  0.00    -0.648 OA
ATOM     70  O5  D99 d   1      13.863  -0.016  64.189  0.00  0.00    -0.648 OA
ENDBRANCH  55  68
ENDBRANCH  48  51
ENDBRANCH  45  48
ENDBRANCH   3  45
TORSDOF 13
