REMARK  2 active torsions:
REMARK  status: ('A' for Active; 'I' for Inactive)
REMARK    1  A    between atoms: P_1  and  C1P_5 
REMARK    2  A    between atoms: C1P_5  and  C1_6 
REMARK       I    between atoms: C1_6  and  N1_8 
ROOT
ATOM      1  C1P PCT d   1      44.609  29.112  16.158  0.00  0.00     0.112 C 
ATOM      2  H1  PCT d   1      44.515  28.325  16.921  0.00  0.00     0.068 H 
ATOM      3  H2  PCT d   1      44.721  28.649  15.166  0.00  0.00     0.068 H 
ENDROOT
BRANCH   1   4
ATOM      4  P   PCT d   1      46.156  30.040  16.511  0.00  0.00     0.268 P 
ATOM      5  O1P PCT d   1      46.056  30.496  18.021  0.00  0.00    -0.639 OA
ATOM      6  O2P PCT d   1      47.305  28.999  16.231  0.00  0.00    -0.639 OA
ATOM      7  O3P PCT d   1      46.311  31.293  15.568  0.00  0.00    -0.639 OA
ENDBRANCH   1   4
BRANCH   1   8
ATOM      8  C1  PCT d   1      43.316  29.890  16.150  0.00  0.00     0.228 C 
ATOM      9  O1  PCT d   1      43.244  31.123  16.166  0.00  0.00    -0.273 OA
ATOM     10  N1  PCT d   1      42.262  29.060  16.112  0.00  0.00    -0.370 N 
ATOM     11  H3  PCT d   1      41.334  29.431  16.102  0.00  0.00     0.159 HD
ATOM     12  H4  PCT d   1      42.405  28.070  16.093  0.00  0.00     0.159 HD
ENDBRANCH   1   8
TORSDOF 2
