REMARK  6 active torsions:
REMARK  status: ('A' for Active; 'I' for Inactive)
REMARK    1  A    between atoms: C12_4  and  N13_5 
REMARK    2  A    between atoms: N15_8  and  C14_6 
REMARK    3  A    between atoms: C66_29  and  C36_14 
REMARK    4  A    between atoms: C46_20  and  N44_18 
REMARK    5  A    between atoms: N44_18  and  C48_22 
REMARK    6  A    between atoms: C66_29  and  C68_30 
ROOT
ATOM      1  N13 ATK d   1      51.389  12.524  11.258  0.00  0.00    -0.214 N 
ATOM      2  C17 ATK d   1      51.441  13.450  12.246  0.00  0.00     0.074 A 
ATOM      3  C18 ATK d   1      51.637  14.715  11.676  0.00  0.00     0.012 A 
ATOM      4  N20 ATK d   1      51.559  13.089  10.169  0.00  0.00    -0.177 NA
ATOM      5  C28 ATK d   1      51.703  14.410  10.308  0.00  0.00     0.034 A 
ATOM      6  C44 ATK d   1      51.728  15.916  12.367  0.00  0.00    -0.067 A 
ATOM      7  C45 ATK d   1      51.627  15.827  13.767  0.00  0.00    -0.057 A 
ATOM      8  C46 ATK d   1      51.450  14.570  14.404  0.00  0.00     0.030 A 
ATOM      9  C47 ATK d   1      51.344  13.355  13.651  0.00  0.00    -0.029 A 
ATOM     10  H   ATK d   1      51.847  15.126   9.499  0.00  0.00     0.118 H 
ATOM     11  H   ATK d   1      51.869  16.869  11.856  0.00  0.00     0.085 H 
ATOM     12  H   ATK d   1      51.685  16.733  14.370  0.00  0.00     0.086 H 
ATOM     13  H   ATK d   1      51.194  12.395  14.144  0.00  0.00     0.090 H 
ENDROOT
BRANCH   1  14
ATOM     14  C12 ATK d   1      51.161  11.171  11.337  0.00  0.00     0.171 A 
ATOM     15  N4  ATK d   1      51.182  10.595  12.527  0.00  0.00    -0.208 NA
ATOM     16  C14 ATK d   1      50.965   9.295  12.654  0.00  0.00     0.153 A 
ATOM     17  C15 ATK d   1      50.722   8.500  11.498  0.00  0.00     0.047 A 
ATOM     18  N1  ATK d   1      50.707   9.077  10.308  0.00  0.00    -0.265 NA
ATOM     19  H   ATK d   1      50.550   7.428  11.593  0.00  0.00     0.120 H 
ATOM     20  C11 ATK d   1      50.909  10.379  10.185  0.00  0.00     0.048 A 
ATOM     21  H   ATK d   1      50.882  10.844   9.200  0.00  0.00     0.120 H 
BRANCH  16  22
ATOM     22  N15 ATK d   1      50.980   8.784  13.916  0.00  0.00    -0.316 N 
ATOM     23  C35 ATK d   1      51.411   9.264  15.211  0.00  0.00    -0.007 C 
ATOM     24  C36 ATK d   1      51.535   8.286  16.200  0.00  0.00    -0.031 C 
ATOM     25  H   ATK d   1      51.624  10.316  15.401  0.00  0.00     0.113 H 
ATOM     26  C37 ATK d   1      51.145   7.080  15.613  0.00  0.00    -0.060 C 
ATOM     27  C38 ATK d   1      50.586   7.471  14.401  0.00  0.00    -0.013 C 
ATOM     28  H   ATK d   1      51.253   6.071  16.011  0.00  0.00     0.086 H 
ATOM     29  H   ATK d   1      49.896   6.833  13.849  0.00  0.00     0.112 H 
BRANCH  24  30
ATOM     30  C66 ATK d   1      51.982   8.447  17.622  0.00  0.00     0.041 C 
ATOM     31  H   ATK d   1      52.230   9.497  17.775  0.00  0.00     0.056 H 
ATOM     32  H   ATK d   1      52.830   7.781  17.781  0.00  0.00     0.056 H 
BRANCH  30  33
ATOM     33  C68 ATK d   1      50.888   8.068  18.645  0.00  0.00     0.177 C 
ATOM     34  O61 ATK d   1      50.826   8.691  19.696  0.00  0.00    -0.648 OA
ATOM     35  O63 ATK d   1      50.108   7.147  18.380  0.00  0.00    -0.648 OA
ENDBRANCH  30  33
ENDBRANCH  24  30
ENDBRANCH  16  22
ENDBRANCH   1  14
BRANCH   8  36
ATOM     36  N44 ATK d   1      51.381  14.597  15.750  0.00  0.00    -0.385 N 
ATOM     37  H   ATK d   1      51.151  15.473  16.220  0.00  0.00     0.160 HD
BRANCH  36  38
ATOM     38  C48 ATK d   1      51.630  13.394  16.555  0.00  0.00     0.009 C 
ATOM     39  C57 ATK d   1      50.300  12.986  17.194  0.00  0.00    -0.046 C 
ATOM     40  C58 ATK d   1      50.365  13.685  18.553  0.00  0.00    -0.063 C 
ATOM     41  H   ATK d   1      50.175  11.906  17.272  0.00  0.00     0.035 H 
ATOM     42  H   ATK d   1      49.432  13.277  16.602  0.00  0.00     0.035 H 
ATOM     43  C59 ATK d   1      51.665  14.502  18.643  0.00  0.00    -0.063 C 
ATOM     44  H   ATK d   1      50.347  12.939  19.348  0.00  0.00     0.033 H 
ATOM     45  H   ATK d   1      49.508  14.350  18.663  0.00  0.00     0.033 H 
ATOM     46  C60 ATK d   1      52.576  13.726  17.725  0.00  0.00    -0.046 C 
ATOM     47  H   ATK d   1      52.049  14.598  19.659  0.00  0.00     0.033 H 
ATOM     48  H   ATK d   1      51.544  15.546  18.355  0.00  0.00     0.033 H 
ATOM     49  H   ATK d   1      53.464  14.281  17.422  0.00  0.00     0.035 H 
ATOM     50  H   ATK d   1      53.016  12.845  18.192  0.00  0.00     0.035 H 
ATOM     51  H   ATK d   1      52.059  12.618  15.920  0.00  0.00     0.072 H 
ENDBRANCH  36  38
ENDBRANCH   8  36
TORSDOF 6
