REMARK  8 active torsions:
REMARK  status: ('A' for Active; 'I' for Inactive)
REMARK    1  A    between atoms: C3_3  and  N13_7 
REMARK    2  A    between atoms: C5_5  and  N15_8 
REMARK    3  A    between atoms: C27_14  and  C57_25 
REMARK    4  A    between atoms: C37_19  and  N44_21 
REMARK    5  A    between atoms: N44_21  and  C46_22 
REMARK    6  A    between atoms: C46_22  and  C48_23 
REMARK    7  A    between atoms: C46_22  and  C51_24 
REMARK    8  A    between atoms: C57_25  and  C59_26 
ROOT
ATOM      1  N13 CCK d   1     -25.900 -12.617 -28.764  0.00  0.00    -0.214 N 
ATOM      2  C17 CCK d   1     -26.000 -13.602 -27.837  0.00  0.00     0.074 A 
ATOM      3  C18 CCK d   1     -26.257 -14.819 -28.469  0.00  0.00     0.012 A 
ATOM      4  C19 CCK d   1     -26.304 -14.437 -29.822  0.00  0.00     0.034 A 
ATOM      5  N20 CCK d   1     -26.049 -13.121 -29.891  0.00  0.00    -0.177 NA
ATOM      6  C35 CCK d   1     -26.411 -16.051 -27.834  0.00  0.00    -0.067 A 
ATOM      7  C36 CCK d   1     -26.291 -16.050 -26.431  0.00  0.00    -0.057 A 
ATOM      8  C37 CCK d   1     -26.032 -14.838 -25.738  0.00  0.00     0.030 A 
ATOM      9  C38 CCK d   1     -25.885 -13.592 -26.434  0.00  0.00    -0.029 A 
ATOM     10  H3  CCK d   1     -26.511 -15.094 -30.666  0.00  0.00     0.118 H 
ATOM     11  H7  CCK d   1     -26.612 -16.960 -28.390  0.00  0.00     0.085 H 
ATOM     12  H8  CCK d   1     -26.397 -16.977 -25.879  0.00  0.00     0.086 H 
ATOM     13  H9  CCK d   1     -25.691 -12.671 -25.896  0.00  0.00     0.090 H 
ENDROOT
BRANCH   1  14
ATOM     14  C3  CCK d   1     -25.670 -11.284 -28.605  0.00  0.00     0.171 A 
ATOM     15  C2  CCK d   1     -25.379 -10.465 -29.732  0.00  0.00     0.048 A 
ATOM     16  N1  CCK d   1     -25.163  -9.142 -29.590  0.00  0.00    -0.265 NA
ATOM     17  H1  CCK d   1     -25.330 -10.911 -30.719  0.00  0.00     0.120 H 
ATOM     18  C6  CCK d   1     -25.203  -8.586 -28.389  0.00  0.00     0.047 A 
ATOM     19  C5  CCK d   1     -25.489  -9.405 -27.267  0.00  0.00     0.153 A 
ATOM     20  H2  CCK d   1     -25.021  -7.525 -28.266  0.00  0.00     0.120 H 
ATOM     21  N4  CCK d   1     -25.723 -10.710 -27.380  0.00  0.00    -0.208 NA
BRANCH  19  22
ATOM     22  N15 CCK d   1     -25.521  -8.851 -26.047  0.00  0.00    -0.316 N 
ATOM     23  C26 CCK d   1     -25.814  -9.416 -24.748  0.00  0.00    -0.007 A 
ATOM     24  C27 CCK d   1     -25.841  -8.528 -23.703  0.00  0.00    -0.031 A 
ATOM     25  H4  CCK d   1     -26.001 -10.480 -24.608  0.00  0.00     0.113 H 
ATOM     26  C28 CCK d   1     -25.493  -7.267 -24.233  0.00  0.00    -0.060 A 
ATOM     27  C29 CCK d   1     -25.304  -7.475 -25.603  0.00  0.00    -0.013 A 
ATOM     28  H5  CCK d   1     -25.393  -6.329 -23.689  0.00  0.00     0.086 H 
ATOM     29  H6  CCK d   1     -25.018  -6.676 -26.285  0.00  0.00     0.112 H 
BRANCH  24  30
ATOM     30  C57 CCK d   1     -26.221  -8.904 -22.291  0.00  0.00     0.041 C 
ATOM     31  H18 CCK d   1     -26.070  -9.987 -22.171  0.00  0.00     0.056 H 
ATOM     32  H19 CCK d   1     -27.285  -8.664 -22.146  0.00  0.00     0.056 H 
BRANCH  30  33
ATOM     33  C59 CCK d   1     -25.420  -8.189 -21.212  0.00  0.00     0.177 C 
ATOM     34  O61 CCK d   1     -24.779  -7.144 -21.480  0.00  0.00    -0.648 OA
ATOM     35  O63 CCK d   1     -25.478  -8.717 -20.100  0.00  0.00    -0.648 OA
ENDBRANCH  30  33
ENDBRANCH  24  30
ENDBRANCH  19  22
ENDBRANCH   1  14
BRANCH   8  36
ATOM     36  N44 CCK d   1     -25.919 -14.894 -24.380  0.00  0.00    -0.386 N 
ATOM     37  H10 CCK d   1     -25.733 -15.802 -23.930  0.00  0.00     0.160 HD
BRANCH  36  38
ATOM     38  C46 CCK d   1     -26.053 -13.708 -23.548  0.00  0.00     0.003 C 
ATOM     39  H11 CCK d   1     -26.148 -12.859 -24.241  0.00  0.00     0.071 H 
BRANCH  38  40
ATOM     40  C48 CCK d   1     -24.797 -13.420 -22.710  0.00  0.00    -0.058 C 
ATOM     41  H12 CCK d   1     -24.959 -12.516 -22.105  0.00  0.00     0.030 H 
ATOM     42  H13 CCK d   1     -23.938 -13.264 -23.379  0.00  0.00     0.030 H 
ATOM     43  H14 CCK d   1     -24.595 -14.274 -22.046  0.00  0.00     0.030 H 
ENDBRANCH  38  40
BRANCH  38  44
ATOM     44  C51 CCK d   1     -27.349 -13.731 -22.735  0.00  0.00    -0.058 C 
ATOM     45  H15 CCK d   1     -27.413 -12.820 -22.121  0.00  0.00     0.030 H 
ATOM     46  H16 CCK d   1     -27.356 -14.615 -22.081  0.00  0.00     0.030 H 
ATOM     47  H17 CCK d   1     -28.210 -13.774 -23.418  0.00  0.00     0.030 H 
ENDBRANCH  38  44
ENDBRANCH  36  38
ENDBRANCH   8  36
TORSDOF 8
