REMARK  4 active torsions:
REMARK  status: ('A' for Active; 'I' for Inactive)
REMARK    1  A    between atoms: C1_3  and  N_1 
REMARK    2  A    between atoms: C6_8  and  O_2 
REMARK    3  A    between atoms: O_2  and  C7_9 
REMARK    4  A    between atoms: C2_4  and  C1_3 
ROOT
ATOM      1  C2  SZ4 d   1      -1.769 -13.995  16.770  0.00  0.00    -0.030 A 
ATOM      2  C3  SZ4 d   1      -1.218 -13.453  15.612  0.00  0.00    -0.075 A 
ATOM      3  C4  SZ4 d   1      -1.190 -14.193  14.436  0.00  0.00    -0.080 A 
ATOM      4  C5  SZ4 d   1      -1.722 -15.481  14.416  0.00  0.00    -0.051 A 
ATOM      5  C6  SZ4 d   1      -2.270 -16.027  15.576  0.00  0.00     0.068 A 
ATOM      6  C8  SZ4 d   1      -2.297 -15.286  16.753  0.00  0.00    -0.043 A 
ATOM      7  H6  SZ4 d   1      -0.809 -12.449  15.628  0.00  0.00     0.084 H 
ATOM      8  H7  SZ4 d   1      -0.756 -13.770  13.537  0.00  0.00     0.083 H 
ATOM      9  H8  SZ4 d   1      -1.710 -16.058  13.499  0.00  0.00     0.087 H 
ATOM     10  H12 SZ4 d   1      -2.727 -15.710  17.653  0.00  0.00     0.088 H 
ENDROOT
BRANCH   1  11
ATOM     11  C1  SZ4 d   1      -1.781 -13.174  18.039  0.00  0.00     0.103 C 
ATOM     12  H4  SZ4 d   1      -0.904 -13.441  18.647  0.00  0.00     0.082 H 
ATOM     13  H5  SZ4 d   1      -1.734 -12.107  17.776  0.00  0.00     0.082 H 
BRANCH  11  14
ATOM     14  N   SZ4 d   1      -2.981 -13.417  18.809  0.00  0.00    -0.075 N 
ATOM     15  H1  SZ4 d   1      -2.961 -12.857  19.647  0.00  0.00     0.274 HD
ATOM     16  H2  SZ4 d   1      -3.029 -14.393  19.057  0.00  0.00     0.274 HD
ATOM     17  H3  SZ4 d   1      -3.789 -13.170  18.259  0.00  0.00     0.274 HD
ENDBRANCH  11  14
ENDBRANCH   1  11
BRANCH   5  18
ATOM     18  O   SZ4 d   1      -2.789 -17.294  15.540  0.00  0.00    -0.356 OA
BRANCH  18  19
ATOM     19  C7  SZ4 d   1      -2.650 -18.177  16.653  0.00  0.00     0.010 C 
ATOM     20  H9  SZ4 d   1      -3.133 -19.138  16.422  0.00  0.00     0.066 H 
ATOM     21  H10 SZ4 d   1      -3.127 -17.730  17.538  0.00  0.00     0.066 H 
ATOM     22  H11 SZ4 d   1      -1.582 -18.344  16.858  0.00  0.00     0.066 H 
ENDBRANCH  18  19
ENDBRANCH   5  18
TORSDOF 4
