REMARK  1 active torsions:
REMARK  status: ('A' for Active; 'I' for Inactive)
REMARK    1  A    between atoms: N_1  and  C1_2 
ROOT
ATOM      1  C1  SZ1 d   1      -1.404 -14.048  16.880  0.00  0.00     0.100 C 
ATOM      2  C2  SZ1 d   1      -1.484 -13.593  15.422  0.00  0.00    -0.039 C 
ATOM      3  C3  SZ1 d   1      -0.582 -14.413  14.503  0.00  0.00    -0.063 C 
ATOM      4  C4  SZ1 d   1      -1.184 -15.765  14.145  0.00  0.00    -0.065 C 
ATOM      5  C5  SZ1 d   1      -1.459 -16.598  15.393  0.00  0.00    -0.065 C 
ATOM      6  C6  SZ1 d   1      -2.713 -16.148  16.127  0.00  0.00    -0.063 C 
ATOM      7  C7  SZ1 d   1      -2.424 -15.135  17.234  0.00  0.00    -0.039 C 
ATOM      8  H4  SZ1 d   1      -0.396 -14.450  17.057  0.00  0.00     0.083 H 
ATOM      9  H5  SZ1 d   1      -1.180 -12.537  15.365  0.00  0.00     0.036 H 
ATOM     10  H6  SZ1 d   1      -2.524 -13.694  15.078  0.00  0.00     0.036 H 
ATOM     11  H7  SZ1 d   1       0.380 -14.579  15.010  0.00  0.00     0.033 H 
ATOM     12  H8  SZ1 d   1      -0.415 -13.845  13.576  0.00  0.00     0.033 H 
ATOM     13  H9  SZ1 d   1      -0.481 -16.310  13.498  0.00  0.00     0.033 H 
ATOM     14  H10 SZ1 d   1      -2.129 -15.605  13.606  0.00  0.00     0.033 H 
ATOM     15  H11 SZ1 d   1      -0.600 -16.508  16.074  0.00  0.00     0.033 H 
ATOM     16  H12 SZ1 d   1      -1.582 -17.650  15.095  0.00  0.00     0.033 H 
ATOM     17  H13 SZ1 d   1      -3.193 -17.030  16.576  0.00  0.00     0.033 H 
ATOM     18  H14 SZ1 d   1      -3.399 -15.688  15.400  0.00  0.00     0.033 H 
ATOM     19  H15 SZ1 d   1      -3.370 -14.640  17.496  0.00  0.00     0.036 H 
ATOM     20  H16 SZ1 d   1      -2.044 -15.686  18.107  0.00  0.00     0.036 H 
ENDROOT
BRANCH   1  21
ATOM     21  N   SZ1 d   1      -1.622 -12.907  17.758  0.00  0.00    -0.075 N 
ATOM     22  H1  SZ1 d   1      -0.958 -12.182  17.538  0.00  0.00     0.274 HD
ATOM     23  H2  SZ1 d   1      -1.501 -13.193  18.717  0.00  0.00     0.274 HD
ATOM     24  H3  SZ1 d   1      -2.558 -12.556  17.627  0.00  0.00     0.274 HD
ENDBRANCH   1  21
TORSDOF 1
