REMARK  2 active torsions:
REMARK  status: ('A' for Active; 'I' for Inactive)
REMARK    1  A    between atoms: C1_1  and  C_7 
REMARK    2  A    between atoms: C_7  and  N1_8 
ROOT
ATOM      1  C1  BEN d   1      -1.777 -14.186  16.808  0.00  0.00     0.007 A 
ATOM      2  C2  BEN d   1      -2.112 -15.538  16.692  0.00  0.00    -0.069 A 
ATOM      3  C3  BEN d   1      -1.827 -16.240  15.523  0.00  0.00    -0.082 A 
ATOM      4  C4  BEN d   1      -1.200 -15.611  14.454  0.00  0.00    -0.083 A 
ATOM      5  C5  BEN d   1      -0.863 -14.268  14.558  0.00  0.00    -0.082 A 
ATOM      6  C6  BEN d   1      -1.150 -13.565  15.723  0.00  0.00    -0.069 A 
ATOM      7  H1  BEN d   1      -2.598 -16.044  17.518  0.00  0.00     0.085 H 
ATOM      8  H2  BEN d   1      -2.097 -17.287  15.446  0.00  0.00     0.083 H 
ATOM      9  H3  BEN d   1      -0.976 -16.163  13.548  0.00  0.00     0.083 H 
ATOM     10  H4  BEN d   1      -0.375 -13.767  13.730  0.00  0.00     0.083 H 
ATOM     11  H5  BEN d   1      -0.883 -12.517  15.791  0.00  0.00     0.085 H 
ENDROOT
BRANCH   1  12
ATOM     12  C   BEN d   1      -2.085 -13.411  18.070  0.00  0.00     0.102 C 
ATOM     13  N2  BEN d   1      -2.820 -13.863  18.987  0.00  0.00    -0.385 N 
ATOM     14  H8  BEN d   1      -3.234 -14.802  18.899  0.00  0.00     0.157 HD
ATOM     15  H9  BEN d   1      -3.007 -13.294  19.825  0.00  0.00     0.157 HD
BRANCH  12  16
ATOM     16  N1  BEN d   1      -1.600 -12.196  18.274  0.00  0.00    -0.385 N 
ATOM     17  H6  BEN d   1      -1.826 -11.691  19.143  0.00  0.00     0.157 HD
ATOM     18  H7  BEN d   1      -0.997 -11.756  17.564  0.00  0.00     0.157 HD
ENDBRANCH  12  16
ENDBRANCH   1  12
TORSDOF 2
