REMARK  3 active torsions:
REMARK  status: ('A' for Active; 'I' for Inactive)
REMARK    1  A    between atoms: N1_1  and  CA_2 
REMARK    2  A    between atoms: CA_2  and  CB_3 
REMARK    3  A    between atoms: CB_3  and  CG_4 
ROOT
ATOM      1  CG  TSS d   1      -1.160 -15.230  15.461  0.00  0.00    -0.029 A 
ATOM      2  CD1 TSS d   1      -0.632 -15.281  14.175  0.00  0.00    -0.015 A 
ATOM      3  NE1 TSS d   1      -1.136 -16.351  13.494  0.00  0.00    -0.365 N 
ATOM      4  CE2 TSS d   1      -1.991 -17.056  14.253  0.00  0.00     0.042 A 
ATOM      5  CD2 TSS d   1      -2.063 -16.391  15.562  0.00  0.00    -0.002 A 
ATOM      6  CZ2 TSS d   1      -2.759 -18.198  14.054  0.00  0.00    -0.056 A 
ATOM      7  CH2 TSS d   1      -3.563 -18.674  15.092  0.00  0.00    -0.081 A 
ATOM      8  CZ3 TSS d   1      -3.618 -18.029  16.336  0.00  0.00    -0.082 A 
ATOM      9  CE3 TSS d   1      -2.866 -16.879  16.581  0.00  0.00    -0.070 A 
ATOM     10  H8  TSS d   1       0.083 -14.567  13.769  0.00  0.00     0.112 H 
ATOM     11  H9  TSS d   1      -0.892 -16.588  12.522  0.00  0.00     0.165 HD
ATOM     12  H10 TSS d   1      -2.734 -18.714  13.101  0.00  0.00     0.086 H 
ATOM     13  H11 TSS d   1      -4.160 -19.565  14.932  0.00  0.00     0.083 H 
ATOM     14  H12 TSS d   1      -4.253 -18.429  17.118  0.00  0.00     0.083 H 
ATOM     15  H13 TSS d   1      -2.909 -16.381  17.543  0.00  0.00     0.084 H 
ENDROOT
BRANCH   1  16
ATOM     16  CB  TSS d   1      -0.854 -14.222  16.532  0.00  0.00    -0.017 C 
ATOM     17  H6  TSS d   1      -0.570 -14.752  17.453  0.00  0.00     0.042 H 
ATOM     18  H7  TSS d   1      -0.018 -13.589  16.200  0.00  0.00     0.042 H 
BRANCH  16  19
ATOM     19  CA  TSS d   1      -2.056 -13.343  16.819  0.00  0.00     0.083 C 
ATOM     20  H4  TSS d   1      -2.180 -12.610  16.008  0.00  0.00     0.075 H 
ATOM     21  H5  TSS d   1      -2.960 -13.965  16.893  0.00  0.00     0.075 H 
BRANCH  19  22
ATOM     22  N1  TSS d   1      -1.838 -12.649  18.074  0.00  0.00    -0.079 N 
ATOM     23  H1  TSS d   1      -2.632 -12.061  18.275  0.00  0.00     0.274 HD
ATOM     24  H2  TSS d   1      -1.008 -12.081  18.004  0.00  0.00     0.274 HD
ATOM     25  H3  TSS d   1      -1.723 -13.323  18.815  0.00  0.00     0.274 HD
ENDBRANCH  19  22
ENDBRANCH  16  19
ENDBRANCH   1  16
TORSDOF 3
