REMARK  4 active torsions:
REMARK  status: ('A' for Active; 'I' for Inactive)
REMARK    1  A    between atoms: N_1  and  CA_2 
REMARK    2  A    between atoms: CA_2  and  C_3 
REMARK    3  A    between atoms: CA_2  and  CB_5 
REMARK    4  A    between atoms: CB_5  and  OG_6 
ROOT
ATOM      1  CA  SER d   1      45.400  12.399   6.092  0.00  0.00     0.202 C 
ATOM      2  H   SER d   1      44.910  12.601   5.140  0.00  0.00     0.104 H 
ENDROOT
BRANCH   1   3
ATOM      3  N   SER d   1      46.824  12.033   5.867  0.00  0.00    -0.063 N 
ATOM      4  H   SER d   1      47.304  12.806   5.407  0.00  0.00     0.275 HD
ATOM      5  H   SER d   1      47.270  11.840   6.764  0.00  0.00     0.275 HD
ATOM      6  H   SER d   1      46.871  11.203   5.277  0.00  0.00     0.275 HD
ENDBRANCH   1   3
BRANCH   1   7
ATOM      7  C   SER d   1      45.342  13.656   6.969  0.00  0.00     0.206 C 
ATOM      8  O   SER d   1      44.294  14.337   6.989  0.00  0.00    -0.646 OA
ATOM      9  OXT SER d   1      46.364  13.947   7.626  0.00  0.00    -0.646 OA
ENDBRANCH   1   7
BRANCH   1  10
ATOM     10  CB  SER d   1      44.679  11.238   6.783  0.00  0.00     0.053 C 
ATOM     11  H   SER d   1      44.977  11.222   7.831  0.00  0.00     0.077 H 
ATOM     12  H   SER d   1      44.950  10.312   6.275  0.00  0.00     0.077 H 
BRANCH  10  13
ATOM     13  OG  SER d   1      43.273  11.388   6.720  0.00  0.00    -0.398 OA
ATOM     14  H   SER d   1      43.020  12.205   7.155  0.00  0.00     0.209 HD
ENDBRANCH  10  13
ENDBRANCH   1  10
TORSDOF 4
