REMARK  8 active torsions:
REMARK  status: ('A' for Active; 'I' for Inactive)
REMARK    1  A    between atoms: O3A_8  and  PB_1 
REMARK    2  A    between atoms: PA_5  and  O3A_8 
REMARK    3  A    between atoms: PA_5  and  O5'_9 
REMARK    4  A    between atoms: O5'_9  and  C5'_10 
REMARK    5  A    between atoms: C5'_10  and  C4'_11 
REMARK    6  A    between atoms: C3'_13  and  O3'_14 
REMARK    7  A    between atoms: C2'_15  and  O2'_16 
REMARK    8  A    between atoms: C1'_17  and  N9_18 
ROOT
ATOM      1  C4' ADP d   1       5.584  17.870  16.637  0.00  0.00     0.089 C 
ATOM      2  O4' ADP d   1       5.005  18.493  15.495  0.00  0.00    -0.353 OA
ATOM      3  C3' ADP d   1       5.925  18.950  17.656  0.00  0.00     0.091 C 
ATOM      4  C2' ADP d   1       5.188  20.162  17.113  0.00  0.00     0.105 C 
ATOM      5  C1' ADP d   1       5.284  19.875  15.616  0.00  0.00     0.139 C 
ATOM      6  H3  ADP d   1       6.509  17.347  16.353  0.00  0.00     0.090 H 
ATOM      7  H4  ADP d   1       5.592  18.693  18.673  0.00  0.00     0.091 H 
ATOM      8  H6  ADP d   1       4.137  20.134  17.436  0.00  0.00     0.093 H 
ATOM      9  H8  ADP d   1       6.296  20.108  15.253  0.00  0.00     0.122 H 
ENDROOT
BRANCH   5  10
ATOM     10  N9  ADP d   1       4.309  20.600  14.820  0.00  0.00    -0.294 N 
ATOM     11  C8  ADP d   1       2.945  20.571  14.908  0.00  0.00     0.071 A 
ATOM     12  N7  ADP d   1       2.417  21.396  13.973  0.00  0.00    -0.236 NA
ATOM     13  H9  ADP d   1       2.373  19.977  15.619  0.00  0.00     0.144 H 
ATOM     14  C5  ADP d   1       3.447  21.930  13.279  0.00  0.00     0.149 A 
ATOM     15  C6  ADP d   1       3.572  22.897  12.187  0.00  0.00     0.155 A 
ATOM     16  C4  ADP d   1       4.681  21.414  13.840  0.00  0.00     0.167 A 
ATOM     17  N6  ADP d   1       2.446  23.411  11.648  0.00  0.00    -0.382 N 
ATOM     18  N1  ADP d   1       4.821  23.198  11.744  0.00  0.00    -0.222 NA
ATOM     19  H10 ADP d   1       2.508  24.093  10.879  0.00  0.00     0.157 HD
ATOM     20  H11 ADP d   1       1.525  23.121  12.006  0.00  0.00     0.157 HD
ATOM     21  C2  ADP d   1       5.926  22.669  12.300  0.00  0.00     0.091 A 
ATOM     22  N3  ADP d   1       5.891  21.769  13.318  0.00  0.00    -0.222 NA
ATOM     23  H12 ADP d   1       6.893  22.976  11.917  0.00  0.00     0.146 H 
ENDBRANCH   5  10
BRANCH   4  24
ATOM     24  O2' ADP d   1       5.711  21.434  17.504  0.00  0.00    -0.388 OA
ATOM     25  H7  ADP d   1       5.685  21.509  18.451  0.00  0.00     0.210 HD
ENDBRANCH   4  24
BRANCH   1  26
ATOM     26  C5' ADP d   1       4.580  16.856  17.147  0.00  0.00     0.058 C 
ATOM     27  H1  ADP d   1       4.965  16.405  18.073  0.00  0.00     0.079 H 
ATOM     28  H2  ADP d   1       3.629  17.367  17.356  0.00  0.00     0.079 H 
BRANCH  26  29
ATOM     29  O5' ADP d   1       4.350  15.811  16.174  0.00  0.00    -0.287 OA
BRANCH  29  30
ATOM     30  PA  ADP d   1       3.088  14.816  16.354  0.00  0.00     0.418 P 
ATOM     31  O1A ADP d   1       3.091  13.914  15.135  0.00  0.00    -0.624 OA
ATOM     32  O2A ADP d   1       1.878  15.558  16.767  0.00  0.00    -0.624 OA
BRANCH  30  33
ATOM     33  O3A ADP d   1       3.541  14.004  17.696  0.00  0.00    -0.173 OA
BRANCH  33  34
ATOM     34  PB  ADP d   1       4.413  12.673  17.928  0.00  0.00     0.431 P 
ATOM     35  O1B ADP d   1       4.570  12.676  19.435  0.00  0.00    -0.616 OA
ATOM     36  O2B ADP d   1       3.598  11.542  17.377  0.00  0.00    -0.616 OA
ATOM     37  O3B ADP d   1       5.742  12.854  17.208  0.00  0.00    -0.616 OA
ENDBRANCH  33  34
ENDBRANCH  30  33
ENDBRANCH  29  30
ENDBRANCH  26  29
ENDBRANCH   1  26
BRANCH   3  38
ATOM     38  O3' ADP d   1       7.369  19.139  17.616  0.00  0.00    -0.390 OA
ATOM     39  H5  ADP d   1       7.617  19.809  18.242  0.00  0.00     0.210 HD
ENDBRANCH   3  38
TORSDOF 8
