REMARK  8 active torsions:
REMARK  status: ('A' for Active; 'I' for Inactive)
REMARK    1  A    between atoms: O3A_8  and  PB_1 
REMARK    2  A    between atoms: PA_5  and  O3A_8 
REMARK    3  A    between atoms: PA_5  and  O5'_9 
REMARK    4  A    between atoms: O5'_9  and  C5'_10 
REMARK    5  A    between atoms: C5'_10  and  C4'_11 
REMARK    6  A    between atoms: C3'_13  and  O3'_14 
REMARK    7  A    between atoms: C2'_15  and  O2'_16 
REMARK    8  A    between atoms: C1'_17  and  N9_18 
ROOT
ATOM      1  C4' ADP d   1      -5.548  14.097  16.746  0.00  0.00     0.089 C 
ATOM      2  O4' ADP d   1      -4.916  13.433  15.645  0.00  0.00    -0.353 OA
ATOM      3  C3' ADP d   1      -5.880  12.980  17.722  0.00  0.00     0.091 C 
ATOM      4  C2' ADP d   1      -5.124  11.765  17.179  0.00  0.00     0.105 C 
ATOM      5  C1' ADP d   1      -5.221  12.062  15.692  0.00  0.00     0.139 C 
ATOM      6  H3  ADP d   1      -6.465  14.617  16.432  0.00  0.00     0.090 H 
ATOM      7  H4  ADP d   1      -5.586  13.222  18.754  0.00  0.00     0.091 H 
ATOM      8  H6  ADP d   1      -4.079  11.780  17.523  0.00  0.00     0.093 H 
ATOM      9  H8  ADP d   1      -6.234  11.857  15.317  0.00  0.00     0.122 H 
ENDROOT
BRANCH   5  10
ATOM     10  N9  ADP d   1      -4.242  11.325  14.886  0.00  0.00    -0.294 N 
ATOM     11  C8  ADP d   1      -2.895  11.391  14.995  0.00  0.00     0.071 A 
ATOM     12  N7  ADP d   1      -2.298  10.588  14.081  0.00  0.00    -0.236 NA
ATOM     13  H9  ADP d   1      -2.363  12.006  15.719  0.00  0.00     0.144 H 
ATOM     14  C5  ADP d   1      -3.292   9.990  13.381  0.00  0.00     0.149 A 
ATOM     15  C6  ADP d   1      -3.339   9.027  12.284  0.00  0.00     0.155 A 
ATOM     16  C4  ADP d   1      -4.567  10.496  13.902  0.00  0.00     0.167 A 
ATOM     17  N6  ADP d   1      -2.173   8.533  11.777  0.00  0.00    -0.382 N 
ATOM     18  N1  ADP d   1      -4.570   8.683  11.827  0.00  0.00    -0.222 NA
ATOM     19  H10 ADP d   1      -2.195   7.853  11.003  0.00  0.00     0.157 HD
ATOM     20  H11 ADP d   1      -1.271   8.840  12.168  0.00  0.00     0.157 HD
ATOM     21  C2  ADP d   1      -5.708   9.180  12.352  0.00  0.00     0.091 A 
ATOM     22  N3  ADP d   1      -5.746  10.074  13.359  0.00  0.00    -0.222 NA
ATOM     23  H12 ADP d   1      -6.650   8.839  11.938  0.00  0.00     0.146 H 
ENDBRANCH   5  10
BRANCH   4  24
ATOM     24  O2' ADP d   1      -5.673  10.484  17.494  0.00  0.00    -0.388 OA
ATOM     25  H7  ADP d   1      -5.699  10.375  18.437  0.00  0.00     0.210 HD
ENDBRANCH   4  24
BRANCH   1  26
ATOM     26  C5' ADP d   1      -4.551  15.102  17.307  0.00  0.00     0.058 C 
ATOM     27  H1  ADP d   1      -4.959  15.541  18.230  0.00  0.00     0.079 H 
ATOM     28  H2  ADP d   1      -3.606  14.587  17.533  0.00  0.00     0.079 H 
BRANCH  26  29
ATOM     29  O5' ADP d   1      -4.306  16.142  16.360  0.00  0.00    -0.287 OA
BRANCH  29  30
ATOM     30  PA  ADP d   1      -2.981  17.040  16.427  0.00  0.00     0.418 P 
ATOM     31  O1A ADP d   1      -2.826  17.663  15.051  0.00  0.00    -0.624 OA
ATOM     32  O2A ADP d   1      -1.823  16.264  16.997  0.00  0.00    -0.624 OA
BRANCH  30  33
ATOM     33  O3A ADP d   1      -3.224  18.212  17.505  0.00  0.00    -0.173 OA
BRANCH  33  34
ATOM     34  PB  ADP d   1      -4.505  18.942  18.200  0.00  0.00     0.431 P 
ATOM     35  O1B ADP d   1      -3.837  19.650  19.368  0.00  0.00    -0.616 OA
ATOM     36  O2B ADP d   1      -5.246  19.803  17.223  0.00  0.00    -0.616 OA
ATOM     37  O3B ADP d   1      -5.411  17.823  18.684  0.00  0.00    -0.616 OA
ENDBRANCH  33  34
ENDBRANCH  30  33
ENDBRANCH  29  30
ENDBRANCH  26  29
ENDBRANCH   1  26
BRANCH   3  38
ATOM     38  O3' ADP d   1      -7.280  12.742  17.620  0.00  0.00    -0.390 OA
ATOM     39  H5  ADP d   1      -7.526  12.046  18.218  0.00  0.00     0.210 HD
ENDBRANCH   3  38
TORSDOF 8
