REMARK  19 active torsions:
REMARK  status: ('A' for Active; 'I' for Inactive)
REMARK    1  A    between atoms: C_1  and  CH3_3 
REMARK       I    between atoms: C_1  and  N_4 
REMARK    2  A    between atoms: N_4  and  CA_5 
REMARK    3  A    between atoms: CA_5  and  C_6 
REMARK    4  A    between atoms: CA_5  and  CB_8 
REMARK       I    between atoms: C_6  and  N_11 
REMARK    5  A    between atoms: CB_8  and  OG1_9 
REMARK    6  A    between atoms: CB_8  and  CG2_10 
REMARK    7  A    between atoms: N_11  and  CA_12 
REMARK    8  A    between atoms: CA_12  and  C_13 
REMARK    9  A    between atoms: CA_12  and  CB_15 
REMARK       I    between atoms: C_13  and  N_18 
REMARK   10  A    between atoms: CB_15  and  CG1_16 
REMARK   11  A    between atoms: CB_15  and  CG2_17 
REMARK   12  A    between atoms: N_18  and  CA_19 
REMARK   13  A    between atoms: CA_19  and  C_20 
REMARK   14  A    between atoms: CA_19  and  CB_22 
REMARK       I    between atoms: C_20  and  N_29 
REMARK   15  A    between atoms: CB_22  and  CG_23 
REMARK   16  A    between atoms: N_29  and  CA_30 
REMARK   17  A    between atoms: CA_30  and  CB_31 
REMARK   18  A    between atoms: CA_30  and  C_37 
REMARK   19  A    between atoms: CB_31  and  CG_32 
ROOT
ATOM      1  CA  ALC d   1       2.228  14.674  -9.722  0.00  0.00     0.089 C 
ATOM      2  H21 ALC d   1       2.669  13.741  -9.342  0.00  0.00     0.087 H 
ENDROOT
BRANCH   1   3
ATOM      3  N   ALC d   1       1.807  14.511 -11.114  0.00  0.00    -0.346 N 
ATOM      4  C   VAL d   1       1.258  13.389 -11.596  0.00  0.00     0.241 C 
ATOM      5  O   VAL d   1       1.053  12.355 -10.953  0.00  0.00    -0.271 OA
ATOM      6  H20 ALC d   1       1.937  15.280 -11.740  0.00  0.00     0.163 HD
BRANCH   4   7
ATOM      7  CA  VAL d   1       0.861  13.481 -13.077  0.00  0.00     0.092 C 
ATOM      8  H12 VAL d   1       1.261  14.418 -13.493  0.00  0.00     0.088 H 
BRANCH   7   9
ATOM      9  N   VAL d   1       1.433  12.354 -13.810  0.00  0.00    -0.346 N 
ATOM     10  C   THR d   1       2.383  12.517 -14.719  0.00  0.00     0.243 C 
ATOM     11  O   THR d   1       2.863  13.603 -15.040  0.00  0.00    -0.271 OA
ATOM     12  H11 VAL d   1       1.097  11.431 -13.620  0.00  0.00     0.163 HD
BRANCH  10  13
ATOM     13  CA  THR d   1       2.827  11.231 -15.413  0.00  0.00     0.113 C 
ATOM     14  H5  THR d   1       2.235  10.384 -15.037  0.00  0.00     0.091 H 
BRANCH  13  15
ATOM     15  N   THR d   1       2.550  11.426 -16.853  0.00  0.00    -0.346 N 
ATOM     16  C   ACE d   1       1.353  11.160 -17.398  0.00  0.00     0.214 C 
ATOM     17  O   ACE d   1       0.389  10.686 -16.788  0.00  0.00    -0.274 OA
ATOM     18  H4  THR d   1       3.282  11.769 -17.442  0.00  0.00     0.163 HD
BRANCH  16  19
ATOM     19  CH3 ACE d   1       1.243  11.455 -18.895  0.00  0.00    -0.003 C 
ATOM     20  H1  ACE d   1       2.195  11.870 -19.258  0.00  0.00     0.040 H 
ATOM     21  H2  ACE d   1       0.437  12.183 -19.067  0.00  0.00     0.040 H 
ATOM     22  H3  ACE d   1       1.018  10.524 -19.437  0.00  0.00     0.040 H 
ENDBRANCH  16  19
ENDBRANCH  13  15
BRANCH  13  23
ATOM     23  CB  THR d   1       4.298  10.948 -15.146  0.00  0.00     0.060 C 
ATOM     24  H6  THR d   1       4.895  11.784 -15.538  0.00  0.00     0.086 H 
BRANCH  23  25
ATOM     25  OG1 THR d   1       4.659   9.758 -15.834  0.00  0.00    -0.393 OA
ATOM     26  H7  THR d   1       5.576   9.568 -15.676  0.00  0.00     0.210 HD
ENDBRANCH  23  25
BRANCH  23  27
ATOM     27  CG2 THR d   1       4.591  10.806 -13.650  0.00  0.00    -0.050 C 
ATOM     28  H8  THR d   1       5.662  10.603 -13.504  0.00  0.00     0.031 H 
ATOM     29  H9  THR d   1       4.000   9.974 -13.238  0.00  0.00     0.031 H 
ATOM     30  H10 THR d   1       4.321  11.739 -13.133  0.00  0.00     0.031 H 
ENDBRANCH  23  27
ENDBRANCH  13  23
ENDBRANCH  10  13
ENDBRANCH   7   9
BRANCH   7  31
ATOM     31  CB  VAL d   1      -0.685  13.484 -13.237  0.00  0.00    -0.033 C 
ATOM     32  H13 VAL d   1      -1.076  12.624 -12.674  0.00  0.00     0.042 H 
BRANCH  31  33
ATOM     33  CG1 VAL d   1      -1.300  14.757 -12.649  0.00  0.00    -0.071 C 
ATOM     34  H14 VAL d   1      -2.392  14.730 -12.777  0.00  0.00     0.028 H 
ATOM     35  H15 VAL d   1      -0.892  15.636 -13.170  0.00  0.00     0.028 H 
ATOM     36  H16 VAL d   1      -1.058  14.820 -11.578  0.00  0.00     0.028 H 
ENDBRANCH  31  33
BRANCH  31  37
ATOM     37  CG2 VAL d   1      -1.131  13.328 -14.701  0.00  0.00    -0.071 C 
ATOM     38  H17 VAL d   1      -0.689  12.414 -15.123  0.00  0.00     0.028 H 
ATOM     39  H18 VAL d   1      -0.795  14.200 -15.282  0.00  0.00     0.028 H 
ATOM     40  H19 VAL d   1      -2.228  13.259 -14.745  0.00  0.00     0.028 H 
ENDBRANCH  31  37
ENDBRANCH   7  31
ENDBRANCH   4   7
ENDBRANCH   1   3
BRANCH   1  41
ATOM     41  C   ALC d   1       0.952  15.017  -8.989  0.00  0.00     0.241 C 
ATOM     42  O   ALC d   1       0.194  15.872  -9.453  0.00  0.00    -0.271 OA
ATOM     43  N   HSV d   1       0.705  14.329  -7.884  0.00  0.00    -0.344 N 
ATOM     44  H35 HSV d   1       1.347  13.632  -7.564  0.00  0.00     0.163 HD
BRANCH  43  45
ATOM     45  CA  HSV d   1      -0.537  14.611  -7.133  0.00  0.00     0.101 C 
ATOM     46  H36 HSV d   1      -1.255  15.098  -7.809  0.00  0.00     0.090 H 
BRANCH  45  47
ATOM     47  CB  HSV d   1      -1.176  13.291  -6.647  0.00  0.00     0.005 C 
ATOM     48  H37 HSV d   1      -1.799  13.493  -5.763  0.00  0.00     0.046 H 
ATOM     49  H38 HSV d   1      -0.381  12.579  -6.380  0.00  0.00     0.046 H 
BRANCH  47  50
ATOM     50  CG  HSV d   1      -2.044  12.688  -7.748  0.00  0.00     0.053 A 
ATOM     51  ND1 HSV d   1      -2.480  11.431  -7.800  0.00  0.00    -0.247 NA
ATOM     52  CE1 HSV d   1      -3.214  11.291  -8.904  0.00  0.00     0.064 A 
ATOM     53  NE2 HSV d   1      -3.238  12.464  -9.538  0.00  0.00    -0.359 N 
ATOM     54  H40 HSV d   1      -3.708  10.377  -9.231  0.00  0.00     0.143 H 
ATOM     55  CD2 HSV d   1      -2.518  13.321  -8.818  0.00  0.00     0.002 A 
ATOM     56  H41 HSV d   1      -3.724  12.669 -10.422  0.00  0.00     0.166 HD
ATOM     57  H39 HSV d   1      -2.345  14.368  -9.064  0.00  0.00     0.114 H 
ENDBRANCH  47  50
ENDBRANCH  45  47
BRANCH  45  58
ATOM     58  C   HSV d   1      -0.204  15.605  -5.999  0.00  0.00     0.197 C 
ATOM     59  O   HSV d   1      -0.925  15.782  -5.019  0.00  0.00    -0.646 OA
ATOM     60  O1  HSV d   1       0.863  16.270  -6.082  0.00  0.00    -0.646 OA
ENDBRANCH  45  58
ENDBRANCH  43  45
ENDBRANCH   1  41
BRANCH   1  61
ATOM     61  CB  ALC d   1       3.231  15.836  -9.535  0.00  0.00    -0.035 C 
ATOM     62  H22 ALC d   1       3.417  15.959  -8.458  0.00  0.00     0.037 H 
ATOM     63  H23 ALC d   1       2.773  16.753  -9.935  0.00  0.00     0.037 H 
BRANCH  61  64
ATOM     64  CG  ALC d   1       4.588  15.629 -10.238  0.00  0.00    -0.052 C 
ATOM     65  CD2 ALC d   1       5.555  16.730  -9.752  0.00  0.00    -0.062 C 
ATOM     66  CE2 ALC d   1       6.997  16.597 -10.299  0.00  0.00    -0.065 C 
ATOM     67  H25 ALC d   1       5.598  16.691  -8.654  0.00  0.00     0.033 H 
ATOM     68  H26 ALC d   1       5.155  17.704 -10.069  0.00  0.00     0.033 H 
ATOM     69  CZ  ALC d   1       7.558  15.174 -10.163  0.00  0.00    -0.065 C 
ATOM     70  H27 ALC d   1       7.649  17.286  -9.742  0.00  0.00     0.033 H 
ATOM     71  H28 ALC d   1       6.996  16.874 -11.364  0.00  0.00     0.033 H 
ATOM     72  CE1 ALC d   1       6.569  14.067 -10.621  0.00  0.00    -0.065 C 
ATOM     73  H29 ALC d   1       7.810  14.999  -9.107  0.00  0.00     0.033 H 
ATOM     74  H30 ALC d   1       8.470  15.100 -10.774  0.00  0.00     0.033 H 
ATOM     75  CD1 ALC d   1       5.184  14.226  -9.968  0.00  0.00    -0.062 C 
ATOM     76  H31 ALC d   1       6.981  13.085 -10.345  0.00  0.00     0.033 H 
ATOM     77  H32 ALC d   1       6.455  14.122 -11.714  0.00  0.00     0.033 H 
ATOM     78  H33 ALC d   1       4.505  13.464 -10.379  0.00  0.00     0.033 H 
ATOM     79  H34 ALC d   1       5.282  14.082  -8.882  0.00  0.00     0.033 H 
ATOM     80  H24 ALC d   1       4.441  15.736 -11.323  0.00  0.00     0.040 H 
ENDBRANCH  61  64
ENDBRANCH   1  61
TORSDOF 19
