REMARK  9 active torsions:
REMARK  status: ('A' for Active; 'I' for Inactive)
REMARK    1  A    between atoms: PG_1  and  O3B_5 
REMARK    2  A    between atoms: O3B_5  and  PB_6 
REMARK    3  A    between atoms: PB_6  and  O3A_9 
REMARK    4  A    between atoms: O3A_9  and  PA_10 
REMARK    5  A    between atoms: PA_10  and  O5'_13 
REMARK    6  A    between atoms: O5'_13  and  C5'_14 
REMARK    7  A    between atoms: C5'_14  and  C4'_15 
REMARK    8  A    between atoms: C1'_19  and  N9_20 
REMARK    9  A    between atoms: C2_27  and  N2_28 
ROOT
ATOM      1  C4' DG3 d   1      -1.500 -27.358   7.235  0.00  0.00     0.062 C 
ATOM      2  O4' DG3 d   1      -1.503 -27.782   8.617  0.00  0.00    -0.359 OA
ATOM      3  C3' DG3 d   1      -0.154 -26.645   7.061  0.00  0.00    -0.035 C 
ATOM      4  C2' DG3 d   1       0.045 -25.960   8.408  0.00  0.00    -0.021 C 
ATOM      5  C1' DG3 d   1      -0.820 -26.767   9.368  0.00  0.00     0.112 C 
ATOM      6  H3  DG3 d   1      -2.293 -26.602   7.133  0.00  0.00     0.086 H 
ATOM      7  H4  DG3 d   1      -0.199 -25.908   6.245  0.00  0.00     0.037 H 
ATOM      8  H5  DG3 d   1       0.653 -27.366   6.861  0.00  0.00     0.037 H 
ATOM      9  H6  DG3 d   1      -0.290 -24.913   8.367  0.00  0.00     0.039 H 
ATOM     10  H7  DG3 d   1       1.102 -25.995   8.711  0.00  0.00     0.039 H 
ATOM     11  H8  DG3 d   1      -1.549 -26.125   9.884  0.00  0.00     0.118 H 
ENDROOT
BRANCH   1  12
ATOM     12  C5' DG3 d   1      -1.812 -28.415   6.138  0.00  0.00     0.056 C 
ATOM     13  H1  DG3 d   1      -2.900 -28.579   6.142  0.00  0.00     0.079 H 
ATOM     14  H2  DG3 d   1      -1.510 -27.984   5.172  0.00  0.00     0.079 H 
BRANCH  12  15
ATOM     15  O5' DG3 d   1      -1.187 -29.698   6.246  0.00  0.00    -0.287 OA
BRANCH  15  16
ATOM     16  PA  DG3 d   1      -0.095 -30.283   5.236  0.00  0.00     0.417 P 
ATOM     17  O1A DG3 d   1      -0.730 -31.530   4.737  0.00  0.00    -0.624 OA
ATOM     18  O2A DG3 d   1       1.202 -30.310   6.035  0.00  0.00    -0.624 OA
BRANCH  16  19
ATOM     19  O3A DG3 d   1      -0.004 -29.261   3.978  0.00  0.00    -0.180 OA
BRANCH  19  20
ATOM     20  PB  DG3 d   1       1.355 -28.464   3.525  0.00  0.00     0.428 P 
ATOM     21  O1B DG3 d   1       2.138 -28.128   4.786  0.00  0.00    -0.624 OA
ATOM     22  O2B DG3 d   1       0.999 -27.268   2.687  0.00  0.00    -0.624 OA
BRANCH  20  23
ATOM     23  O3B DG3 d   1       2.186 -29.463   2.528  0.00  0.00    -0.173 OA
BRANCH  23  24
ATOM     24  PG  DG3 d   1       1.530 -30.799   1.877  0.00  0.00     0.431 P 
ATOM     25  O1G DG3 d   1       0.050 -30.560   1.630  0.00  0.00    -0.616 OA
ATOM     26  O2G DG3 d   1       1.806 -31.732   3.016  0.00  0.00    -0.616 OA
ATOM     27  O3G DG3 d   1       2.231 -31.154   0.595  0.00  0.00    -0.616 OA
ENDBRANCH  23  24
ENDBRANCH  20  23
ENDBRANCH  19  20
ENDBRANCH  16  19
ENDBRANCH  15  16
ENDBRANCH  12  15
ENDBRANCH   1  12
BRANCH   5  28
ATOM     28  N9  DG3 d   1       0.116 -27.356  10.322  0.00  0.00    -0.297 N 
ATOM     29  C8  DG3 d   1       0.867 -28.444  10.086  0.00  0.00     0.070 A 
ATOM     30  N7  DG3 d   1       1.656 -28.734  11.152  0.00  0.00    -0.234 NA
ATOM     31  H9  DG3 d   1       0.846 -29.018   9.161  0.00  0.00     0.144 H 
ATOM     32  C5  DG3 d   1       1.403 -27.809  12.089  0.00  0.00     0.171 A 
ATOM     33  C6  DG3 d   1       1.901 -27.534  13.459  0.00  0.00     0.292 A 
ATOM     34  C4  DG3 d   1       0.388 -26.894  11.530  0.00  0.00     0.161 A 
ATOM     35  O6  DG3 d   1       2.770 -28.273  14.009  0.00  0.00    -0.265 OA
ATOM     36  N1  DG3 d   1       1.369 -26.466  14.095  0.00  0.00    -0.154 N 
ATOM     37  C2  DG3 d   1       0.437 -25.657  13.534  0.00  0.00     0.680 A 
ATOM     38  H10 DG3 d   1       1.678 -26.263  15.024  0.00  0.00     0.187 HD
ATOM     39  N3  DG3 d   1      -0.054 -25.858  12.277  0.00  0.00    -0.174 N 
ATOM     40  H13 DG3 d   1      -0.765 -25.217  11.896  0.00  0.00     0.186 HD
BRANCH  37  41
ATOM     41  N2  DG3 d   1      -0.022 -24.606  14.259  0.00  0.00    -0.234 N 
ATOM     42  H11 DG3 d   1      -0.730 -23.974  13.859  0.00  0.00     0.174 HD
ATOM     43  H12 DG3 d   1       0.338 -24.440  15.210  0.00  0.00     0.174 HD
ENDBRANCH  37  41
ENDBRANCH   5  28
TORSDOF 9
