REMARK  22 active torsions:
REMARK  status: ('A' for Active; 'I' for Inactive)
REMARK    1  A    between atoms: CA_2  and  CB_5 
REMARK    2  A    between atoms: CB_5  and  OG_6 
REMARK    3  A    between atoms: CA_8  and  CB_11 
REMARK    4  A    between atoms: CA_13  and  CB_16 
REMARK    5  A    between atoms: CB_16  and  CG_17 
REMARK    6  A    between atoms: CG_17  and  CD_18 
REMARK    7  A    between atoms: CD_18  and  CE_19 
REMARK    8  A    between atoms: CE_19  and  NZ_20 
REMARK    9  A    between atoms: CA_22  and  CB_25 
REMARK   10  A    between atoms: CB_25  and  CG1_26 
REMARK   11  A    between atoms: CB_25  and  CG2_27 
REMARK   12  A    between atoms: CG1_26  and  CD1_28 
REMARK   13  A    between atoms: CA_30  and  CB_33 
REMARK   14  A    between atoms: CB_33  and  CG_34 
REMARK   15  A    between atoms: CA_38  and  CB_41 
REMARK   16  A    between atoms: CB_41  and  CG_42 
REMARK       I    between atoms: CG_42  and  ND2_44 
REMARK   17  A    between atoms: CA_46  and  CB_49 
REMARK   18  A    between atoms: CB_49  and  CG_50 
REMARK   19  A    between atoms: CG_50  and  CD1_51 
REMARK   20  A    between atoms: CG_50  and  CD2_52 
REMARK   21  A    between atoms: CA_54  and  CB_57 
REMARK   22  A    between atoms: CB_57  and  CG_58 
ROOT
ATOM      1  N   ASP d   1       9.565 -53.709   3.071  0.00  0.00    -0.344 N 
ATOM      2  N   ASP d   1      10.423 -46.017   1.088  0.00  0.00    -0.345 N 
ATOM      3  CA  ASP d   1      11.384 -46.212   0.018  0.00  0.00     0.098 C 
ATOM      4  C   ASP d   1      11.595 -47.674  -0.255  0.00  0.00     0.241 C 
ATOM      5  O   ASP d   1      12.386 -48.004  -1.129  0.00  0.00    -0.271 OA
ATOM      6  N   ASP d   1       8.137 -53.098   0.535  0.00  0.00    -0.346 N 
ATOM      7  CA  ASP d   1       8.410 -54.486   0.994  0.00  0.00     0.098 C 
ATOM      8  C   ASP d   1       8.793 -54.653   2.490  0.00  0.00     0.241 C 
ATOM      9  O   ASP d   1       8.357 -55.646   3.120  0.00  0.00    -0.271 OA
ATOM     10  H   ASP d   1       9.998 -52.987   2.495  0.00  0.00     0.163 HD
ATOM     11  H   ASP d   1      10.745 -46.016   2.056  0.00  0.00     0.163 HD
ATOM     12  H   ASP d   1      10.921 -45.707  -0.830  0.00  0.00     0.088 H 
ATOM     13  H   ASP d   1       8.597 -52.768  -0.314  0.00  0.00     0.163 HD
ATOM     14  H   ASP d   1       7.447 -54.991   0.921  0.00  0.00     0.088 H 
ATOM     15  CA  SER d   1       9.793 -53.709   4.553  0.00  0.00     0.109 C 
ATOM     16  C   SER d   1       9.122 -52.600   5.409  0.00  0.00     0.243 C 
ATOM     17  O   SER d   1       9.669 -52.165   6.465  0.00  0.00    -0.271 OA
ATOM     18  H   SER d   1       9.207 -54.579   4.849  0.00  0.00     0.090 H 
ATOM     19  N   ALA d   1       7.937 -52.167   4.946  0.00  0.00    -0.346 N 
ATOM     20  CA  ALA d   1       7.115 -51.087   5.552  0.00  0.00     0.086 C 
ATOM     21  C   ALA d   1       7.849 -49.743   5.649  0.00  0.00     0.240 C 
ATOM     22  O   ALA d   1       7.685 -48.976   6.647  0.00  0.00    -0.271 OA
ATOM     23  H   ALA d   1       7.571 -52.618   4.108  0.00  0.00     0.163 HD
ATOM     24  H   ALA d   1       6.290 -50.938   4.855  0.00  0.00     0.086 H 
ATOM     25  N   LYS d   1       8.622 -49.427   4.604  0.00  0.00    -0.346 N 
ATOM     26  CA  LYS d   1       9.272 -48.098   4.531  0.00  0.00     0.089 C 
ATOM     27  C   LYS d   1       8.813 -47.458   3.260  0.00  0.00     0.241 C 
ATOM     28  O   LYS d   1       8.484 -48.176   2.296  0.00  0.00    -0.271 OA
ATOM     29  H   LYS d   1       8.764 -50.104   3.854  0.00  0.00     0.163 HD
ATOM     30  H   LYS d   1       9.012 -47.514   5.414  0.00  0.00     0.087 H 
ATOM     31  N   ILE d   1       8.757 -46.124   3.232  0.00  0.00    -0.346 N 
ATOM     32  CA  ILE d   1       8.278 -45.396   2.036  0.00  0.00     0.092 C 
ATOM     33  C   ILE d   1       9.115 -45.837   0.828  0.00  0.00     0.241 C 
ATOM     34  O   ILE d   1       8.596 -46.003  -0.325  0.00  0.00    -0.271 OA
ATOM     35  H   ILE d   1       9.051 -45.595   4.053  0.00  0.00     0.163 HD
ATOM     36  H   ILE d   1       7.235 -45.638   1.834  0.00  0.00     0.088 H 
ATOM     37  N   ASN d   1      10.928 -48.521   0.536  0.00  0.00    -0.346 N 
ATOM     38  CA  ASN d   1      11.015 -49.969   0.407  0.00  0.00     0.097 C 
ATOM     39  C   ASN d   1       9.703 -50.516   1.010  0.00  0.00     0.241 C 
ATOM     40  O   ASN d   1       9.591 -50.906   2.231  0.00  0.00    -0.271 OA
ATOM     41  H   ASN d   1      10.329 -48.134   1.265  0.00  0.00     0.163 HD
ATOM     42  H   ASN d   1      11.116 -50.291  -0.629  0.00  0.00     0.088 H 
ATOM     43  N   LEU d   1       8.673 -50.465   0.177  0.00  0.00    -0.346 N 
ATOM     44  CA  LEU d   1       7.329 -50.798   0.680  0.00  0.00     0.089 C 
ATOM     45  C   LEU d   1       7.319 -52.263   1.181  0.00  0.00     0.241 C 
ATOM     46  O   LEU d   1       6.663 -52.584   2.191  0.00  0.00    -0.271 OA
ATOM     47  H   LEU d   1       8.809 -50.199  -0.798  0.00  0.00     0.163 HD
ATOM     48  H   LEU d   1       7.077 -50.169   1.534  0.00  0.00     0.087 H 
ENDROOT
BRANCH  26  49
ATOM     49  CB  LYS d   1      10.787 -48.236   4.462  0.00  0.00    -0.038 C 
ATOM     50  H   LYS d   1      11.175 -47.225   4.586  0.00  0.00     0.036 H 
ATOM     51  H   LYS d   1      10.987 -48.751   3.522  0.00  0.00     0.036 H 
BRANCH  49  52
ATOM     52  CG  LYS d   1      11.479 -49.065   5.529  0.00  0.00    -0.061 C 
ATOM     53  H   LYS d   1      12.546 -49.108   5.310  0.00  0.00     0.033 H 
ATOM     54  H   LYS d   1      11.053 -50.068   5.532  0.00  0.00     0.033 H 
BRANCH  52  55
ATOM     55  CD  LYS d   1      11.279 -48.440   6.890  0.00  0.00    -0.043 C 
ATOM     56  H   LYS d   1      10.247 -48.585   7.211  0.00  0.00     0.035 H 
ATOM     57  H   LYS d   1      11.492 -47.372   6.837  0.00  0.00     0.035 H 
BRANCH  55  58
ATOM     58  CE  LYS d   1      12.219 -49.097   7.886  0.00  0.00     0.080 C 
ATOM     59  H   LYS d   1      13.194 -48.615   7.814  0.00  0.00     0.075 H 
ATOM     60  H   LYS d   1      12.286 -50.160   7.652  0.00  0.00     0.075 H 
BRANCH  58  61
ATOM     61  NZ  LYS d   1      11.718 -48.948   9.277  0.00  0.00    -0.079 N 
ATOM     62  H   LYS d   1      12.368 -49.398   9.921  0.00  0.00     0.274 HD
ATOM     63  H   LYS d   1      11.642 -47.957   9.505  0.00  0.00     0.274 HD
ATOM     64  H   LYS d   1      10.801 -49.387   9.356  0.00  0.00     0.274 HD
ENDBRANCH  58  61
ENDBRANCH  55  58
ENDBRANCH  52  55
ENDBRANCH  49  52
ENDBRANCH  26  49
BRANCH  20  65
ATOM     65  CB  ALA d   1       6.483 -51.503   6.938  0.00  0.00    -0.049 C 
ATOM     66  H   ALA d   1       5.840 -52.372   6.797  0.00  0.00     0.030 H 
ATOM     67  H   ALA d   1       7.280 -51.749   7.640  0.00  0.00     0.030 H 
ATOM     68  H   ALA d   1       5.894 -50.674   7.331  0.00  0.00     0.030 H 
ENDBRANCH  20  65
BRANCH  32  69
ATOM     69  CB  ILE d   1       8.325 -43.838   2.278  0.00  0.00    -0.030 C 
ATOM     70  H   ILE d   1       8.262 -43.695   3.357  0.00  0.00     0.043 H 
BRANCH  69  71
ATOM     71  CG1 ILE d   1       7.129 -43.120   1.626  0.00  0.00    -0.063 C 
ATOM     72  H   ILE d   1       6.909 -43.630   0.688  0.00  0.00     0.033 H 
ATOM     73  H   ILE d   1       7.405 -42.074   1.492  0.00  0.00     0.033 H 
BRANCH  71  74
ATOM     74  CD1 ILE d   1       5.842 -43.160   2.496  0.00  0.00    -0.076 C 
ATOM     75  H   ILE d   1       5.552 -44.197   2.666  0.00  0.00     0.027 H 
ATOM     76  H   ILE d   1       6.036 -42.675   3.453  0.00  0.00     0.027 H 
ATOM     77  H   ILE d   1       5.038 -42.636   1.978  0.00  0.00     0.027 H 
ENDBRANCH  71  74
ENDBRANCH  69  71
BRANCH  69  78
ATOM     78  CG2 ILE d   1       9.626 -43.227   1.799  0.00  0.00    -0.071 C 
ATOM     79  H   ILE d   1      10.459 -43.680   2.337  0.00  0.00     0.028 H 
ATOM     80  H   ILE d   1       9.740 -43.409   0.730  0.00  0.00     0.028 H 
ATOM     81  H   ILE d   1       9.612 -42.153   1.986  0.00  0.00     0.028 H 
ENDBRANCH  69  78
ENDBRANCH  32  69
BRANCH  15  82
ATOM     82  CB  SER d   1      11.279 -53.965   4.943  0.00  0.00     0.044 C 
ATOM     83  H   SER d   1      11.566 -54.934   4.534  0.00  0.00     0.077 H 
ATOM     84  H   SER d   1      11.348 -53.920   6.030  0.00  0.00     0.077 H 
BRANCH  82  85
ATOM     85  OG  SER d   1      12.174 -52.991   4.413  0.00  0.00    -0.398 OA
ATOM     86  H   SER d   1      13.070 -53.200   4.685  0.00  0.00     0.209 HD
ENDBRANCH  82  85
ENDBRANCH  15  82
BRANCH   3  87
ATOM     87  CB  ASP d   1      12.789 -45.526   0.211  0.00  0.00     0.043 C 
ATOM     88  H   ASP d   1      12.640 -44.450   0.120  0.00  0.00     0.052 H 
ATOM     89  H   ASP d   1      13.460 -45.943  -0.540  0.00  0.00     0.052 H 
BRANCH  87  90
ATOM     90  CG  ASP d   1      13.415 -45.783   1.568  0.00  0.00     0.175 C 
ATOM     91  OD1 ASP d   1      14.602 -45.344   1.814  0.00  0.00    -0.648 OA
ATOM     92  OD2 ASP d   1      12.737 -46.401   2.430  0.00  0.00    -0.648 OA
ENDBRANCH  87  90
ENDBRANCH   3  87
BRANCH   7  93
ATOM     93  CB  ASP d   1       9.438 -55.169   0.070  0.00  0.00     0.043 C 
ATOM     94  H   ASP d   1       9.952 -55.934   0.652  0.00  0.00     0.052 H 
ATOM     95  H   ASP d   1      10.111 -54.398  -0.306  0.00  0.00     0.052 H 
BRANCH  93  96
ATOM     96  CG  ASP d   1       8.782 -55.865  -1.155  0.00  0.00     0.175 C 
ATOM     97  OD1 ASP d   1       7.522 -55.919  -1.247  0.00  0.00    -0.648 OA
ATOM     98  OD2 ASP d   1       9.550 -56.353  -2.027  0.00  0.00    -0.648 OA
ENDBRANCH  93  96
ENDBRANCH   7  93
BRANCH  38  99
ATOM     99  CB  ASN d   1      12.254 -50.497   1.099  0.00  0.00     0.036 C 
ATOM    100  H   ASN d   1      12.127 -50.358   2.173  0.00  0.00     0.051 H 
ATOM    101  H   ASN d   1      13.116 -49.954   0.711  0.00  0.00     0.051 H 
BRANCH  99 102
ATOM    102  CG  ASN d   1      12.475 -51.995   0.835  0.00  0.00     0.217 C 
ATOM    103  OD1 ASN d   1      11.923 -52.559  -0.119  0.00  0.00    -0.274 OA
ATOM    104  ND2 ASN d   1      13.287 -52.643   1.695  0.00  0.00    -0.370 N 
ATOM    105  H   ASN d   1      13.468 -53.639   1.573  0.00  0.00     0.159 HD
ATOM    106  H   ASN d   1      13.720 -52.137   2.467  0.00  0.00     0.159 HD
ENDBRANCH  99 102
ENDBRANCH  38  99
BRANCH  44 107
ATOM    107  CB  LEU d   1       6.254 -50.491  -0.383  0.00  0.00    -0.035 C 
ATOM    108  H   LEU d   1       5.353 -51.029  -0.088  0.00  0.00     0.037 H 
ATOM    109  H   LEU d   1       6.667 -50.788  -1.347  0.00  0.00     0.037 H 
BRANCH 107 110
ATOM    110  CG  LEU d   1       5.869 -49.000  -0.500  0.00  0.00    -0.059 C 
ATOM    111  H   LEU d   1       6.760 -48.414  -0.725  0.00  0.00     0.038 H 
BRANCH 110 112
ATOM    112  CD1 LEU d   1       4.807 -48.991  -1.548  0.00  0.00    -0.073 C 
ATOM    113  H   LEU d   1       5.213 -49.388  -2.478  0.00  0.00     0.028 H 
ATOM    114  H   LEU d   1       3.971 -49.610  -1.222  0.00  0.00     0.028 H 
ATOM    115  H   LEU d   1       4.464 -47.969  -1.707  0.00  0.00     0.028 H 
ENDBRANCH 110 112
BRANCH 110 116
ATOM    116  CD2 LEU d   1       5.302 -48.342   0.813  0.00  0.00    -0.073 C 
ATOM    117  H   LEU d   1       4.400 -48.870   1.122  0.00  0.00     0.028 H 
ATOM    118  H   LEU d   1       6.051 -48.406   1.603  0.00  0.00     0.028 H 
ATOM    119  H   LEU d   1       5.064 -47.296   0.620  0.00  0.00     0.028 H 
ENDBRANCH 110 116
ENDBRANCH 107 110
ENDBRANCH  44 107
TORSDOF 22
