REMARK  24 active torsions:
REMARK  status: ('A' for Active; 'I' for Inactive)
REMARK    1  A    between atoms: CA_2  and  CB_5 
REMARK    2  A    between atoms: CA_7  and  CB_10 
REMARK    3  A    between atoms: CB_10  and  CG_11 
REMARK    4  A    between atoms: CG_11  and  CD1_12 
REMARK    5  A    between atoms: CG_11  and  CD2_13 
REMARK    6  A    between atoms: CA_15  and  CB_18 
REMARK    7  A    between atoms: CB_18  and  CG_19 
REMARK    8  A    between atoms: CG_19  and  CD_20 
REMARK    9  A    between atoms: CD_20  and  CE_21 
REMARK   10  A    between atoms: CE_21  and  NZ_22 
REMARK   11  A    between atoms: CA_24  and  CB_27 
REMARK   12  A    between atoms: CB_27  and  CG1_28 
REMARK   13  A    between atoms: CB_27  and  CG2_29 
REMARK   14  A    between atoms: CG1_28  and  CD1_30 
REMARK   15  A    between atoms: CA_32  and  CB_35 
REMARK   16  A    between atoms: CB_35  and  CG_36 
REMARK   17  A    between atoms: CA_40  and  CB_43 
REMARK   18  A    between atoms: CB_43  and  CG_44 
REMARK       I    between atoms: CG_44  and  ND2_46 
REMARK   19  A    between atoms: CA_48  and  CB_51 
REMARK   20  A    between atoms: CB_51  and  CG_52 
REMARK   21  A    between atoms: CG_52  and  CD1_53 
REMARK   22  A    between atoms: CG_52  and  CD2_54 
REMARK   23  A    between atoms: CA_56  and  CB_59 
REMARK   24  A    between atoms: CB_59  and  CG_60 
ROOT
ATOM      1  N   ALA d   1       9.640 -53.634   2.767  0.00  0.00    -0.346 N 
ATOM      2  CA  ALA d   1      10.222 -53.504   4.133  0.00  0.00     0.086 C 
ATOM      3  C   ALA d   1       9.435 -52.586   5.089  0.00  0.00     0.240 C 
ATOM      4  O   ALA d   1       9.944 -52.227   6.196  0.00  0.00    -0.271 OA
ATOM      5  H   ALA d   1       9.934 -52.959   2.061  0.00  0.00     0.163 HD
ATOM      6  H   ALA d   1      10.166 -54.498   4.577  0.00  0.00     0.086 H 
ATOM      7  N   LEU d   1       8.218 -52.174   4.703  0.00  0.00    -0.346 N 
ATOM      8  CA  LEU d   1       7.346 -51.223   5.474  0.00  0.00     0.089 C 
ATOM      9  C   LEU d   1       7.832 -49.781   5.509  0.00  0.00     0.241 C 
ATOM     10  O   LEU d   1       7.472 -48.998   6.408  0.00  0.00    -0.271 OA
ATOM     11  N   LEU d   1       8.665 -50.460   0.107  0.00  0.00    -0.346 N 
ATOM     12  CA  LEU d   1       7.327 -50.776   0.654  0.00  0.00     0.089 C 
ATOM     13  C   LEU d   1       7.316 -52.232   1.165  0.00  0.00     0.241 C 
ATOM     14  O   LEU d   1       6.714 -52.529   2.205  0.00  0.00    -0.271 OA
ATOM     15  H   LEU d   1       7.857 -52.533   3.819  0.00  0.00     0.163 HD
ATOM     16  H   LEU d   1       6.416 -51.242   4.905  0.00  0.00     0.087 H 
ATOM     17  H   LEU d   1       8.775 -50.246  -0.884  0.00  0.00     0.163 HD
ATOM     18  H   LEU d   1       7.105 -50.119   1.495  0.00  0.00     0.087 H 
ATOM     19  N   LYS d   1       8.654 -49.425   4.531  0.00  0.00    -0.346 N 
ATOM     20  CA  LYS d   1       9.304 -48.088   4.514  0.00  0.00     0.089 C 
ATOM     21  C   LYS d   1       8.827 -47.432   3.262  0.00  0.00     0.241 C 
ATOM     22  O   LYS d   1       8.485 -48.133   2.312  0.00  0.00    -0.271 OA
ATOM     23  H   LYS d   1       8.844 -50.082   3.775  0.00  0.00     0.163 HD
ATOM     24  H   LYS d   1       9.067 -47.535   5.423  0.00  0.00     0.087 H 
ATOM     25  N   ILE d   1       8.827 -46.099   3.228  0.00  0.00    -0.346 N 
ATOM     26  CA  ILE d   1       8.278 -45.353   2.076  0.00  0.00     0.092 C 
ATOM     27  C   ILE d   1       9.111 -45.692   0.839  0.00  0.00     0.241 C 
ATOM     28  O   ILE d   1       8.577 -45.781  -0.320  0.00  0.00    -0.271 OA
ATOM     29  H   ILE d   1       9.215 -45.581   4.016  0.00  0.00     0.163 HD
ATOM     30  H   ILE d   1       7.248 -45.646   1.874  0.00  0.00     0.088 H 
ATOM     31  N   ASP d   1      10.424 -45.907   1.069  0.00  0.00    -0.345 N 
ATOM     32  CA  ASP d   1      11.356 -46.125  -0.046  0.00  0.00     0.098 C 
ATOM     33  C   ASP d   1      11.554 -47.578  -0.308  0.00  0.00     0.241 C 
ATOM     34  O   ASP d   1      12.388 -47.919  -1.178  0.00  0.00    -0.271 OA
ATOM     35  N   ASP d   1       8.058 -53.090   0.482  0.00  0.00    -0.346 N 
ATOM     36  CA  ASP d   1       8.241 -54.494   0.950  0.00  0.00     0.098 C 
ATOM     37  C   ASP d   1       8.756 -54.576   2.398  0.00  0.00     0.241 C 
ATOM     38  O   ASP d   1       8.353 -55.493   3.156  0.00  0.00    -0.271 OA
ATOM     39  H   ASP d   1      10.773 -45.918   2.027  0.00  0.00     0.163 HD
ATOM     40  H   ASP d   1      10.860 -45.619  -0.874  0.00  0.00     0.088 H 
ATOM     41  H   ASP d   1       8.512 -52.785  -0.379  0.00  0.00     0.163 HD
ATOM     42  H   ASP d   1       7.258 -54.964   0.947  0.00  0.00     0.088 H 
ATOM     43  N   ASN d   1      10.887 -48.421   0.480  0.00  0.00    -0.346 N 
ATOM     44  CA  ASN d   1      10.958 -49.870   0.263  0.00  0.00     0.097 C 
ATOM     45  C   ASN d   1       9.716 -50.456   0.906  0.00  0.00     0.241 C 
ATOM     46  O   ASN d   1       9.666 -50.819   2.107  0.00  0.00    -0.271 OA
ATOM     47  H   ASN d   1      10.320 -48.054   1.244  0.00  0.00     0.163 HD
ATOM     48  H   ASN d   1      10.980 -50.113  -0.799  0.00  0.00     0.088 H 
ENDROOT
BRANCH  20  49
ATOM     49  CB  LYS d   1      10.830 -48.227   4.396  0.00  0.00    -0.038 C 
ATOM     50  H   LYS d   1      11.230 -47.218   4.498  0.00  0.00     0.036 H 
ATOM     51  H   LYS d   1      11.011 -48.737   3.450  0.00  0.00     0.036 H 
BRANCH  49  52
ATOM     52  CG  LYS d   1      11.531 -49.062   5.459  0.00  0.00    -0.061 C 
ATOM     53  H   LYS d   1      12.591 -49.130   5.214  0.00  0.00     0.033 H 
ATOM     54  H   LYS d   1      11.080 -50.054   5.484  0.00  0.00     0.033 H 
BRANCH  52  55
ATOM     55  CD  LYS d   1      11.379 -48.409   6.846  0.00  0.00    -0.043 C 
ATOM     56  H   LYS d   1      10.338 -48.130   7.008  0.00  0.00     0.035 H 
ATOM     57  H   LYS d   1      12.001 -47.515   6.901  0.00  0.00     0.035 H 
BRANCH  55  58
ATOM     58  CE  LYS d   1      11.816 -49.405   7.918  0.00  0.00     0.080 C 
ATOM     59  H   LYS d   1      12.793 -49.790   7.624  0.00  0.00     0.075 H 
ATOM     60  H   LYS d   1      11.042 -50.169   7.985  0.00  0.00     0.075 H 
BRANCH  58  61
ATOM     61  NZ  LYS d   1      11.965 -48.809   9.268  0.00  0.00    -0.079 N 
ATOM     62  H   LYS d   1      12.257 -49.531   9.927  0.00  0.00     0.274 HD
ATOM     63  H   LYS d   1      12.668 -48.071   9.237  0.00  0.00     0.274 HD
ATOM     64  H   LYS d   1      11.072 -48.417   9.566  0.00  0.00     0.274 HD
ENDBRANCH  58  61
ENDBRANCH  55  58
ENDBRANCH  52  55
ENDBRANCH  49  52
ENDBRANCH  20  49
BRANCH   8  65
ATOM     65  CB  LEU d   1       7.094 -51.683   6.918  0.00  0.00    -0.035 C 
ATOM     66  H   LEU d   1       8.041 -51.565   7.445  0.00  0.00     0.037 H 
ATOM     67  H   LEU d   1       6.704 -52.699   6.850  0.00  0.00     0.037 H 
BRANCH  65  68
ATOM     68  CG  LEU d   1       6.055 -50.876   7.716  0.00  0.00    -0.059 C 
ATOM     69  H   LEU d   1       6.474 -49.879   7.848  0.00  0.00     0.038 H 
BRANCH  68  70
ATOM     70  CD1 LEU d   1       4.754 -50.741   6.970  0.00  0.00    -0.073 C 
ATOM     71  H   LEU d   1       4.931 -50.229   6.024  0.00  0.00     0.028 H 
ATOM     72  H   LEU d   1       4.343 -51.732   6.777  0.00  0.00     0.028 H 
ATOM     73  H   LEU d   1       4.051 -50.164   7.571  0.00  0.00     0.028 H 
ENDBRANCH  68  70
BRANCH  68  74
ATOM     74  CD2 LEU d   1       5.803 -51.498   9.137  0.00  0.00    -0.073 C 
ATOM     75  H   LEU d   1       5.435 -52.518   9.026  0.00  0.00     0.028 H 
ATOM     76  H   LEU d   1       6.737 -51.507   9.699  0.00  0.00     0.028 H 
ATOM     77  H   LEU d   1       5.063 -50.899   9.668  0.00  0.00     0.028 H 
ENDBRANCH  68  74
ENDBRANCH  65  68
ENDBRANCH   8  65
BRANCH  26  78
ATOM     78  CB  ILE d   1       8.232 -43.818   2.395  0.00  0.00    -0.030 C 
ATOM     79  H   ILE d   1       7.978 -43.697   3.448  0.00  0.00     0.043 H 
BRANCH  78  80
ATOM     80  CG1 ILE d   1       7.121 -43.113   1.605  0.00  0.00    -0.063 C 
ATOM     81  H   ILE d   1       7.022 -43.581   0.626  0.00  0.00     0.033 H 
ATOM     82  H   ILE d   1       7.376 -42.060   1.486  0.00  0.00     0.033 H 
BRANCH  80  83
ATOM     83  CD1 ILE d   1       5.806 -43.230   2.353  0.00  0.00    -0.076 C 
ATOM     84  H   ILE d   1       5.551 -44.283   2.474  0.00  0.00     0.027 H 
ATOM     85  H   ILE d   1       5.904 -42.763   3.333  0.00  0.00     0.027 H 
ATOM     86  H   ILE d   1       5.022 -42.728   1.787  0.00  0.00     0.027 H 
ENDBRANCH  80  83
ENDBRANCH  78  80
BRANCH  78  87
ATOM     87  CG2 ILE d   1       9.573 -43.187   2.209  0.00  0.00    -0.071 C 
ATOM     88  H   ILE d   1      10.292 -43.660   2.878  0.00  0.00     0.028 H 
ATOM     89  H   ILE d   1       9.895 -43.319   1.176  0.00  0.00     0.028 H 
ATOM     90  H   ILE d   1       9.508 -42.123   2.438  0.00  0.00     0.028 H 
ENDBRANCH  78  87
ENDBRANCH  26  78
BRANCH   2  91
ATOM     91  CB  ALA d   1      11.728 -53.008   4.022  0.00  0.00    -0.049 C 
ATOM     92  H   ALA d   1      11.746 -51.988   3.637  0.00  0.00     0.030 H 
ATOM     93  H   ALA d   1      12.191 -53.034   5.008  0.00  0.00     0.030 H 
ATOM     94  H   ALA d   1      12.276 -53.663   3.344  0.00  0.00     0.030 H 
ENDBRANCH   2  91
BRANCH  32  95
ATOM     95  CB  ASP d   1      12.764 -45.480   0.097  0.00  0.00     0.043 C 
ATOM     96  H   ASP d   1      12.646 -44.403  -0.020  0.00  0.00     0.052 H 
ATOM     97  H   ASP d   1      13.409 -45.928  -0.659  0.00  0.00     0.052 H 
BRANCH  95  98
ATOM     98  CG  ASP d   1      13.418 -45.733   1.482  0.00  0.00     0.175 C 
ATOM     99  OD1 ASP d   1      14.583 -45.266   1.755  0.00  0.00    -0.648 OA
ATOM    100  OD2 ASP d   1      12.770 -46.371   2.323  0.00  0.00    -0.648 OA
ENDBRANCH  95  98
ENDBRANCH  32  95
BRANCH  36 101
ATOM    101  CB  ASP d   1       9.160 -55.262  -0.008  0.00  0.00     0.043 C 
ATOM    102  H   ASP d   1       9.546 -56.131   0.524  0.00  0.00     0.052 H 
ATOM    103  H   ASP d   1       9.948 -54.582  -0.332  0.00  0.00     0.052 H 
BRANCH 101 104
ATOM    104  CG  ASP d   1       8.427 -55.764  -1.260  0.00  0.00     0.175 C 
ATOM    105  OD1 ASP d   1       7.170 -55.755  -1.260  0.00  0.00    -0.648 OA
ATOM    106  OD2 ASP d   1       9.122 -56.151  -2.249  0.00  0.00    -0.648 OA
ENDBRANCH 101 104
ENDBRANCH  36 101
BRANCH  44 107
ATOM    107  CB  ASN d   1      12.256 -50.464   0.816  0.00  0.00     0.036 C 
ATOM    108  H   ASN d   1      12.233 -50.378   1.902  0.00  0.00     0.051 H 
ATOM    109  H   ASN d   1      13.092 -49.919   0.378  0.00  0.00     0.051 H 
BRANCH 107 110
ATOM    110  CG  ASN d   1      12.412 -51.949   0.457  0.00  0.00     0.217 C 
ATOM    111  OD1 ASN d   1      11.444 -52.615   0.126  0.00  0.00    -0.274 OA
ATOM    112  ND2 ASN d   1      13.634 -52.453   0.531  0.00  0.00    -0.370 N 
ATOM    113  H   ASN d   1      13.795 -53.435   0.307  0.00  0.00     0.159 HD
ATOM    114  H   ASN d   1      14.414 -51.859   0.812  0.00  0.00     0.159 HD
ENDBRANCH 107 110
ENDBRANCH  44 107
BRANCH  12 115
ATOM    115  CB  LEU d   1       6.240 -50.530  -0.415  0.00  0.00    -0.035 C 
ATOM    116  H   LEU d   1       5.346 -51.067  -0.096  0.00  0.00     0.037 H 
ATOM    117  H   LEU d   1       6.644 -50.867  -1.370  0.00  0.00     0.037 H 
BRANCH 115 118
ATOM    118  CG  LEU d   1       5.843 -49.033  -0.585  0.00  0.00    -0.059 C 
ATOM    119  H   LEU d   1       6.766 -48.523  -0.859  0.00  0.00     0.038 H 
BRANCH 118 120
ATOM    120  CD1 LEU d   1       4.750 -48.937  -1.665  0.00  0.00    -0.073 C 
ATOM    121  H   LEU d   1       5.135 -49.329  -2.606  0.00  0.00     0.028 H 
ATOM    122  H   LEU d   1       3.882 -49.520  -1.355  0.00  0.00     0.028 H 
ATOM    123  H   LEU d   1       4.461 -47.894  -1.796  0.00  0.00     0.028 H 
ENDBRANCH 118 120
BRANCH 118 124
ATOM    124  CD2 LEU d   1       5.346 -48.306   0.688  0.00  0.00    -0.073 C 
ATOM    125  H   LEU d   1       4.458 -48.810   1.070  0.00  0.00     0.028 H 
ATOM    126  H   LEU d   1       6.130 -48.325   1.445  0.00  0.00     0.028 H 
ATOM    127  H   LEU d   1       5.101 -47.273   0.442  0.00  0.00     0.028 H 
ENDBRANCH 118 124
ENDBRANCH 115 118
ENDBRANCH  12 115
TORSDOF 24
