REMARK  25 active torsions:
REMARK  status: ('A' for Active; 'I' for Inactive)
REMARK    1  A    between atoms: CA_2  and  CB_5 
REMARK    2  A    between atoms: CB_5  and  OG_6 
REMARK    3  A    between atoms: CA_8  and  CB_11 
REMARK    4  A    between atoms: CB_11  and  CG_12 
REMARK    5  A    between atoms: CG_12  and  CD1_13 
REMARK    6  A    between atoms: CG_12  and  CD2_14 
REMARK    7  A    between atoms: CA_16  and  CB_19 
REMARK    8  A    between atoms: CB_19  and  CG_20 
REMARK    9  A    between atoms: CG_20  and  CD_21 
REMARK   10  A    between atoms: CD_21  and  CE_22 
REMARK   11  A    between atoms: CE_22  and  NZ_23 
REMARK   12  A    between atoms: CA_25  and  CB_28 
REMARK   13  A    between atoms: CB_28  and  CG1_29 
REMARK   14  A    between atoms: CB_28  and  CG2_30 
REMARK   15  A    between atoms: CG1_29  and  CD1_31 
REMARK   16  A    between atoms: CA_33  and  CB_36 
REMARK   17  A    between atoms: CB_36  and  CG_37 
REMARK   18  A    between atoms: CA_41  and  CB_44 
REMARK   19  A    between atoms: CB_44  and  CG_45 
REMARK       I    between atoms: CG_45  and  ND2_47 
REMARK   20  A    between atoms: CA_49  and  CB_52 
REMARK   21  A    between atoms: CB_52  and  CG_53 
REMARK   22  A    between atoms: CG_53  and  CD1_54 
REMARK   23  A    between atoms: CG_53  and  CD2_55 
REMARK   24  A    between atoms: CA_57  and  CB_60 
REMARK   25  A    between atoms: CB_60  and  CG_61 
ROOT
ATOM      1  N   SER d   1       9.679 -53.636   2.862  0.00  0.00    -0.344 N 
ATOM      2  CA  SER d   1      10.063 -53.516   4.318  0.00  0.00     0.109 C 
ATOM      3  C   SER d   1       9.271 -52.536   5.200  0.00  0.00     0.243 C 
ATOM      4  O   SER d   1       9.749 -52.145   6.299  0.00  0.00    -0.271 OA
ATOM      5  H   SER d   1      10.106 -53.000   2.189  0.00  0.00     0.163 HD
ATOM      6  H   SER d   1       9.791 -54.507   4.681  0.00  0.00     0.090 H 
ATOM      7  N   LEU d   1       8.085 -52.135   4.720  0.00  0.00    -0.346 N 
ATOM      8  CA  LEU d   1       7.150 -51.188   5.384  0.00  0.00     0.089 C 
ATOM      9  C   LEU d   1       7.501 -49.694   5.209  0.00  0.00     0.241 C 
ATOM     10  O   LEU d   1       6.708 -48.819   5.590  0.00  0.00    -0.271 OA
ATOM     11  N   LEU d   1       8.651 -50.471   0.024  0.00  0.00    -0.346 N 
ATOM     12  CA  LEU d   1       7.320 -50.813   0.562  0.00  0.00     0.089 C 
ATOM     13  C   LEU d   1       7.326 -52.258   1.121  0.00  0.00     0.241 C 
ATOM     14  O   LEU d   1       6.720 -52.545   2.179  0.00  0.00    -0.271 OA
ATOM     15  H   LEU d   1       7.798 -52.514   3.817  0.00  0.00     0.163 HD
ATOM     16  H   LEU d   1       6.209 -51.318   4.850  0.00  0.00     0.087 H 
ATOM     17  H   LEU d   1       8.763 -50.218  -0.958  0.00  0.00     0.163 HD
ATOM     18  H   LEU d   1       7.091 -50.148   1.395  0.00  0.00     0.087 H 
ATOM     19  N   LYS d   1       8.661 -49.424   4.602  0.00  0.00    -0.346 N 
ATOM     20  CA  LYS d   1       9.271 -48.073   4.544  0.00  0.00     0.089 C 
ATOM     21  C   LYS d   1       8.803 -47.404   3.260  0.00  0.00     0.241 C 
ATOM     22  O   LYS d   1       8.534 -48.112   2.278  0.00  0.00    -0.271 OA
ATOM     23  H   LYS d   1       9.157 -50.193   4.152  0.00  0.00     0.163 HD
ATOM     24  H   LYS d   1       8.990 -47.512   5.435  0.00  0.00     0.087 H 
ATOM     25  N   ILE d   1       8.795 -46.062   3.235  0.00  0.00    -0.346 N 
ATOM     26  CA  ILE d   1       8.307 -45.259   2.076  0.00  0.00     0.092 C 
ATOM     27  C   ILE d   1       9.114 -45.594   0.837  0.00  0.00     0.241 C 
ATOM     28  O   ILE d   1       8.582 -45.597  -0.323  0.00  0.00    -0.271 OA
ATOM     29  H   ILE d   1       9.142 -45.563   4.054  0.00  0.00     0.163 HD
ATOM     30  H   ILE d   1       7.266 -45.496   1.858  0.00  0.00     0.088 H 
ATOM     31  N   ASP d   1      10.414 -45.883   1.081  0.00  0.00    -0.345 N 
ATOM     32  CA  ASP d   1      11.352 -46.121  -0.014  0.00  0.00     0.098 C 
ATOM     33  C   ASP d   1      11.563 -47.594  -0.278  0.00  0.00     0.241 C 
ATOM     34  O   ASP d   1      12.344 -47.922  -1.163  0.00  0.00    -0.271 OA
ATOM     35  N   ASP d   1       8.083 -53.116   0.444  0.00  0.00    -0.346 N 
ATOM     36  CA  ASP d   1       8.379 -54.491   0.924  0.00  0.00     0.098 C 
ATOM     37  C   ASP d   1       8.794 -54.551   2.417  0.00  0.00     0.241 C 
ATOM     38  O   ASP d   1       8.316 -55.439   3.147  0.00  0.00    -0.271 OA
ATOM     39  H   ASP d   1      10.744 -45.935   2.045  0.00  0.00     0.163 HD
ATOM     40  H   ASP d   1      10.863 -45.644  -0.863  0.00  0.00     0.088 H 
ATOM     41  H   ASP d   1       8.479 -52.816  -0.447  0.00  0.00     0.163 HD
ATOM     42  H   ASP d   1       7.451 -55.058   0.844  0.00  0.00     0.088 H 
ATOM     43  N   ASN d   1      10.891 -48.449   0.489  0.00  0.00    -0.346 N 
ATOM     44  CA  ASN d   1      10.982 -49.906   0.270  0.00  0.00     0.097 C 
ATOM     45  C   ASN d   1       9.705 -50.497   0.840  0.00  0.00     0.241 C 
ATOM     46  O   ASN d   1       9.637 -50.880   2.033  0.00  0.00    -0.271 OA
ATOM     47  H   ASN d   1      10.303 -48.091   1.242  0.00  0.00     0.163 HD
ATOM     48  H   ASN d   1      11.060 -50.161  -0.787  0.00  0.00     0.088 H 
ENDROOT
BRANCH  20  49
ATOM     49  CB  LYS d   1      10.785 -48.194   4.438  0.00  0.00    -0.038 C 
ATOM     50  H   LYS d   1      11.170 -47.182   4.561  0.00  0.00     0.036 H 
ATOM     51  H   LYS d   1      10.974 -48.691   3.487  0.00  0.00     0.036 H 
BRANCH  49  52
ATOM     52  CG  LYS d   1      11.494 -49.032   5.486  0.00  0.00    -0.061 C 
ATOM     53  H   LYS d   1      12.564 -49.028   5.278  0.00  0.00     0.033 H 
ATOM     54  H   LYS d   1      11.102 -50.049   5.451  0.00  0.00     0.033 H 
BRANCH  52  55
ATOM     55  CD  LYS d   1      11.263 -48.472   6.845  0.00  0.00    -0.043 C 
ATOM     56  H   LYS d   1      10.198 -48.486   7.079  0.00  0.00     0.035 H 
ATOM     57  H   LYS d   1      11.610 -47.440   6.887  0.00  0.00     0.035 H 
BRANCH  55  58
ATOM     58  CE  LYS d   1      12.038 -49.331   7.862  0.00  0.00     0.080 C 
ATOM     59  H   LYS d   1      13.108 -49.230   7.681  0.00  0.00     0.075 H 
ATOM     60  H   LYS d   1      11.747 -50.376   7.751  0.00  0.00     0.075 H 
BRANCH  58  61
ATOM     61  NZ  LYS d   1      11.730 -48.883   9.210  0.00  0.00    -0.079 N 
ATOM     62  H   LYS d   1      12.244 -49.453   9.882  0.00  0.00     0.274 HD
ATOM     63  H   LYS d   1      12.002 -47.905   9.313  0.00  0.00     0.274 HD
ATOM     64  H   LYS d   1      10.728 -48.978   9.378  0.00  0.00     0.274 HD
ENDBRANCH  58  61
ENDBRANCH  55  58
ENDBRANCH  52  55
ENDBRANCH  49  52
ENDBRANCH  20  49
BRANCH   8  65
ATOM     65  CB  LEU d   1       6.919 -51.549   6.875  0.00  0.00    -0.035 C 
ATOM     66  H   LEU d   1       7.683 -50.980   7.404  0.00  0.00     0.037 H 
ATOM     67  H   LEU d   1       6.919 -52.639   6.884  0.00  0.00     0.037 H 
BRANCH  65  68
ATOM     68  CG  LEU d   1       5.608 -51.171   7.596  0.00  0.00    -0.059 C 
ATOM     69  H   LEU d   1       5.640 -50.093   7.753  0.00  0.00     0.038 H 
BRANCH  68  70
ATOM     70  CD1 LEU d   1       4.377 -51.466   6.766  0.00  0.00    -0.073 C 
ATOM     71  H   LEU d   1       4.423 -50.898   5.837  0.00  0.00     0.028 H 
ATOM     72  H   LEU d   1       4.339 -52.532   6.541  0.00  0.00     0.028 H 
ATOM     73  H   LEU d   1       3.486 -51.179   7.325  0.00  0.00     0.028 H 
ENDBRANCH  68  70
BRANCH  68  74
ATOM     74  CD2 LEU d   1       5.509 -51.893   8.978  0.00  0.00    -0.073 C 
ATOM     75  H   LEU d   1       5.529 -52.972   8.825  0.00  0.00     0.028 H 
ATOM     76  H   LEU d   1       6.353 -51.598   9.602  0.00  0.00     0.028 H 
ATOM     77  H   LEU d   1       4.577 -51.611   9.468  0.00  0.00     0.028 H 
ENDBRANCH  68  74
ENDBRANCH  65  68
ENDBRANCH   8  65
BRANCH  26  78
ATOM     78  CB  ILE d   1       8.412 -43.728   2.446  0.00  0.00    -0.030 C 
ATOM     79  H   ILE d   1       9.380 -43.610   2.933  0.00  0.00     0.043 H 
BRANCH  78  80
ATOM     80  CG1 ILE d   1       7.251 -43.354   3.347  0.00  0.00    -0.063 C 
ATOM     81  H   ILE d   1       7.521 -42.457   3.905  0.00  0.00     0.033 H 
ATOM     82  H   ILE d   1       7.047 -44.192   4.013  0.00  0.00     0.033 H 
BRANCH  80  83
ATOM     83  CD1 ILE d   1       5.944 -43.049   2.511  0.00  0.00    -0.076 C 
ATOM     84  H   ILE d   1       6.135 -42.219   1.831  0.00  0.00     0.027 H 
ATOM     85  H   ILE d   1       5.666 -43.934   1.938  0.00  0.00     0.027 H 
ATOM     86  H   ILE d   1       5.133 -42.785   3.190  0.00  0.00     0.027 H 
ENDBRANCH  80  83
ENDBRANCH  78  80
BRANCH  78  87
ATOM     87  CG2 ILE d   1       8.392 -42.772   1.236  0.00  0.00    -0.071 C 
ATOM     88  H   ILE d   1       9.234 -42.998   0.582  0.00  0.00     0.028 H 
ATOM     89  H   ILE d   1       7.459 -42.902   0.687  0.00  0.00     0.028 H 
ATOM     90  H   ILE d   1       8.469 -41.743   1.587  0.00  0.00     0.028 H 
ENDBRANCH  78  87
ENDBRANCH  26  78
BRANCH   2  91
ATOM     91  CB  SER d   1      11.569 -53.220   4.497  0.00  0.00     0.044 C 
ATOM     92  H   SER d   1      11.776 -53.082   5.558  0.00  0.00     0.077 H 
ATOM     93  H   SER d   1      11.820 -52.321   3.933  0.00  0.00     0.077 H 
BRANCH  91  94
ATOM     94  OG  SER d   1      12.355 -54.296   4.014  0.00  0.00    -0.398 OA
ATOM     95  H   SER d   1      13.285 -54.091   4.135  0.00  0.00     0.209 HD
ENDBRANCH  91  94
ENDBRANCH   2  91
BRANCH  32  96
ATOM     96  CB  ASP d   1      12.742 -45.460   0.158  0.00  0.00     0.043 C 
ATOM     97  H   ASP d   1      12.600 -44.382   0.078  0.00  0.00     0.052 H 
ATOM     98  H   ASP d   1      13.396 -45.879  -0.607  0.00  0.00     0.052 H 
BRANCH  96  99
ATOM     99  CG  ASP d   1      13.392 -45.730   1.504  0.00  0.00     0.175 C 
ATOM    100  OD1 ASP d   1      14.562 -45.256   1.666  0.00  0.00    -0.648 OA
ATOM    101  OD2 ASP d   1      12.773 -46.387   2.399  0.00  0.00    -0.648 OA
ENDBRANCH  96  99
ENDBRANCH  32  96
BRANCH  36 102
ATOM    102  CB  ASP d   1       9.468 -55.123   0.045  0.00  0.00     0.043 C 
ATOM    103  H   ASP d   1      10.029 -55.826   0.660  0.00  0.00     0.052 H 
ATOM    104  H   ASP d   1      10.091 -54.319  -0.347  0.00  0.00     0.052 H 
BRANCH 102 105
ATOM    105  CG  ASP d   1       8.891 -55.894  -1.144  0.00  0.00     0.175 C 
ATOM    106  OD1 ASP d   1       7.656 -56.030  -1.223  0.00  0.00    -0.648 OA
ATOM    107  OD2 ASP d   1       9.690 -56.350  -1.997  0.00  0.00    -0.648 OA
ENDBRANCH 102 105
ENDBRANCH  36 102
BRANCH  44 108
ATOM    108  CB  ASN d   1      12.269 -50.482   0.895  0.00  0.00     0.036 C 
ATOM    109  H   ASN d   1      12.171 -50.409   1.978  0.00  0.00     0.051 H 
ATOM    110  H   ASN d   1      13.111 -49.913   0.500  0.00  0.00     0.051 H 
BRANCH 108 111
ATOM    111  CG  ASN d   1      12.507 -51.987   0.541  0.00  0.00     0.217 C 
ATOM    112  OD1 ASN d   1      11.786 -52.583  -0.249  0.00  0.00    -0.274 OA
ATOM    113  ND2 ASN d   1      13.544 -52.572   1.126  0.00  0.00    -0.370 N 
ATOM    114  H   ASN d   1      13.761 -53.548   0.922  0.00  0.00     0.159 HD
ATOM    115  H   ASN d   1      14.124 -52.046   1.780  0.00  0.00     0.159 HD
ENDBRANCH 108 111
ENDBRANCH  44 108
BRANCH  12 116
ATOM    116  CB  LEU d   1       6.213 -50.571  -0.481  0.00  0.00    -0.035 C 
ATOM    117  H   LEU d   1       5.328 -51.127  -0.172  0.00  0.00     0.037 H 
ATOM    118  H   LEU d   1       6.585 -50.896  -1.452  0.00  0.00     0.037 H 
BRANCH 116 119
ATOM    119  CG  LEU d   1       5.826 -49.068  -0.590  0.00  0.00    -0.059 C 
ATOM    120  H   LEU d   1       6.739 -48.536  -0.859  0.00  0.00     0.038 H 
BRANCH 119 121
ATOM    121  CD1 LEU d   1       4.745 -48.951  -1.611  0.00  0.00    -0.073 C 
ATOM    122  H   LEU d   1       5.111 -49.319  -2.569  0.00  0.00     0.028 H 
ATOM    123  H   LEU d   1       3.885 -49.543  -1.297  0.00  0.00     0.028 H 
ATOM    124  H   LEU d   1       4.452 -47.906  -1.710  0.00  0.00     0.028 H 
ENDBRANCH 119 121
BRANCH 119 125
ATOM    125  CD2 LEU d   1       5.336 -48.407   0.725  0.00  0.00    -0.073 C 
ATOM    126  H   LEU d   1       4.448 -48.928   1.083  0.00  0.00     0.028 H 
ATOM    127  H   LEU d   1       6.123 -48.469   1.476  0.00  0.00     0.028 H 
ATOM    128  H   LEU d   1       5.093 -47.361   0.536  0.00  0.00     0.028 H 
ENDBRANCH 119 125
ENDBRANCH 116 119
ENDBRANCH  12 116
TORSDOF 25
