REMARK  25 active torsions:
REMARK  status: ('A' for Active; 'I' for Inactive)
REMARK    1  A    between atoms: CA_2  and  CB_5 
REMARK    2  A    between atoms: CB_5  and  CG_6 
REMARK    3  A    between atoms: CA_10  and  CB_13 
REMARK    4  A    between atoms: CB_13  and  CG_14 
REMARK    5  A    between atoms: CG_14  and  CD1_15 
REMARK    6  A    between atoms: CG_14  and  CD2_16 
REMARK    7  A    between atoms: CA_18  and  CB_21 
REMARK    8  A    between atoms: CB_21  and  CG_22 
REMARK    9  A    between atoms: CG_22  and  CD_23 
REMARK   10  A    between atoms: CD_23  and  CE_24 
REMARK   11  A    between atoms: CE_24  and  NZ_25 
REMARK   12  A    between atoms: CA_27  and  CB_30 
REMARK   13  A    between atoms: CB_30  and  CG1_31 
REMARK   14  A    between atoms: CB_30  and  CG2_32 
REMARK   15  A    between atoms: CG1_31  and  CD1_33 
REMARK   16  A    between atoms: CA_35  and  CB_38 
REMARK   17  A    between atoms: CB_38  and  CG_39 
REMARK   18  A    between atoms: CA_43  and  CB_46 
REMARK   19  A    between atoms: CB_46  and  CG_47 
REMARK       I    between atoms: CG_47  and  ND2_49 
REMARK   20  A    between atoms: CA_51  and  CB_54 
REMARK   21  A    between atoms: CB_54  and  CG_55 
REMARK   22  A    between atoms: CG_55  and  CD1_56 
REMARK   23  A    between atoms: CG_55  and  CD2_57 
REMARK   24  A    between atoms: CA_59  and  CB_62 
REMARK   25  A    between atoms: CB_62  and  CG_63 
ROOT
ATOM      1  N   ASP d   1     -41.547  34.886  -3.707  0.00  0.00    -0.345 N 
ATOM      2  CA  ASP d   1     -41.087  35.456  -4.972  0.00  0.00     0.098 C 
ATOM      3  C   ASP d   1     -40.640  34.300  -5.896  0.00  0.00     0.241 C 
ATOM      4  O   ASP d   1     -40.043  34.515  -6.969  0.00  0.00    -0.271 OA
ATOM      5  N   ASP d   1     -34.437  31.897  -1.810  0.00  0.00    -0.345 N 
ATOM      6  CA  ASP d   1     -34.112  32.788  -0.684  0.00  0.00     0.098 C 
ATOM      7  C   ASP d   1     -35.269  33.695  -0.425  0.00  0.00     0.241 C 
ATOM      8  O   ASP d   1     -35.152  34.604   0.417  0.00  0.00    -0.271 OA
ATOM      9  N   ASP d   1     -41.785  33.428  -1.417  0.00  0.00    -0.346 N 
ATOM     10  CA  ASP d   1     -42.946  34.276  -1.856  0.00  0.00     0.098 C 
ATOM     11  C   ASP d   1     -42.811  34.754  -3.294  0.00  0.00     0.241 C 
ATOM     12  O   ASP d   1     -43.810  34.972  -3.990  0.00  0.00    -0.271 OA
ATOM     13  H   ASP d   1     -40.824  34.552  -3.070  0.00  0.00     0.163 HD
ATOM     14  H   ASP d   1     -41.843  36.005  -5.534  0.00  0.00     0.088 H 
ATOM     15  H   ASP d   1     -34.355  32.246  -2.765  0.00  0.00     0.163 HD
ATOM     16  H   ASP d   1     -33.915  32.156   0.182  0.00  0.00     0.088 H 
ATOM     17  H   ASP d   1     -41.262  33.708  -0.587  0.00  0.00     0.163 HD
ATOM     18  H   ASP d   1     -43.833  33.646  -1.782  0.00  0.00     0.088 H 
ATOM     19  N   LEU d   1     -40.916  33.065  -5.463  0.00  0.00    -0.346 N 
ATOM     20  CA  LEU d   1     -40.520  31.787  -6.151  0.00  0.00     0.089 C 
ATOM     21  C   LEU d   1     -39.003  31.625  -6.276  0.00  0.00     0.241 C 
ATOM     22  O   LEU d   1     -38.487  31.024  -7.253  0.00  0.00    -0.271 OA
ATOM     23  N   LEU d   1     -39.273  32.570  -0.869  0.00  0.00    -0.346 N 
ATOM     24  CA  LEU d   1     -40.170  31.604  -1.503  0.00  0.00     0.089 C 
ATOM     25  C   LEU d   1     -41.414  32.336  -2.061  0.00  0.00     0.241 C 
ATOM     26  O   LEU d   1     -41.957  31.938  -3.098  0.00  0.00    -0.271 OA
ATOM     27  H   LEU d   1     -41.440  32.983  -4.592  0.00  0.00     0.163 HD
ATOM     28  H   LEU d   1     -40.882  30.989  -5.502  0.00  0.00     0.087 H 
ATOM     29  H   LEU d   1     -39.094  32.548   0.135  0.00  0.00     0.163 HD
ATOM     30  H   LEU d   1     -39.679  31.119  -2.347  0.00  0.00     0.087 H 
ATOM     31  N   LYS d   1     -38.286  32.110  -5.265  0.00  0.00    -0.346 N 
ATOM     32  CA  LYS d   1     -36.820  32.012  -5.279  0.00  0.00     0.089 C 
ATOM     33  C   LYS d   1     -36.507  31.224  -4.042  0.00  0.00     0.241 C 
ATOM     34  O   LYS d   1     -37.286  31.297  -3.061  0.00  0.00    -0.271 OA
ATOM     35  H   LYS d   1     -38.757  32.552  -4.476  0.00  0.00     0.163 HD
ATOM     36  H   LYS d   1     -36.420  31.562  -6.188  0.00  0.00     0.087 H 
ATOM     37  N   ILE d   1     -35.370  30.502  -4.027  0.00  0.00    -0.346 N 
ATOM     38  CA  ILE d   1     -34.949  29.718  -2.834  0.00  0.00     0.092 C 
ATOM     39  C   ILE d   1     -34.842  30.625  -1.600  0.00  0.00     0.241 C 
ATOM     40  O   ILE d   1     -35.133  30.176  -0.470  0.00  0.00    -0.271 OA
ATOM     41  H   ILE d   1     -34.779  30.492  -4.859  0.00  0.00     0.163 HD
ATOM     42  H   ILE d   1     -35.727  28.976  -2.656  0.00  0.00     0.088 H 
ATOM     43  N   ASN d   1     -36.330  33.522  -1.228  0.00  0.00    -0.346 N 
ATOM     44  CA  ASN d   1     -37.589  34.271  -1.013  0.00  0.00     0.097 C 
ATOM     45  C   ASN d   1     -38.704  33.472  -1.649  0.00  0.00     0.241 C 
ATOM     46  O   ASN d   1     -39.016  33.600  -2.840  0.00  0.00    -0.271 OA
ATOM     47  H   ASN d   1     -36.268  32.861  -2.002  0.00  0.00     0.163 HD
ATOM     48  H   ASN d   1     -37.763  34.393   0.056  0.00  0.00     0.088 H 
ENDROOT
BRANCH  32  49
ATOM     49  CB  LYS d   1     -36.237  33.426  -5.130  0.00  0.00    -0.038 C 
ATOM     50  H   LYS d   1     -35.152  33.324  -5.166  0.00  0.00     0.036 H 
ATOM     51  H   LYS d   1     -36.632  33.832  -4.199  0.00  0.00     0.036 H 
BRANCH  49  52
ATOM     52  CG  LYS d   1     -36.624  34.403  -6.235  0.00  0.00    -0.061 C 
ATOM     53  H   LYS d   1     -36.236  35.395  -6.003  0.00  0.00     0.033 H 
ATOM     54  H   LYS d   1     -37.710  34.459  -6.314  0.00  0.00     0.033 H 
BRANCH  52  55
ATOM     55  CD  LYS d   1     -36.041  33.920  -7.540  0.00  0.00    -0.043 C 
ATOM     56  H   LYS d   1     -36.231  32.862  -7.721  0.00  0.00     0.035 H 
ATOM     57  H   LYS d   1     -34.953  33.983  -7.564  0.00  0.00     0.035 H 
BRANCH  55  58
ATOM     58  CE  LYS d   1     -36.719  34.839  -8.590  0.00  0.00     0.080 C 
ATOM     59  H   LYS d   1     -36.587  35.867  -8.251  0.00  0.00     0.075 H 
ATOM     60  H   LYS d   1     -37.760  34.525  -8.668  0.00  0.00     0.075 H 
BRANCH  58  61
ATOM     61  NZ  LYS d   1     -36.136  34.748  -9.936  0.00  0.00    -0.079 N 
ATOM     62  H   LYS d   1     -36.634  35.379 -10.564  0.00  0.00     0.274 HD
ATOM     63  H   LYS d   1     -35.151  35.012  -9.897  0.00  0.00     0.274 HD
ATOM     64  H   LYS d   1     -36.219  33.790 -10.277  0.00  0.00     0.274 HD
ENDBRANCH  58  61
ENDBRANCH  55  58
ENDBRANCH  52  55
ENDBRANCH  49  52
ENDBRANCH  32  49
BRANCH  20  65
ATOM     65  CB  LEU d   1     -41.203  31.617  -7.535  0.00  0.00    -0.035 C 
ATOM     66  H   LEU d   1     -40.392  31.552  -8.260  0.00  0.00     0.037 H 
ATOM     67  H   LEU d   1     -41.890  32.458  -7.632  0.00  0.00     0.037 H 
BRANCH  65  68
ATOM     68  CG  LEU d   1     -42.058  30.350  -7.747  0.00  0.00    -0.059 C 
ATOM     69  H   LEU d   1     -41.446  29.476  -7.523  0.00  0.00     0.038 H 
BRANCH  68  70
ATOM     70  CD1 LEU d   1     -43.292  30.401  -6.761  0.00  0.00    -0.073 C 
ATOM     71  H   LEU d   1     -42.932  30.438  -5.733  0.00  0.00     0.028 H 
ATOM     72  H   LEU d   1     -43.887  31.290  -6.971  0.00  0.00     0.028 H 
ATOM     73  H   LEU d   1     -43.904  29.510  -6.901  0.00  0.00     0.028 H 
ENDBRANCH  68  70
BRANCH  68  74
ATOM     74  CD2 LEU d   1     -42.502  30.170  -9.207  0.00  0.00    -0.073 C 
ATOM     75  H   LEU d   1     -43.098  31.030  -9.513  0.00  0.00     0.028 H 
ATOM     76  H   LEU d   1     -41.622  30.090  -9.846  0.00  0.00     0.028 H 
ATOM     77  H   LEU d   1     -43.100  29.263  -9.294  0.00  0.00     0.028 H 
ENDBRANCH  68  74
ENDBRANCH  65  68
ENDBRANCH  20  65
BRANCH  38  78
ATOM     78  CB  ILE d   1     -33.593  28.887  -3.069  0.00  0.00    -0.030 C 
ATOM     79  H   ILE d   1     -33.430  28.942  -4.145  0.00  0.00     0.043 H 
BRANCH  78  80
ATOM     80  CG1 ILE d   1     -33.703  27.448  -2.566  0.00  0.00    -0.063 C 
ATOM     81  H   ILE d   1     -34.202  27.489  -1.598  0.00  0.00     0.033 H 
ATOM     82  H   ILE d   1     -32.691  27.043  -2.543  0.00  0.00     0.033 H 
BRANCH  80  83
ATOM     83  CD1 ILE d   1     -34.505  26.549  -3.424  0.00  0.00    -0.076 C 
ATOM     84  H   ILE d   1     -35.522  26.934  -3.501  0.00  0.00     0.027 H 
ATOM     85  H   ILE d   1     -34.057  26.502  -4.417  0.00  0.00     0.027 H 
ATOM     86  H   ILE d   1     -34.525  25.552  -2.985  0.00  0.00     0.027 H 
ENDBRANCH  80  83
ENDBRANCH  78  80
BRANCH  78  87
ATOM     87  CG2 ILE d   1     -32.441  29.450  -2.275  0.00  0.00    -0.071 C 
ATOM     88  H   ILE d   1     -32.265  30.483  -2.576  0.00  0.00     0.028 H 
ATOM     89  H   ILE d   1     -32.682  29.416  -1.213  0.00  0.00     0.028 H 
ATOM     90  H   ILE d   1     -31.546  28.857  -2.465  0.00  0.00     0.028 H 
ENDBRANCH  78  87
ENDBRANCH  38  78
BRANCH   2  91
ATOM     91  CB  ASP d   1     -39.932  36.423  -4.561  0.00  0.00     0.043 C 
ATOM     92  H   ASP d   1     -39.109  35.803  -4.206  0.00  0.00     0.052 H 
ATOM     93  H   ASP d   1     -40.339  37.106  -3.816  0.00  0.00     0.052 H 
BRANCH  91  94
ATOM     94  CG  ASP d   1     -39.386  37.279  -5.698  0.00  0.00     0.175 C 
ATOM     95  OD1 ASP d   1     -40.114  37.500  -6.690  0.00  0.00    -0.648 OA
ATOM     96  OD2 ASP d   1     -38.210  37.744  -5.566  0.00  0.00    -0.648 OA
ENDBRANCH  91  94
ENDBRANCH   2  91
BRANCH   6  97
ATOM     97  CB  ASP d   1     -32.812  33.641  -0.928  0.00  0.00     0.043 C 
ATOM     98  H   ASP d   1     -31.966  32.954  -0.906  0.00  0.00     0.052 H 
ATOM     99  H   ASP d   1     -32.781  34.409  -0.156  0.00  0.00     0.052 H 
BRANCH  97 100
ATOM    100  CG  ASP d   1     -32.780  34.339  -2.247  0.00  0.00     0.175 C 
ATOM    101  OD1 ASP d   1     -31.854  35.173  -2.451  0.00  0.00    -0.648 OA
ATOM    102  OD2 ASP d   1     -33.649  34.104  -3.098  0.00  0.00    -0.648 OA
ENDBRANCH  97 100
ENDBRANCH   6  97
BRANCH  10 103
ATOM    103  CB  ASP d   1     -43.069  35.508  -0.955  0.00  0.00     0.043 C 
ATOM    104  H   ASP d   1     -43.594  36.282  -1.515  0.00  0.00     0.052 H 
ATOM    105  H   ASP d   1     -42.064  35.811  -0.662  0.00  0.00     0.052 H 
BRANCH 103 106
ATOM    106  CG  ASP d   1     -43.857  35.230   0.306  0.00  0.00     0.175 C 
ATOM    107  OD1 ASP d   1     -44.499  34.158   0.378  0.00  0.00    -0.648 OA
ATOM    108  OD2 ASP d   1     -43.816  36.074   1.228  0.00  0.00    -0.648 OA
ENDBRANCH 103 106
ENDBRANCH  10 103
BRANCH  44 109
ATOM    109  CB  ASN d   1     -37.528  35.683  -1.581  0.00  0.00     0.036 C 
ATOM    110  H   ASN d   1     -37.516  35.618  -2.669  0.00  0.00     0.051 H 
ATOM    111  H   ASN d   1     -36.630  36.170  -1.202  0.00  0.00     0.051 H 
BRANCH 109 112
ATOM    112  CG  ASN d   1     -38.767  36.524  -1.149  0.00  0.00     0.217 C 
ATOM    113  OD1 ASN d   1     -39.852  35.991  -0.961  0.00  0.00    -0.274 OA
ATOM    114  ND2 ASN d   1     -38.589  37.826  -1.020  0.00  0.00    -0.370 N 
ATOM    115  H   ASN d   1     -39.372  38.424  -0.755  0.00  0.00     0.159 HD
ATOM    116  H   ASN d   1     -37.669  38.234  -1.185  0.00  0.00     0.159 HD
ENDBRANCH 109 112
ENDBRANCH  44 109
BRANCH  24 117
ATOM    117  CB  LEU d   1     -40.539  30.494  -0.470  0.00  0.00    -0.035 C 
ATOM    118  H   LEU d   1     -41.424  29.970  -0.832  0.00  0.00     0.037 H 
ATOM    119  H   LEU d   1     -40.716  30.969   0.495  0.00  0.00     0.037 H 
BRANCH 117 120
ATOM    120  CG  LEU d   1     -39.402  29.467  -0.303  0.00  0.00    -0.059 C 
ATOM    121  H   LEU d   1     -38.490  30.000  -0.033  0.00  0.00     0.038 H 
BRANCH 120 122
ATOM    122  CD1 LEU d   1     -39.887  28.486   0.759  0.00  0.00    -0.073 C 
ATOM    123  H   LEU d   1     -40.077  29.023   1.688  0.00  0.00     0.028 H 
ATOM    124  H   LEU d   1     -40.806  28.009   0.419  0.00  0.00     0.028 H 
ATOM    125  H   LEU d   1     -39.123  27.727   0.926  0.00  0.00     0.028 H 
ENDBRANCH 120 122
BRANCH 120 126
ATOM    126  CD2 LEU d   1     -39.041  28.686  -1.592  0.00  0.00    -0.073 C 
ATOM    127  H   LEU d   1     -39.916  28.136  -1.939  0.00  0.00     0.028 H 
ATOM    128  H   LEU d   1     -38.722  29.387  -2.363  0.00  0.00     0.028 H 
ATOM    129  H   LEU d   1     -38.232  27.988  -1.378  0.00  0.00     0.028 H 
ENDBRANCH 120 126
ENDBRANCH 117 120
ENDBRANCH  24 117
TORSDOF 25
