REMARK  22 active torsions:
REMARK  status: ('A' for Active; 'I' for Inactive)
REMARK    1  A    between atoms: CA_2  and  CB_5 
REMARK    2  A    between atoms: CA_7  and  CB_10 
REMARK    3  A    between atoms: CB_10  and  CG_11 
REMARK    4  A    between atoms: CA_15  and  CB_18 
REMARK    5  A    between atoms: CB_18  and  CG_19 
REMARK    6  A    between atoms: CG_19  and  CD_20 
REMARK    7  A    between atoms: CD_20  and  CE_21 
REMARK    8  A    between atoms: CE_21  and  NZ_22 
REMARK    9  A    between atoms: CA_24  and  CB_27 
REMARK   10  A    between atoms: CB_27  and  CG1_28 
REMARK   11  A    between atoms: CB_27  and  CG2_29 
REMARK   12  A    between atoms: CG1_28  and  CD1_30 
REMARK   13  A    between atoms: CA_32  and  CB_35 
REMARK   14  A    between atoms: CB_35  and  CG_36 
REMARK   15  A    between atoms: CA_40  and  CB_43 
REMARK   16  A    between atoms: CB_43  and  CG_44 
REMARK       I    between atoms: CG_44  and  ND2_46 
REMARK   17  A    between atoms: CA_48  and  CB_51 
REMARK   18  A    between atoms: CB_51  and  CG_52 
REMARK   19  A    between atoms: CG_52  and  CD1_53 
REMARK   20  A    between atoms: CG_52  and  CD2_54 
REMARK   21  A    between atoms: CA_56  and  CB_59 
REMARK   22  A    between atoms: CB_59  and  CG_60 
ROOT
ATOM      1  N   ALA d   1      15.936  38.814 -16.152  0.00  0.00    -0.346 N 
ATOM      2  CA  ALA d   1      16.116  38.275 -17.519  0.00  0.00     0.086 C 
ATOM      3  C   ALA d   1      14.924  38.517 -18.446  0.00  0.00     0.240 C 
ATOM      4  O   ALA d   1      14.835  37.918 -19.531  0.00  0.00    -0.271 OA
ATOM      5  H   ALA d   1      15.566  38.188 -15.437  0.00  0.00     0.163 HD
ATOM      6  H   ALA d   1      16.947  38.823 -17.964  0.00  0.00     0.086 H 
ATOM      7  N   ASP d   1      13.994  39.377 -18.030  0.00  0.00    -0.346 N 
ATOM      8  CA  ASP d   1      12.693  39.602 -18.741  0.00  0.00     0.098 C 
ATOM      9  C   ASP d   1      11.730  38.393 -18.830  0.00  0.00     0.241 C 
ATOM     10  O   ASP d   1      10.866  38.312 -19.724  0.00  0.00    -0.271 OA
ATOM     11  N   ASP d   1       9.599  34.311 -14.416  0.00  0.00    -0.345 N 
ATOM     12  CA  ASP d   1      10.221  33.603 -13.298  0.00  0.00     0.098 C 
ATOM     13  C   ASP d   1      11.594  34.154 -13.036  0.00  0.00     0.241 C 
ATOM     14  O   ASP d   1      12.283  33.671 -12.107  0.00  0.00    -0.271 OA
ATOM     15  N   ASP d   1      14.568  39.952 -13.913  0.00  0.00    -0.346 N 
ATOM     16  CA  ASP d   1      15.905  40.452 -14.339  0.00  0.00     0.098 C 
ATOM     17  C   ASP d   1      16.228  40.071 -15.794  0.00  0.00     0.241 C 
ATOM     18  O   ASP d   1      16.709  40.909 -16.570  0.00  0.00    -0.271 OA
ATOM     19  H   ASP d   1      14.178  39.912 -17.181  0.00  0.00     0.163 HD
ATOM     20  H   ASP d   1      12.184  40.334 -18.114  0.00  0.00     0.088 H 
ATOM     21  H   ASP d   1       9.824  34.040 -15.373  0.00  0.00     0.163 HD
ATOM     22  H   ASP d   1       9.543  33.771 -12.461  0.00  0.00     0.088 H 
ATOM     23  H   ASP d   1      14.509  39.407 -13.053  0.00  0.00     0.163 HD
ATOM     24  H   ASP d   1      15.869  41.540 -14.277  0.00  0.00     0.088 H 
ATOM     25  N   LYS d   1      11.837  37.490 -17.872  0.00  0.00    -0.346 N 
ATOM     26  CA  LYS d   1      10.966  36.316 -17.847  0.00  0.00     0.089 C 
ATOM     27  C   LYS d   1      10.065  36.471 -16.632  0.00  0.00     0.241 C 
ATOM     28  O   LYS d   1      10.510  37.110 -15.633  0.00  0.00    -0.271 OA
ATOM     29  H   LYS d   1      12.537  37.613 -17.140  0.00  0.00     0.163 HD
ATOM     30  H   LYS d   1      10.366  36.193 -18.749  0.00  0.00     0.087 H 
ATOM     31  N   ILE d   1       8.908  35.813 -16.618  0.00  0.00    -0.346 N 
ATOM     32  CA  ILE d   1       8.005  35.867 -15.429  0.00  0.00     0.092 C 
ATOM     33  C   ILE d   1       8.734  35.315 -14.194  0.00  0.00     0.241 C 
ATOM     34  O   ILE d   1       8.522  35.782 -13.034  0.00  0.00    -0.271 OA
ATOM     35  H   ILE d   1       8.633  35.263 -17.432  0.00  0.00     0.163 HD
ATOM     36  H   ILE d   1       7.730  36.901 -15.220  0.00  0.00     0.088 H 
ATOM     37  N   ASN d   1      11.996  35.131 -13.844  0.00  0.00    -0.346 N 
ATOM     38  CA  ASN d   1      13.264  35.846 -13.585  0.00  0.00     0.097 C 
ATOM     39  C   ASN d   1      13.107  37.215 -14.235  0.00  0.00     0.241 C 
ATOM     40  O   ASN d   1      13.387  37.424 -15.440  0.00  0.00    -0.271 OA
ATOM     41  H   ASN d   1      11.425  35.389 -14.649  0.00  0.00     0.163 HD
ATOM     42  H   ASN d   1      13.469  35.958 -12.520  0.00  0.00     0.088 H 
ATOM     43  N   LEU d   1      12.589  38.154 -13.443  0.00  0.00    -0.346 N 
ATOM     44  CA  LEU d   1      12.211  39.440 -14.050  0.00  0.00     0.089 C 
ATOM     45  C   LEU d   1      13.447  40.176 -14.592  0.00  0.00     0.241 C 
ATOM     46  O   LEU d   1      13.358  40.896 -15.599  0.00  0.00    -0.271 OA
ATOM     47  H   LEU d   1      12.459  37.986 -12.445  0.00  0.00     0.163 HD
ATOM     48  H   LEU d   1      11.549  39.243 -14.893  0.00  0.00     0.087 H 
ENDROOT
BRANCH  26  49
ATOM     49  CB  LYS d   1      11.888  35.139 -17.634  0.00  0.00    -0.038 C 
ATOM     50  H   LYS d   1      11.261  34.250 -17.564  0.00  0.00     0.036 H 
ATOM     51  H   LYS d   1      12.473  35.350 -16.739  0.00  0.00     0.036 H 
BRANCH  49  52
ATOM     52  CG  LYS d   1      12.907  34.892 -18.803  0.00  0.00    -0.061 C 
ATOM     53  H   LYS d   1      13.498  34.008 -18.560  0.00  0.00     0.033 H 
ATOM     54  H   LYS d   1      13.529  35.781 -18.908  0.00  0.00     0.033 H 
BRANCH  52  55
ATOM     55  CD  LYS d   1      12.203  34.645 -20.127  0.00  0.00    -0.043 C 
ATOM     56  H   LYS d   1      11.435  35.394 -20.320  0.00  0.00     0.035 H 
ATOM     57  H   LYS d   1      11.678  33.690 -20.132  0.00  0.00     0.035 H 
BRANCH  55  58
ATOM     58  CE  LYS d   1      13.360  34.688 -21.230  0.00  0.00     0.080 C 
ATOM     59  H   LYS d   1      14.048  33.871 -21.013  0.00  0.00     0.075 H 
ATOM     60  H   LYS d   1      13.822  35.674 -21.180  0.00  0.00     0.075 H 
BRANCH  58  61
ATOM     61  NZ  LYS d   1      12.882  34.503 -22.580  0.00  0.00    -0.079 N 
ATOM     62  H   LYS d   1      13.670  34.542 -23.227  0.00  0.00     0.274 HD
ATOM     63  H   LYS d   1      12.423  33.595 -22.655  0.00  0.00     0.274 HD
ATOM     64  H   LYS d   1      12.217  35.242 -22.808  0.00  0.00     0.274 HD
ENDBRANCH  58  61
ENDBRANCH  55  58
ENDBRANCH  52  55
ENDBRANCH  49  52
ENDBRANCH  26  49
BRANCH   8  65
ATOM     65  CB  ASP d   1      12.952  40.117 -20.166  0.00  0.00     0.043 C 
ATOM     66  H   ASP d   1      12.894  39.269 -20.849  0.00  0.00     0.052 H 
ATOM     67  H   ASP d   1      13.933  40.592 -20.181  0.00  0.00     0.052 H 
BRANCH  65  68
ATOM     68  CG  ASP d   1      11.930  41.137 -20.598  0.00  0.00     0.175 C 
ATOM     69  OD1 ASP d   1      10.739  41.011 -20.244  0.00  0.00    -0.648 OA
ATOM     70  OD2 ASP d   1      12.327  42.086 -21.307  0.00  0.00    -0.648 OA
ENDBRANCH  65  68
ENDBRANCH   8  65
BRANCH  32  71
ATOM     71  CB  ILE d   1       6.675  35.054 -15.732  0.00  0.00    -0.030 C 
ATOM     72  H   ILE d   1       6.470  35.211 -16.791  0.00  0.00     0.043 H 
BRANCH  71  73
ATOM     73  CG1 ILE d   1       5.484  35.569 -14.933  0.00  0.00    -0.063 C 
ATOM     74  H   ILE d   1       5.805  35.836 -13.926  0.00  0.00     0.033 H 
ATOM     75  H   ILE d   1       4.722  34.793 -14.869  0.00  0.00     0.033 H 
BRANCH  73  76
ATOM     76  CD1 ILE d   1       4.906  36.804 -15.636  0.00  0.00    -0.076 C 
ATOM     77  H   ILE d   1       5.671  37.578 -15.696  0.00  0.00     0.027 H 
ATOM     78  H   ILE d   1       4.584  36.531 -16.641  0.00  0.00     0.027 H 
ATOM     79  H   ILE d   1       4.053  37.177 -15.069  0.00  0.00     0.027 H 
ENDBRANCH  73  76
ENDBRANCH  71  73
BRANCH  71  80
ATOM     80  CG2 ILE d   1       6.845  33.598 -15.489  0.00  0.00    -0.071 C 
ATOM     81  H   ILE d   1       7.635  33.213 -16.134  0.00  0.00     0.028 H 
ATOM     82  H   ILE d   1       7.115  33.434 -14.446  0.00  0.00     0.028 H 
ATOM     83  H   ILE d   1       5.910  33.083 -15.709  0.00  0.00     0.028 H 
ENDBRANCH  71  80
ENDBRANCH  32  71
BRANCH   2  84
ATOM     84  CB  ALA d   1      16.453  36.744 -17.440  0.00  0.00    -0.049 C 
ATOM     85  H   ALA d   1      15.589  36.203 -17.054  0.00  0.00     0.030 H 
ATOM     86  H   ALA d   1      16.699  36.376 -18.436  0.00  0.00     0.030 H 
ATOM     87  H   ALA d   1      17.304  36.594 -16.775  0.00  0.00     0.030 H 
ENDBRANCH   2  84
BRANCH  12  88
ATOM     88  CB  ASP d   1      10.341  32.057 -13.465  0.00  0.00     0.043 C 
ATOM     89  H   ASP d   1       9.341  31.633 -13.378  0.00  0.00     0.052 H 
ATOM     90  H   ASP d   1      11.023  31.690 -12.698  0.00  0.00     0.052 H 
BRANCH  88  91
ATOM     91  CG  ASP d   1      10.898  31.656 -14.809  0.00  0.00     0.175 C 
ATOM     92  OD1 ASP d   1      11.090  30.436 -15.024  0.00  0.00    -0.648 OA
ATOM     93  OD2 ASP d   1      11.125  32.565 -15.649  0.00  0.00    -0.648 OA
ENDBRANCH  88  91
ENDBRANCH  12  88
BRANCH  16  94
ATOM     94  CB  ASP d   1      17.014  39.929 -13.401  0.00  0.00     0.043 C 
ATOM     95  H   ASP d   1      17.957  39.989 -13.944  0.00  0.00     0.052 H 
ATOM     96  H   ASP d   1      16.743  38.915 -13.108  0.00  0.00     0.052 H 
BRANCH  94  97
ATOM     97  CG  ASP d   1      17.171  40.758 -12.109  0.00  0.00     0.175 C 
ATOM     98  OD1 ASP d   1      16.587  41.860 -11.984  0.00  0.00    -0.648 OA
ATOM     99  OD2 ASP d   1      17.896  40.289 -11.200  0.00  0.00    -0.648 OA
ENDBRANCH  94  97
ENDBRANCH  16  94
BRANCH  38 100
ATOM    100  CB  ASN d   1      14.452  35.053 -14.148  0.00  0.00     0.036 C 
ATOM    101  H   ASN d   1      14.436  35.152 -15.233  0.00  0.00     0.051 H 
ATOM    102  H   ASN d   1      14.351  34.019 -13.818  0.00  0.00     0.051 H 
BRANCH 100 103
ATOM    103  CG  ASN d   1      15.821  35.583 -13.641  0.00  0.00     0.217 C 
ATOM    104  OD1 ASN d   1      15.943  36.727 -13.219  0.00  0.00    -0.274 OA
ATOM    105  ND2 ASN d   1      16.840  34.737 -13.699  0.00  0.00    -0.370 N 
ATOM    106  H   ASN d   1      17.765  35.031 -13.386  0.00  0.00     0.159 HD
ATOM    107  H   ASN d   1      16.699  33.792 -14.057  0.00  0.00     0.159 HD
ENDBRANCH 100 103
ENDBRANCH  38 100
BRANCH  44 108
ATOM    108  CB  LEU d   1      11.446  40.315 -13.022  0.00  0.00    -0.035 C 
ATOM    109  H   LEU d   1      11.414  41.336 -13.404  0.00  0.00     0.037 H 
ATOM    110  H   LEU d   1      11.966  40.248 -12.067  0.00  0.00     0.037 H 
BRANCH 108 111
ATOM    111  CG  LEU d   1      10.008  39.840 -12.814  0.00  0.00    -0.059 C 
ATOM    112  H   LEU d   1      10.049  38.806 -12.471  0.00  0.00     0.038 H 
BRANCH 111 113
ATOM    113  CD1 LEU d   1       9.363  40.801 -11.793  0.00  0.00    -0.073 C 
ATOM    114  H   LEU d   1       9.922  40.764 -10.858  0.00  0.00     0.028 H 
ATOM    115  H   LEU d   1       9.382  41.816 -12.189  0.00  0.00     0.028 H 
ATOM    116  H   LEU d   1       8.331  40.499 -11.613  0.00  0.00     0.028 H 
ENDBRANCH 111 113
BRANCH 111 117
ATOM    117  CD2 LEU d   1       9.136  39.811 -14.108  0.00  0.00    -0.073 C 
ATOM    118  H   LEU d   1       9.079  40.815 -14.529  0.00  0.00     0.028 H 
ATOM    119  H   LEU d   1       9.589  39.136 -14.835  0.00  0.00     0.028 H 
ATOM    120  H   LEU d   1       8.133  39.461 -13.861  0.00  0.00     0.028 H 
ENDBRANCH 111 117
ENDBRANCH 108 111
ENDBRANCH  44 108
TORSDOF 22
