REMARK  24 active torsions:
REMARK  status: ('A' for Active; 'I' for Inactive)
REMARK    1  A    between atoms: CA_2  and  CB_5 
REMARK    2  A    between atoms: CA_7  and  CB_10 
REMARK    3  A    between atoms: CB_10  and  CG_11 
REMARK    4  A    between atoms: CG_11  and  CD_12 
REMARK    5  A    between atoms: CD_12  and  NE_13 
REMARK       I    between atoms: NE_13  and  CZ_14 
REMARK       I    between atoms: CZ_14  and  NH1_15 
REMARK    6  A    between atoms: CA_18  and  CB_21 
REMARK    7  A    between atoms: CB_21  and  CG_22 
REMARK    8  A    between atoms: CG_22  and  CD_23 
REMARK    9  A    between atoms: CD_23  and  CE_24 
REMARK   10  A    between atoms: CE_24  and  NZ_25 
REMARK   11  A    between atoms: CA_27  and  CB_30 
REMARK   12  A    between atoms: CB_30  and  CG1_31 
REMARK   13  A    between atoms: CB_30  and  CG2_32 
REMARK   14  A    between atoms: CG1_31  and  CD1_33 
REMARK   15  A    between atoms: CA_35  and  CB_38 
REMARK   16  A    between atoms: CB_38  and  CG_39 
REMARK   17  A    between atoms: CA_43  and  CB_46 
REMARK   18  A    between atoms: CB_46  and  CG_47 
REMARK       I    between atoms: CG_47  and  ND2_49 
REMARK   19  A    between atoms: CA_51  and  CB_54 
REMARK   20  A    between atoms: CB_54  and  CG_55 
REMARK   21  A    between atoms: CG_55  and  CD1_56 
REMARK   22  A    between atoms: CG_55  and  CD2_57 
REMARK   23  A    between atoms: CA_59  and  CB_62 
REMARK   24  A    between atoms: CB_62  and  CG_63 
ROOT
ATOM      1  N   ALA d   1     -16.113  38.736  15.292  0.00  0.00    -0.346 N 
ATOM      2  CA  ALA d   1     -16.298  38.095  16.617  0.00  0.00     0.086 C 
ATOM      3  C   ALA d   1     -15.177  38.446  17.602  0.00  0.00     0.240 C 
ATOM      4  O   ALA d   1     -15.060  37.862  18.687  0.00  0.00    -0.271 OA
ATOM      5  H   ALA d   1     -15.814  38.151  14.512  0.00  0.00     0.163 HD
ATOM      6  H   ALA d   1     -17.218  38.493  17.045  0.00  0.00     0.086 H 
ATOM      7  N   ARG d   1     -14.349  39.401  17.212  0.00  0.00    -0.346 N 
ATOM      8  CA  ARG d   1     -13.083  39.724  17.900  0.00  0.00     0.089 C 
ATOM      9  C   ARG d   1     -12.194  38.478  18.153  0.00  0.00     0.241 C 
ATOM     10  O   ARG d   1     -11.708  38.277  19.251  0.00  0.00    -0.271 OA
ATOM     11  H   ARG d   1     -14.600  39.947  16.387  0.00  0.00     0.163 HD
ATOM     12  H   ARG d   1     -12.491  40.340  17.223  0.00  0.00     0.087 H 
ATOM     13  N   LYS d   1     -12.006  37.652  17.122  0.00  0.00    -0.346 N 
ATOM     14  CA  LYS d   1     -11.071  36.504  17.147  0.00  0.00     0.089 C 
ATOM     15  C   LYS d   1     -10.211  36.562  15.930  0.00  0.00     0.241 C 
ATOM     16  O   LYS d   1     -10.642  37.095  14.894  0.00  0.00    -0.271 OA
ATOM     17  H   LYS d   1     -12.537  37.821  16.268  0.00  0.00     0.163 HD
ATOM     18  H   LYS d   1     -10.501  36.544  18.075  0.00  0.00     0.087 H 
ATOM     19  N   ILE d   1      -9.053  35.919  15.964  0.00  0.00    -0.346 N 
ATOM     20  CA  ILE d   1      -8.103  35.973  14.805  0.00  0.00     0.092 C 
ATOM     21  C   ILE d   1      -8.725  35.383  13.530  0.00  0.00     0.241 C 
ATOM     22  O   ILE d   1      -8.438  35.845  12.387  0.00  0.00    -0.271 OA
ATOM     23  H   ILE d   1      -8.804  35.378  16.792  0.00  0.00     0.163 HD
ATOM     24  H   ILE d   1      -7.873  37.023  14.624  0.00  0.00     0.088 H 
ATOM     25  N   ASP d   1      -9.566  34.357  13.735  0.00  0.00    -0.345 N 
ATOM     26  CA  ASP d   1     -10.228  33.679  12.615  0.00  0.00     0.098 C 
ATOM     27  C   ASP d   1     -11.610  34.246  12.408  0.00  0.00     0.241 C 
ATOM     28  O   ASP d   1     -12.333  33.749  11.551  0.00  0.00    -0.271 OA
ATOM     29  N   ASP d   1     -14.686  40.002  13.194  0.00  0.00    -0.346 N 
ATOM     30  CA  ASP d   1     -16.015  40.500  13.638  0.00  0.00     0.098 C 
ATOM     31  C   ASP d   1     -16.317  40.044  15.062  0.00  0.00     0.241 C 
ATOM     32  O   ASP d   1     -16.722  40.858  15.922  0.00  0.00    -0.271 OA
ATOM     33  H   ASP d   1      -9.748  34.043  14.688  0.00  0.00     0.163 HD
ATOM     34  H   ASP d   1      -9.604  33.862  11.740  0.00  0.00     0.088 H 
ATOM     35  H   ASP d   1     -14.645  39.442  12.343  0.00  0.00     0.163 HD
ATOM     36  H   ASP d   1     -15.990  41.589  13.591  0.00  0.00     0.088 H 
ATOM     37  N   ASN d   1     -11.986  35.240  13.212  0.00  0.00    -0.346 N 
ATOM     38  CA  ASN d   1     -13.267  35.894  13.000  0.00  0.00     0.097 C 
ATOM     39  C   ASN d   1     -13.188  37.284  13.623  0.00  0.00     0.241 C 
ATOM     40  O   ASN d   1     -13.460  37.520  14.816  0.00  0.00    -0.271 OA
ATOM     41  H   ASN d   1     -11.377  35.541  13.973  0.00  0.00     0.163 HD
ATOM     42  H   ASN d   1     -13.455  35.997  11.931  0.00  0.00     0.088 H 
ATOM     43  N   LEU d   1     -12.691  38.194  12.789  0.00  0.00    -0.346 N 
ATOM     44  CA  LEU d   1     -12.305  39.513  13.308  0.00  0.00     0.089 C 
ATOM     45  C   LEU d   1     -13.537  40.244  13.844  0.00  0.00     0.241 C 
ATOM     46  O   LEU d   1     -13.420  40.986  14.841  0.00  0.00    -0.271 OA
ATOM     47  H   LEU d   1     -12.579  37.978  11.799  0.00  0.00     0.163 HD
ATOM     48  H   LEU d   1     -11.617  39.407  14.146  0.00  0.00     0.087 H 
ENDROOT
BRANCH   8  49
ATOM     49  CB  ARG d   1     -13.339  40.591  19.174  0.00  0.00    -0.036 C 
ATOM     50  H   ARG d   1     -12.380  40.730  19.674  0.00  0.00     0.036 H 
ATOM     51  H   ARG d   1     -14.075  40.068  19.784  0.00  0.00     0.036 H 
BRANCH  49  52
ATOM     52  CG  ARG d   1     -13.920  42.024  18.854  0.00  0.00    -0.048 C 
ATOM     53  H   ARG d   1     -14.841  41.877  18.290  0.00  0.00     0.035 H 
ATOM     54  H   ARG d   1     -13.145  42.571  18.317  0.00  0.00     0.035 H 
BRANCH  52  55
ATOM     55  CD  ARG d   1     -14.283  42.862  20.106  0.00  0.00     0.009 C 
ATOM     56  H   ARG d   1     -13.353  43.227  20.543  0.00  0.00     0.064 H 
ATOM     57  H   ARG d   1     -14.848  42.221  20.782  0.00  0.00     0.064 H 
BRANCH  55  58
ATOM     58  NE  ARG d   1     -15.122  44.034  19.791  0.00  0.00    -0.227 N 
ATOM     59  CZ  ARG d   1     -15.912  44.678  20.662  0.00  0.00     0.665 C 
ATOM     60  NH1 ARG d   1     -16.000  44.291  21.929  0.00  0.00    -0.235 N 
ATOM     61  NH2 ARG d   1     -16.636  45.713  20.269  0.00  0.00    -0.235 N 
ATOM     62  H   ARG d   1     -15.460  43.490  22.256  0.00  0.00     0.174 HD
ATOM     63  H   ARG d   1     -16.607  44.795  22.575  0.00  0.00     0.174 HD
ATOM     64  H   ARG d   1     -16.595  46.025  19.299  0.00  0.00     0.174 HD
ATOM     65  H   ARG d   1     -17.235  46.199  20.936  0.00  0.00     0.174 HD
ATOM     66  H   ARG d   1     -15.099  44.383  18.833  0.00  0.00     0.177 HD
ENDBRANCH  55  58
ENDBRANCH  52  55
ENDBRANCH  49  52
ENDBRANCH   8  49
BRANCH   2  67
ATOM     67  CB  ALA d   1     -16.447  36.545  16.456  0.00  0.00    -0.049 C 
ATOM     68  H   ALA d   1     -15.512  36.128  16.082  0.00  0.00     0.030 H 
ATOM     69  H   ALA d   1     -16.682  36.102  17.424  0.00  0.00     0.030 H 
ATOM     70  H   ALA d   1     -17.250  36.330  15.751  0.00  0.00     0.030 H 
ENDBRANCH   2  67
BRANCH  14  71
ATOM     71  CB  LYS d   1     -11.867  35.177  17.007  0.00  0.00    -0.038 C 
ATOM     72  H   LYS d   1     -11.139  34.368  17.073  0.00  0.00     0.036 H 
ATOM     73  H   LYS d   1     -12.412  35.238  16.065  0.00  0.00     0.036 H 
BRANCH  71  74
ATOM     74  CG  LYS d   1     -12.901  34.921  18.091  0.00  0.00    -0.061 C 
ATOM     75  H   LYS d   1     -13.410  33.985  17.862  0.00  0.00     0.033 H 
ATOM     76  H   LYS d   1     -13.589  35.766  18.112  0.00  0.00     0.033 H 
BRANCH  74  77
ATOM     77  CD  LYS d   1     -12.261  34.791  19.475  0.00  0.00    -0.043 C 
ATOM     78  H   LYS d   1     -11.720  35.698  19.745  0.00  0.00     0.035 H 
ATOM     79  H   LYS d   1     -11.529  33.984  19.495  0.00  0.00     0.035 H 
BRANCH  77  80
ATOM     80  CE  LYS d   1     -13.402  34.522  20.446  0.00  0.00     0.080 C 
ATOM     81  H   LYS d   1     -13.791  33.522  20.252  0.00  0.00     0.075 H 
ATOM     82  H   LYS d   1     -14.166  35.286  20.299  0.00  0.00     0.075 H 
BRANCH  80  83
ATOM     83  NZ  LYS d   1     -12.951  34.580  21.839  0.00  0.00    -0.079 N 
ATOM     84  H   LYS d   1     -13.740  34.395  22.459  0.00  0.00     0.274 HD
ATOM     85  H   LYS d   1     -12.227  33.878  21.990  0.00  0.00     0.274 HD
ATOM     86  H   LYS d   1     -12.573  35.507  22.035  0.00  0.00     0.274 HD
ENDBRANCH  80  83
ENDBRANCH  77  80
ENDBRANCH  74  77
ENDBRANCH  71  74
ENDBRANCH  14  71
BRANCH  30  87
ATOM     87  CB  ASP d   1     -17.119  39.939  12.728  0.00  0.00     0.043 C 
ATOM     88  H   ASP d   1     -18.064  40.006  13.268  0.00  0.00     0.052 H 
ATOM     89  H   ASP d   1     -16.852  38.914  12.472  0.00  0.00     0.052 H 
BRANCH  87  90
ATOM     90  CG  ASP d   1     -17.265  40.717  11.438  0.00  0.00     0.175 C 
ATOM     91  OD1 ASP d   1     -16.749  41.850  11.365  0.00  0.00    -0.648 OA
ATOM     92  OD2 ASP d   1     -17.897  40.194  10.489  0.00  0.00    -0.648 OA
ENDBRANCH  87  90
ENDBRANCH  30  87
BRANCH  20  93
ATOM     93  CB  ILE d   1      -6.785  35.178  15.146  0.00  0.00    -0.030 C 
ATOM     94  H   ILE d   1      -6.631  35.319  16.216  0.00  0.00     0.043 H 
BRANCH  93  95
ATOM     95  CG1 ILE d   1      -5.606  35.690  14.340  0.00  0.00    -0.063 C 
ATOM     96  H   ILE d   1      -5.975  36.121  13.409  0.00  0.00     0.033 H 
ATOM     97  H   ILE d   1      -4.930  34.860  14.137  0.00  0.00     0.033 H 
BRANCH  95  98
ATOM     98  CD1 ILE d   1      -4.879  36.724  15.087  0.00  0.00    -0.076 C 
ATOM     99  H   ILE d   1      -5.550  37.556  15.300  0.00  0.00     0.027 H 
ATOM    100  H   ILE d   1      -4.511  36.303  16.023  0.00  0.00     0.027 H 
ATOM    101  H   ILE d   1      -4.038  37.077  14.491  0.00  0.00     0.027 H 
ENDBRANCH  95  98
ENDBRANCH  93  95
BRANCH  93 102
ATOM    102  CG2 ILE d   1      -6.905  33.753  14.810  0.00  0.00    -0.071 C 
ATOM    103  H   ILE d   1      -7.726  33.315  15.378  0.00  0.00     0.028 H 
ATOM    104  H   ILE d   1      -7.102  33.648  13.743  0.00  0.00     0.028 H 
ATOM    105  H   ILE d   1      -5.975  33.242  15.061  0.00  0.00     0.028 H 
ENDBRANCH  93 102
ENDBRANCH  20  93
BRANCH  44 106
ATOM    106  CB  LEU d   1     -11.571  40.293  12.217  0.00  0.00    -0.035 C 
ATOM    107  H   LEU d   1     -11.565  41.340  12.519  0.00  0.00     0.037 H 
ATOM    108  H   LEU d   1     -12.092  40.102  11.279  0.00  0.00     0.037 H 
BRANCH 106 109
ATOM    109  CG  LEU d   1     -10.105  39.869  12.017  0.00  0.00    -0.059 C 
ATOM    110  H   LEU d   1     -10.053  38.853  11.625  0.00  0.00     0.038 H 
BRANCH 109 111
ATOM    111  CD1 LEU d   1      -9.546  40.942  11.093  0.00  0.00    -0.073 C 
ATOM    112  H   LEU d   1     -10.108  40.944  10.159  0.00  0.00     0.028 H 
ATOM    113  H   LEU d   1      -9.634  41.916  11.574  0.00  0.00     0.028 H 
ATOM    114  H   LEU d   1      -8.497  40.731  10.886  0.00  0.00     0.028 H 
ENDBRANCH 109 111
BRANCH 109 115
ATOM    115  CD2 LEU d   1      -9.242  39.818  13.371  0.00  0.00    -0.073 C 
ATOM    116  H   LEU d   1      -9.229  40.807  13.830  0.00  0.00     0.028 H 
ATOM    117  H   LEU d   1      -9.691  39.102  14.060  0.00  0.00     0.028 H 
ATOM    118  H   LEU d   1      -8.222  39.511  13.139  0.00  0.00     0.028 H 
ENDBRANCH 109 115
ENDBRANCH 106 109
ENDBRANCH  44 106
BRANCH  26 119
ATOM    119  CB  ASP d   1     -10.321  32.131  12.787  0.00  0.00     0.043 C 
ATOM    120  H   ASP d   1      -9.311  31.727  12.715  0.00  0.00     0.052 H 
ATOM    121  H   ASP d   1     -10.987  31.749  12.013  0.00  0.00     0.052 H 
BRANCH 119 122
ATOM    122  CG  ASP d   1     -10.893  31.718  14.139  0.00  0.00     0.175 C 
ATOM    123  OD1 ASP d   1     -11.073  30.494  14.325  0.00  0.00    -0.648 OA
ATOM    124  OD2 ASP d   1     -11.178  32.591  15.017  0.00  0.00    -0.648 OA
ENDBRANCH 119 122
ENDBRANCH  26 119
BRANCH  38 125
ATOM    125  CB  ASN d   1     -14.466  35.060  13.463  0.00  0.00     0.036 C 
ATOM    126  H   ASN d   1     -14.437  35.001  14.551  0.00  0.00     0.051 H 
ATOM    127  H   ASN d   1     -14.397  34.079  12.994  0.00  0.00     0.051 H 
BRANCH 125 128
ATOM    128  CG  ASN d   1     -15.824  35.699  13.050  0.00  0.00     0.217 C 
ATOM    129  OD1 ASN d   1     -15.889  36.819  12.530  0.00  0.00    -0.274 OA
ATOM    130  ND2 ASN d   1     -16.899  34.972  13.292  0.00  0.00    -0.370 N 
ATOM    131  H   ASN d   1     -17.822  35.330  13.049  0.00  0.00     0.159 HD
ATOM    132  H   ASN d   1     -16.806  34.052  13.723  0.00  0.00     0.159 HD
ENDBRANCH 125 128
ENDBRANCH  38 125
TORSDOF 24
