REMARK  25 active torsions:
REMARK  status: ('A' for Active; 'I' for Inactive)
REMARK    1  A    between atoms: CA_2  and  CB_5 
REMARK    2  A    between atoms: CB_5  and  OG_6 
REMARK    3  A    between atoms: CA_8  and  CB_11 
REMARK    4  A    between atoms: CB_11  and  CG_12 
REMARK    5  A    between atoms: CG_12  and  CD1_13 
REMARK    6  A    between atoms: CG_12  and  CD2_14 
REMARK    7  A    between atoms: CA_16  and  CB_19 
REMARK    8  A    between atoms: CB_19  and  CG_20 
REMARK    9  A    between atoms: CG_20  and  CD_21 
REMARK   10  A    between atoms: CD_21  and  CE_22 
REMARK   11  A    between atoms: CE_22  and  NZ_23 
REMARK   12  A    between atoms: CA_25  and  CB_28 
REMARK   13  A    between atoms: CB_28  and  CG1_29 
REMARK   14  A    between atoms: CB_28  and  CG2_30 
REMARK   15  A    between atoms: CG1_29  and  CD1_31 
REMARK   16  A    between atoms: CA_33  and  CB_36 
REMARK   17  A    between atoms: CB_36  and  CG_37 
REMARK   18  A    between atoms: CA_41  and  CB_44 
REMARK   19  A    between atoms: CB_44  and  CG_45 
REMARK       I    between atoms: CG_45  and  ND2_47 
REMARK   20  A    between atoms: CA_49  and  CB_52 
REMARK   21  A    between atoms: CB_52  and  CG_53 
REMARK   22  A    between atoms: CG_53  and  SD_54 
REMARK   23  A    between atoms: SD_54  and  CE_55 
REMARK   24  A    between atoms: CA_57  and  CB_60 
REMARK   25  A    between atoms: CB_60  and  CG_61 
ROOT
ATOM      1  N   SER d   1       9.119 -52.996  13.152  0.00  0.00    -0.344 N 
ATOM      2  CA  SER d   1       9.540 -53.106  14.537  0.00  0.00     0.109 C 
ATOM      3  C   SER d   1       8.787 -52.154  15.455  0.00  0.00     0.243 C 
ATOM      4  O   SER d   1       9.270 -51.904  16.575  0.00  0.00    -0.271 OA
ATOM      5  H1  SER d   1       9.354 -52.171  12.637  0.00  0.00     0.163 HD
ATOM      6  H2  SER d   1       9.369 -54.139  14.873  0.00  0.00     0.090 H 
ATOM      7  N   LEU d   1       7.618 -51.700  14.996  0.00  0.00    -0.346 N 
ATOM      8  CA  LEU d   1       6.695 -50.791  15.650  0.00  0.00     0.089 C 
ATOM      9  C   LEU d   1       7.401 -49.487  16.123  0.00  0.00     0.241 C 
ATOM     10  O   LEU d   1       7.109 -49.002  17.232  0.00  0.00    -0.271 OA
ATOM     11  H6  LEU d   1       7.345 -52.026  14.091  0.00  0.00     0.163 HD
ATOM     12  H7  LEU d   1       5.954 -50.500  14.891  0.00  0.00     0.087 H 
ATOM     13  N   LYS d   1       8.301 -48.952  15.286  0.00  0.00    -0.346 N 
ATOM     14  CA  LYS d   1       8.962 -47.669  15.512  0.00  0.00     0.089 C 
ATOM     15  C   LYS d   1       8.505 -46.759  14.375  0.00  0.00     0.241 C 
ATOM     16  O   LYS d   1       8.155 -47.252  13.288  0.00  0.00    -0.271 OA
ATOM     17  H17 LYS d   1       8.534 -49.461  14.458  0.00  0.00     0.163 HD
ATOM     18  H18 LYS d   1       8.684 -47.254  16.492  0.00  0.00     0.087 H 
ATOM     19  N   ILE d   1       8.527 -45.441  14.614  0.00  0.00    -0.346 N 
ATOM     20  CA  ILE d   1       8.017 -44.530  13.601  0.00  0.00     0.092 C 
ATOM     21  C   ILE d   1       8.842 -44.594  12.330  0.00  0.00     0.241 C 
ATOM     22  O   ILE d   1       8.333 -44.245  11.225  0.00  0.00    -0.271 OA
ATOM     23  H30 ILE d   1       8.889 -45.088  15.477  0.00  0.00     0.163 HD
ATOM     24  H31 ILE d   1       6.984 -44.818  13.355  0.00  0.00     0.088 H 
ATOM     25  N   ASP d   1      10.126 -44.878  12.504  0.00  0.00    -0.345 N 
ATOM     26  CA  ASP d   1      11.034 -45.043  11.391  0.00  0.00     0.098 C 
ATOM     27  C   ASP d   1      11.161 -46.490  10.906  0.00  0.00     0.241 C 
ATOM     28  O   ASP d   1      11.933 -46.702   9.933  0.00  0.00    -0.271 OA
ATOM     29  N   ASP d   1       7.796 -52.251  10.890  0.00  0.00    -0.346 N 
ATOM     30  CA  ASP d   1       7.921 -53.719  11.090  0.00  0.00     0.098 C 
ATOM     31  C   ASP d   1       8.426 -53.965  12.544  0.00  0.00     0.241 C 
ATOM     32  O   ASP d   1       8.202 -55.059  13.085  0.00  0.00    -0.271 OA
ATOM     33  H41 ASP d   1      10.477 -44.981  13.435  0.00  0.00     0.163 HD
ATOM     34  H42 ASP d   1      10.618 -44.456  10.559  0.00  0.00     0.088 H 
ATOM     35  H60 ASP d   1       8.344 -51.774  10.203  0.00  0.00     0.163 HD
ATOM     36  H61 ASP d   1       6.955 -54.213  10.911  0.00  0.00     0.088 H 
ATOM     37  N   ASN d   1      10.350 -47.415  11.434  0.00  0.00    -0.346 N 
ATOM     38  CA  ASN d   1      10.405 -48.837  11.020  0.00  0.00     0.097 C 
ATOM     39  C   ASN d   1       9.285 -49.575  11.602  0.00  0.00     0.241 C 
ATOM     40  O   ASN d   1       9.448 -50.109  12.726  0.00  0.00    -0.271 OA
ATOM     41  H45 ASN d   1       9.687 -47.138  12.129  0.00  0.00     0.163 HD
ATOM     42  H46 ASN d   1      10.342 -48.893   9.923  0.00  0.00     0.088 H 
ATOM     43  N   MET d   1       8.133 -49.531  10.931  0.00  0.00    -0.346 N 
ATOM     44  CA  MET d   1       6.918 -50.042  11.578  0.00  0.00     0.090 C 
ATOM     45  C   MET d   1       6.926 -51.592  11.660  0.00  0.00     0.241 C 
ATOM     46  O   MET d   1       6.137 -52.160  12.449  0.00  0.00    -0.271 OA
ATOM     47  H51 MET d   1       8.098 -49.157  10.004  0.00  0.00     0.163 HD
ATOM     48  H52 MET d   1       6.915 -49.661  12.610  0.00  0.00     0.087 H 
ENDROOT
BRANCH  14  49
ATOM     49  CB  LYS d   1      10.452 -47.824  15.415  0.00  0.00    -0.038 C 
ATOM     50  H19 LYS d   1      10.930 -46.856  15.629  0.00  0.00     0.036 H 
ATOM     51  H20 LYS d   1      10.715 -48.146  14.397  0.00  0.00     0.036 H 
BRANCH  49  52
ATOM     52  CG  LYS d   1      10.963 -48.874  16.425  0.00  0.00    -0.061 C 
ATOM     53  H21 LYS d   1      12.039 -49.034  16.259  0.00  0.00     0.033 H 
ATOM     54  H22 LYS d   1      10.422 -49.818  16.262  0.00  0.00     0.033 H 
BRANCH  52  55
ATOM     55  CD  LYS d   1      10.751 -48.432  17.845  0.00  0.00    -0.043 C 
ATOM     56  H23 LYS d   1       9.674 -48.391  18.066  0.00  0.00     0.035 H 
ATOM     57  H24 LYS d   1      11.194 -47.437  17.996  0.00  0.00     0.035 H 
BRANCH  55  58
ATOM     58  CE  LYS d   1      11.451 -49.477  18.792  0.00  0.00     0.080 C 
ATOM     59  H25 LYS d   1      12.542 -49.338  18.781  0.00  0.00     0.075 H 
ATOM     60  H26 LYS d   1      11.209 -50.504  18.480  0.00  0.00     0.075 H 
BRANCH  58  61
ATOM     61  NZ  LYS d   1      10.911 -49.205  20.128  0.00  0.00    -0.079 N 
ATOM     62  H27 LYS d   1      11.320 -49.844  20.792  0.00  0.00     0.274 HD
ATOM     63  H28 LYS d   1       9.910 -49.326  20.117  0.00  0.00     0.274 HD
ATOM     64  H29 LYS d   1      11.132 -48.258  20.393  0.00  0.00     0.274 HD
ENDBRANCH  58  61
ENDBRANCH  55  58
ENDBRANCH  52  55
ENDBRANCH  49  52
ENDBRANCH  14  49
BRANCH   8  65
ATOM     65  CB  LEU d   1       5.885 -51.453  16.851  0.00  0.00    -0.035 C 
ATOM     66  H8  LEU d   1       5.296 -50.659  17.333  0.00  0.00     0.037 H 
ATOM     67  H9  LEU d   1       6.618 -51.852  17.567  0.00  0.00     0.037 H 
BRANCH  65  68
ATOM     68  CG  LEU d   1       4.901 -52.615  16.482  0.00  0.00    -0.059 C 
ATOM     69  H10 LEU d   1       5.486 -53.403  15.985  0.00  0.00     0.038 H 
BRANCH  68  70
ATOM     70  CD1 LEU d   1       4.267 -53.198  17.740  0.00  0.00    -0.073 C 
ATOM     71  H11 LEU d   1       3.580 -54.011  17.462  0.00  0.00     0.028 H 
ATOM     72  H12 LEU d   1       3.708 -52.411  18.268  0.00  0.00     0.028 H 
ATOM     73  H13 LEU d   1       5.055 -53.593  18.398  0.00  0.00     0.028 H 
ENDBRANCH  68  70
BRANCH  68  74
ATOM     74  CD2 LEU d   1       3.767 -52.181  15.521  0.00  0.00    -0.073 C 
ATOM     75  H14 LEU d   1       4.205 -51.757  14.605  0.00  0.00     0.028 H 
ATOM     76  H15 LEU d   1       3.140 -51.423  16.013  0.00  0.00     0.028 H 
ATOM     77  H16 LEU d   1       3.151 -53.055  15.262  0.00  0.00     0.028 H 
ENDBRANCH  68  74
ENDBRANCH  65  68
ENDBRANCH   8  65
BRANCH  20  78
ATOM     78  CB  ILE d   1       8.009 -43.081  14.195  0.00  0.00    -0.030 C 
ATOM     79  H32 ILE d   1       9.030 -42.833  14.522  0.00  0.00     0.043 H 
BRANCH  78  80
ATOM     80  CG1 ILE d   1       7.044 -43.005  15.431  0.00  0.00    -0.063 C 
ATOM     81  H33 ILE d   1       7.157 -42.012  15.890  0.00  0.00     0.033 H 
ATOM     82  H34 ILE d   1       7.351 -43.778  16.150  0.00  0.00     0.033 H 
BRANCH  80  83
ATOM     83  CD1 ILE d   1       5.487 -43.225  15.100  0.00  0.00    -0.076 C 
ATOM     84  H38 ILE d   1       4.901 -43.153  16.028  0.00  0.00     0.027 H 
ATOM     85  H39 ILE d   1       5.344 -44.220  14.653  0.00  0.00     0.027 H 
ATOM     86  H40 ILE d   1       5.150 -42.453  14.393  0.00  0.00     0.027 H 
ENDBRANCH  80  83
ENDBRANCH  78  80
BRANCH  78  87
ATOM     87  CG2 ILE d   1       7.558 -42.039  13.144  0.00  0.00    -0.071 C 
ATOM     88  H35 ILE d   1       8.228 -42.084  12.273  0.00  0.00     0.028 H 
ATOM     89  H36 ILE d   1       7.597 -41.032  13.585  0.00  0.00     0.028 H 
ATOM     90  H37 ILE d   1       6.528 -42.260  12.826  0.00  0.00     0.028 H 
ENDBRANCH  78  87
ENDBRANCH  20  78
BRANCH   2  91
ATOM     91  CB  SER d   1      11.015 -52.771  14.654  0.00  0.00     0.044 C 
ATOM     92  H3  SER d   1      11.322 -52.823  15.709  0.00  0.00     0.077 H 
ATOM     93  H4  SER d   1      11.193 -51.756  14.270  0.00  0.00     0.077 H 
BRANCH  91  94
ATOM     94  OG  SER d   1      11.762 -53.698  13.900  0.00  0.00    -0.398 OA
ATOM     95  H5  SER d   1      12.686 -53.491  13.971  0.00  0.00     0.209 HD
ENDBRANCH  91  94
ENDBRANCH   2  91
BRANCH  26  96
ATOM     96  CB  ASP d   1      12.471 -44.476  11.697  0.00  0.00     0.043 C 
ATOM     97  H43 ASP d   1      12.396 -43.387  11.834  0.00  0.00     0.052 H 
ATOM     98  H44 ASP d   1      13.123 -44.694  10.838  0.00  0.00     0.052 H 
BRANCH  96  99
ATOM     99  CG  ASP d   1      13.104 -45.082  12.955  0.00  0.00     0.175 C 
ATOM    100  OD1 ASP d   1      14.334 -44.832  13.217  0.00  0.00    -0.648 OA
ATOM    101  OD2 ASP d   1      12.410 -45.786  13.732  0.00  0.00    -0.648 OA
ENDBRANCH  96  99
ENDBRANCH  26  96
BRANCH  30 102
ATOM    102  CB  ASP d   1       8.982 -54.288  10.204  0.00  0.00     0.043 C 
ATOM    103  H62 ASP d   1       9.178 -55.325  10.512  0.00  0.00     0.052 H 
ATOM    104  H63 ASP d   1       9.898 -53.691  10.324  0.00  0.00     0.052 H 
BRANCH 102 105
ATOM    105  CG  ASP d   1       8.581 -54.284   8.706  0.00  0.00     0.175 C 
ATOM    106  OD1 ASP d   1       7.360 -54.112   8.432  0.00  0.00    -0.648 OA
ATOM    107  OD2 ASP d   1       9.494 -54.482   7.872  0.00  0.00    -0.648 OA
ENDBRANCH 102 105
ENDBRANCH  30 102
BRANCH  38 108
ATOM    108  CB  ASN d   1      11.741 -49.474  11.486  0.00  0.00     0.036 C 
ATOM    109  H47 ASN d   1      11.787 -49.443  12.585  0.00  0.00     0.051 H 
ATOM    110  H48 ASN d   1      12.577 -48.895  11.067  0.00  0.00     0.051 H 
BRANCH 108 111
ATOM    111  CG  ASN d   1      11.867 -50.947  11.020  0.00  0.00     0.217 C 
ATOM    112  OD1 ASN d   1      10.920 -51.505  10.529  0.00  0.00    -0.274 OA
ATOM    113  ND2 ASN d   1      13.072 -51.523  11.129  0.00  0.00    -0.370 N 
ATOM    114  H49 ASN d   1      13.200 -52.472  10.841  0.00  0.00     0.159 HD
ATOM    115  H50 ASN d   1      13.843 -51.004  11.499  0.00  0.00     0.159 HD
ENDBRANCH 108 111
ENDBRANCH  38 108
BRANCH  44 116
ATOM    116  CB  MET d   1       5.658 -49.524  10.907  0.00  0.00    -0.030 C 
ATOM    117  H53 MET d   1       4.824 -50.204  11.135  0.00  0.00     0.037 H 
ATOM    118  H54 MET d   1       5.817 -49.490   9.819  0.00  0.00     0.037 H 
BRANCH 116 119
ATOM    119  CG  MET d   1       5.305 -48.099  11.413  0.00  0.00    -0.021 C 
ATOM    120  H55 MET d   1       4.396 -47.764  10.892  0.00  0.00     0.049 H 
ATOM    121  H56 MET d   1       6.140 -47.428  11.162  0.00  0.00     0.049 H 
BRANCH 119 122
ATOM    122  SD  MET d   1       5.004 -47.990  13.225  0.00  0.00    -0.173 SA
BRANCH 122 123
ATOM    123  CE  MET d   1       3.397 -48.610  13.164  0.00  0.00    -0.035 C 
ATOM    124  H57 MET d   1       2.978 -48.644  14.181  0.00  0.00     0.041 H 
ATOM    125  H58 MET d   1       3.411 -49.625  12.739  0.00  0.00     0.041 H 
ATOM    126  H59 MET d   1       2.776 -47.957  12.533  0.00  0.00     0.041 H 
ENDBRANCH 122 123
ENDBRANCH 119 122
ENDBRANCH 116 119
ENDBRANCH  44 116
TORSDOF 25
