REMARK  24 active torsions:
REMARK  status: ('A' for Active; 'I' for Inactive)
REMARK    1  A    between atoms: CA_2  and  CB_5 
REMARK    2  A    between atoms: CA_7  and  CB_10 
REMARK    3  A    between atoms: CB_10  and  CG_11 
REMARK    4  A    between atoms: CG_11  and  CD1_12 
REMARK    5  A    between atoms: CG_11  and  CD2_13 
REMARK    6  A    between atoms: CA_15  and  CB_18 
REMARK    7  A    between atoms: CB_18  and  CG_19 
REMARK    8  A    between atoms: CG_19  and  CD_20 
REMARK    9  A    between atoms: CD_20  and  CE_21 
REMARK   10  A    between atoms: CE_21  and  NZ_22 
REMARK   11  A    between atoms: CA_24  and  CB_27 
REMARK   12  A    between atoms: CB_27  and  CG1_28 
REMARK   13  A    between atoms: CB_27  and  CG2_29 
REMARK   14  A    between atoms: CG1_28  and  CD1_30 
REMARK   15  A    between atoms: CA_32  and  CB_35 
REMARK   16  A    between atoms: CB_35  and  CG_36 
REMARK   17  A    between atoms: CA_40  and  CB_43 
REMARK   18  A    between atoms: CB_43  and  CG_44 
REMARK       I    between atoms: CG_44  and  ND2_46 
REMARK   19  A    between atoms: CA_48  and  CB_51 
REMARK   20  A    between atoms: CB_51  and  CG_52 
REMARK   21  A    between atoms: CG_52  and  SD_53 
REMARK   22  A    between atoms: SD_53  and  CE_54 
REMARK   23  A    between atoms: CA_56  and  CB_59 
REMARK   24  A    between atoms: CB_59  and  CG_60 
ROOT
ATOM      1  N   ALA d   1       9.249 -52.949  13.159  0.00  0.00    -0.346 N 
ATOM      2  CA  ALA d   1       9.766 -53.035  14.539  0.00  0.00     0.086 C 
ATOM      3  C   ALA d   1       8.891 -52.176  15.491  0.00  0.00     0.240 C 
ATOM      4  O   ALA d   1       9.308 -51.974  16.638  0.00  0.00    -0.271 OA
ATOM      5  H1  ALA d   1       9.458 -52.130  12.625  0.00  0.00     0.163 HD
ATOM      6  H2  ALA d   1       9.734 -54.086  14.863  0.00  0.00     0.086 H 
ATOM      7  N   LEU d   1       7.699 -51.787  15.047  0.00  0.00    -0.346 N 
ATOM      8  CA  LEU d   1       6.748 -50.861  15.694  0.00  0.00     0.089 C 
ATOM      9  C   LEU d   1       7.463 -49.576  16.160  0.00  0.00     0.241 C 
ATOM     10  O   LEU d   1       7.195 -49.082  17.285  0.00  0.00    -0.271 OA
ATOM     11  H6  LEU d   1       7.412 -52.168  14.168  0.00  0.00     0.163 HD
ATOM     12  H7  LEU d   1       6.005 -50.577  14.934  0.00  0.00     0.087 H 
ATOM     13  N   LYS d   1       8.331 -49.035  15.304  0.00  0.00    -0.346 N 
ATOM     14  CA  LYS d   1       8.948 -47.731  15.563  0.00  0.00     0.089 C 
ATOM     15  C   LYS d   1       8.493 -46.797  14.424  0.00  0.00     0.241 C 
ATOM     16  O   LYS d   1       8.139 -47.269  13.333  0.00  0.00    -0.271 OA
ATOM     17  H17 LYS d   1       8.566 -49.530  14.467  0.00  0.00     0.163 HD
ATOM     18  H18 LYS d   1       8.628 -47.341  16.541  0.00  0.00     0.087 H 
ATOM     19  N   ILE d   1       8.522 -45.485  14.668  0.00  0.00    -0.346 N 
ATOM     20  CA  ILE d   1       8.023 -44.553  13.667  0.00  0.00     0.092 C 
ATOM     21  C   ILE d   1       8.845 -44.640  12.399  0.00  0.00     0.241 C 
ATOM     22  O   ILE d   1       8.380 -44.301  11.299  0.00  0.00    -0.271 OA
ATOM     23  H30 ILE d   1       8.885 -45.144  15.535  0.00  0.00     0.163 HD
ATOM     24  H31 ILE d   1       6.985 -44.823  13.423  0.00  0.00     0.088 H 
ATOM     25  N   ASP d   1      10.127 -44.951  12.597  0.00  0.00    -0.345 N 
ATOM     26  CA  ASP d   1      11.025 -45.051  11.484  0.00  0.00     0.098 C 
ATOM     27  C   ASP d   1      11.141 -46.482  10.961  0.00  0.00     0.241 C 
ATOM     28  O   ASP d   1      11.958 -46.703  10.052  0.00  0.00    -0.271 OA
ATOM     29  N   ASP d   1       7.889 -52.220  10.926  0.00  0.00    -0.346 N 
ATOM     30  CA  ASP d   1       7.984 -53.686  11.144  0.00  0.00     0.098 C 
ATOM     31  C   ASP d   1       8.514 -53.912  12.584  0.00  0.00     0.241 C 
ATOM     32  O   ASP d   1       8.298 -55.017  13.146  0.00  0.00    -0.271 OA
ATOM     33  H41 ASP d   1      10.463 -45.115  13.525  0.00  0.00     0.163 HD
ATOM     34  H42 ASP d   1      10.616 -44.428  10.675  0.00  0.00     0.088 H 
ATOM     35  H60 ASP d   1       8.464 -51.744  10.261  0.00  0.00     0.163 HD
ATOM     36  H61 ASP d   1       7.011 -54.172  10.981  0.00  0.00     0.088 H 
ATOM     37  N   ASN d   1      10.386 -47.452  11.483  0.00  0.00    -0.346 N 
ATOM     38  CA  ASN d   1      10.433 -48.877  11.042  0.00  0.00     0.097 C 
ATOM     39  C   ASN d   1       9.291 -49.593  11.679  0.00  0.00     0.241 C 
ATOM     40  O   ASN d   1       9.429 -50.123  12.782  0.00  0.00    -0.271 OA
ATOM     41  H45 ASN d   1       9.750 -47.208  12.215  0.00  0.00     0.163 HD
ATOM     42  H46 ASN d   1      10.333 -48.929   9.948  0.00  0.00     0.088 H 
ATOM     43  N   MET d   1       8.148 -49.539  11.003  0.00  0.00    -0.346 N 
ATOM     44  CA  MET d   1       6.950 -50.053  11.664  0.00  0.00     0.090 C 
ATOM     45  C   MET d   1       6.982 -51.573  11.678  0.00  0.00     0.241 C 
ATOM     46  O   MET d   1       6.205 -52.160  12.459  0.00  0.00    -0.271 OA
ATOM     47  H51 MET d   1       8.109 -49.161  10.078  0.00  0.00     0.163 HD
ATOM     48  H52 MET d   1       6.962 -49.708  12.708  0.00  0.00     0.087 H 
ENDROOT
BRANCH  14  49
ATOM     49  CB  LYS d   1      10.439 -47.841  15.518  0.00  0.00    -0.038 C 
ATOM     50  H19 LYS d   1      10.877 -46.858  15.747  0.00  0.00     0.036 H 
ATOM     51  H20 LYS d   1      10.744 -48.151  14.508  0.00  0.00     0.036 H 
BRANCH  49  52
ATOM     52  CG  LYS d   1      10.969 -48.883  16.548  0.00  0.00    -0.061 C 
ATOM     53  H21 LYS d   1      12.050 -49.009  16.391  0.00  0.00     0.033 H 
ATOM     54  H22 LYS d   1      10.459 -49.841  16.369  0.00  0.00     0.033 H 
BRANCH  52  55
ATOM     55  CD  LYS d   1      10.733 -48.471  18.019  0.00  0.00    -0.043 C 
ATOM     56  H23 LYS d   1       9.653 -48.451  18.227  0.00  0.00     0.035 H 
ATOM     57  H24 LYS d   1      11.159 -47.472  18.195  0.00  0.00     0.035 H 
BRANCH  55  58
ATOM     58  CE  LYS d   1      11.441 -49.529  18.976  0.00  0.00     0.080 C 
ATOM     59  H25 LYS d   1      12.536 -49.433  18.931  0.00  0.00     0.075 H 
ATOM     60  H26 LYS d   1      11.152 -50.557  18.712  0.00  0.00     0.075 H 
BRANCH  58  61
ATOM     61  NZ  LYS d   1      10.927 -49.157  20.319  0.00  0.00    -0.079 N 
ATOM     62  H27 LYS d   1      11.319 -49.775  21.012  0.00  0.00     0.274 HD
ATOM     63  H28 LYS d   1       9.922 -49.237  20.328  0.00  0.00     0.274 HD
ATOM     64  H29 LYS d   1      11.191 -48.207  20.528  0.00  0.00     0.274 HD
ENDBRANCH  58  61
ENDBRANCH  55  58
ENDBRANCH  52  55
ENDBRANCH  49  52
ENDBRANCH  14  49
BRANCH   8  65
ATOM     65  CB  LEU d   1       5.958 -51.505  16.909  0.00  0.00    -0.035 C 
ATOM     66  H8  LEU d   1       5.382 -50.710  17.405  0.00  0.00     0.037 H 
ATOM     67  H9  LEU d   1       6.692 -51.921  17.615  0.00  0.00     0.037 H 
BRANCH  65  68
ATOM     68  CG  LEU d   1       4.962 -52.653  16.500  0.00  0.00    -0.059 C 
ATOM     69  H10 LEU d   1       5.526 -53.435  15.970  0.00  0.00     0.038 H 
BRANCH  68  70
ATOM     70  CD1 LEU d   1       4.335 -53.257  17.736  0.00  0.00    -0.073 C 
ATOM     71  H11 LEU d   1       3.641 -54.058  17.441  0.00  0.00     0.028 H 
ATOM     72  H12 LEU d   1       3.785 -52.479  18.286  0.00  0.00     0.028 H 
ATOM     73  H13 LEU d   1       5.123 -53.674  18.381  0.00  0.00     0.028 H 
ENDBRANCH  68  70
BRANCH  68  74
ATOM     74  CD2 LEU d   1       3.864 -52.121  15.565  0.00  0.00    -0.073 C 
ATOM     75  H14 LEU d   1       4.327 -51.683  14.668  0.00  0.00     0.028 H 
ATOM     76  H15 LEU d   1       3.278 -51.351  16.088  0.00  0.00     0.028 H 
ATOM     77  H16 LEU d   1       3.202 -52.948  15.269  0.00  0.00     0.028 H 
ENDBRANCH  68  74
ENDBRANCH  65  68
ENDBRANCH   8  65
BRANCH  20  78
ATOM     78  CB  ILE d   1       8.032 -43.112  14.252  0.00  0.00    -0.030 C 
ATOM     79  H32 ILE d   1       9.049 -42.909  14.618  0.00  0.00     0.043 H 
BRANCH  78  80
ATOM     80  CG1 ILE d   1       7.043 -42.974  15.461  0.00  0.00    -0.063 C 
ATOM     81  H33 ILE d   1       7.114 -41.945  15.843  0.00  0.00     0.033 H 
ATOM     82  H34 ILE d   1       7.362 -43.679  16.243  0.00  0.00     0.033 H 
BRANCH  80  83
ATOM     83  CD1 ILE d   1       5.491 -43.274  15.120  0.00  0.00    -0.076 C 
ATOM     84  H38 ILE d   1       4.885 -43.150  16.030  0.00  0.00     0.027 H 
ATOM     85  H39 ILE d   1       5.390 -44.305  14.749  0.00  0.00     0.027 H 
ATOM     86  H40 ILE d   1       5.142 -42.571  14.349  0.00  0.00     0.027 H 
ENDBRANCH  80  83
ENDBRANCH  78  80
BRANCH  78  87
ATOM     87  CG2 ILE d   1       7.690 -42.054  13.191  0.00  0.00    -0.071 C 
ATOM     88  H35 ILE d   1       8.383 -42.149  12.342  0.00  0.00     0.028 H 
ATOM     89  H36 ILE d   1       7.784 -41.050  13.630  0.00  0.00     0.028 H 
ATOM     90  H37 ILE d   1       6.658 -42.206  12.841  0.00  0.00     0.028 H 
ENDBRANCH  78  87
ENDBRANCH  20  78
BRANCH   2  91
ATOM     91  CB  ALA d   1      11.165 -52.542  14.625  0.00  0.00    -0.049 C 
ATOM     92  H3  ALA d   1      11.518 -52.620  15.664  0.00  0.00     0.030 H 
ATOM     93  H4  ALA d   1      11.204 -51.491  14.302  0.00  0.00     0.030 H 
ATOM     94  H5  ALA d   1      11.809 -53.150  13.972  0.00  0.00     0.030 H 
ENDBRANCH   2  91
BRANCH  26  95
ATOM     95  CB  ASP d   1      12.452 -44.513  11.834  0.00  0.00     0.043 C 
ATOM     96  H43 ASP d   1      12.383 -43.429  12.010  0.00  0.00     0.052 H 
ATOM     97  H44 ASP d   1      13.116 -44.704  10.978  0.00  0.00     0.052 H 
BRANCH  95  98
ATOM     98  CG  ASP d   1      13.052 -45.159  13.059  0.00  0.00     0.175 C 
ATOM     99  OD1 ASP d   1      12.397 -45.914  13.774  0.00  0.00    -0.648 OA
ATOM    100  OD2 ASP d   1      14.284 -44.901  13.323  0.00  0.00    -0.648 OA
ENDBRANCH  95  98
ENDBRANCH  26  95
BRANCH  30 101
ATOM    101  CB  ASP d   1       9.046 -54.266  10.258  0.00  0.00     0.043 C 
ATOM    102  H62 ASP d   1       9.272 -55.288  10.598  0.00  0.00     0.052 H 
ATOM    103  H63 ASP d   1       9.951 -53.645  10.336  0.00  0.00     0.052 H 
BRANCH 101 104
ATOM    104  CG  ASP d   1       8.603 -54.320   8.769  0.00  0.00     0.175 C 
ATOM    105  OD1 ASP d   1       7.349 -54.148   8.549  0.00  0.00    -0.648 OA
ATOM    106  OD2 ASP d   1       9.513 -54.550   7.924  0.00  0.00    -0.648 OA
ENDBRANCH 101 104
ENDBRANCH  30 101
BRANCH  38 107
ATOM    107  CB  ASN d   1      11.762 -49.500  11.450  0.00  0.00     0.036 C 
ATOM    108  H47 ASN d   1      11.878 -49.407  12.540  0.00  0.00     0.051 H 
ATOM    109  H48 ASN d   1      12.577 -48.959  10.947  0.00  0.00     0.051 H 
BRANCH 107 110
ATOM    110  CG  ASN d   1      11.840 -50.969  11.071  0.00  0.00     0.217 C 
ATOM    111  OD1 ASN d   1      10.896 -51.507  10.571  0.00  0.00    -0.274 OA
ATOM    112  ND2 ASN d   1      13.018 -51.546  11.204  0.00  0.00    -0.370 N 
ATOM    113  H49 ASN d   1      13.131 -52.512  10.970  0.00  0.00     0.159 HD
ATOM    114  H50 ASN d   1      13.798 -51.018  11.539  0.00  0.00     0.159 HD
ENDBRANCH 107 110
ENDBRANCH  38 107
BRANCH  44 115
ATOM    115  CB  MET d   1       5.706 -49.507  11.021  0.00  0.00    -0.030 C 
ATOM    116  H53 MET d   1       4.864 -50.167  11.277  0.00  0.00     0.037 H 
ATOM    117  H54 MET d   1       5.851 -49.504   9.931  0.00  0.00     0.037 H 
BRANCH 115 118
ATOM    118  CG  MET d   1       5.357 -48.084  11.467  0.00  0.00    -0.021 C 
ATOM    119  H55 MET d   1       4.471 -47.745  10.911  0.00  0.00     0.049 H 
ATOM    120  H56 MET d   1       6.207 -47.423  11.242  0.00  0.00     0.049 H 
BRANCH 118 121
ATOM    121  SD  MET d   1       4.995 -47.996  13.276  0.00  0.00    -0.173 SA
BRANCH 121 122
ATOM    122  CE  MET d   1       3.386 -48.723  13.221  0.00  0.00    -0.035 C 
ATOM    123  H57 MET d   1       2.969 -48.769  14.238  0.00  0.00     0.041 H 
ATOM    124  H58 MET d   1       3.457 -49.740  12.808  0.00  0.00     0.041 H 
ATOM    125  H59 MET d   1       2.730 -48.113  12.583  0.00  0.00     0.041 H 
ENDBRANCH 121 122
ENDBRANCH 118 121
ENDBRANCH 115 118
ENDBRANCH  44 115
TORSDOF 24
