REMARK  24 active torsions:
REMARK  status: ('A' for Active; 'I' for Inactive)
REMARK    1  A    between atoms: CA_2  and  CB_5 
REMARK    2  A    between atoms: CB_5  and  OG_6 
REMARK    3  A    between atoms: CA_8  and  CB_11 
REMARK    4  A    between atoms: CB_11  and  CG_12 
REMARK    5  A    between atoms: CG_12  and  CD1_13 
REMARK    6  A    between atoms: CG_12  and  CD2_14 
REMARK    7  A    between atoms: CA_16  and  CB_19 
REMARK    8  A    between atoms: CB_19  and  CG_20 
REMARK    9  A    between atoms: CG_20  and  CD_21 
REMARK   10  A    between atoms: CD_21  and  CE_22 
REMARK   11  A    between atoms: CE_22  and  NZ_23 
REMARK   12  A    between atoms: CA_25  and  CB_28 
REMARK   13  A    between atoms: CB_28  and  CG1_29 
REMARK   14  A    between atoms: CB_28  and  CG2_30 
REMARK   15  A    between atoms: CG1_29  and  CD1_31 
REMARK   16  A    between atoms: CA_33  and  CB_36 
REMARK   17  A    between atoms: CB_36  and  CG_37 
REMARK   18  A    between atoms: CA_41  and  CB_44 
REMARK   19  A    between atoms: CB_44  and  CG_45 
REMARK       I    between atoms: CG_45  and  ND2_47 
REMARK   20  A    between atoms: CA_49  and  CB_52 
REMARK   21  A    between atoms: CB_52  and  CG_53 
REMARK   22  A    between atoms: CG_53  and  CD_54 
REMARK   23  A    between atoms: CA_58  and  CB_61 
REMARK   24  A    between atoms: CB_61  and  CG_62 
ROOT
ATOM      1  N   SER d   1     -41.296  34.402 -13.968  0.00  0.00    -0.344 N 
ATOM      2  CA  SER d   1     -41.257  34.894 -15.325  0.00  0.00     0.109 C 
ATOM      3  C   SER d   1     -40.823  33.792 -16.315  0.00  0.00     0.243 C 
ATOM      4  O   SER d   1     -40.432  34.099 -17.455  0.00  0.00    -0.271 OA
ATOM      5  H1  SER d   1     -40.455  34.131 -13.500  0.00  0.00     0.163 HD
ATOM      6  H2  SER d   1     -42.289  35.161 -15.597  0.00  0.00     0.090 H 
ATOM      7  N   LEU d   1     -40.973  32.530 -15.885  0.00  0.00    -0.346 N 
ATOM      8  CA  LEU d   1     -40.663  31.311 -16.678  0.00  0.00     0.089 C 
ATOM      9  C   LEU d   1     -39.172  31.227 -17.105  0.00  0.00     0.241 C 
ATOM     10  O   LEU d   1     -38.851  30.649 -18.146  0.00  0.00    -0.271 OA
ATOM     11  H6  LEU d   1     -41.321  32.399 -14.957  0.00  0.00     0.163 HD
ATOM     12  H7  LEU d   1     -40.834  30.463 -15.999  0.00  0.00     0.087 H 
ATOM     13  N   LYS d   1     -38.279  31.757 -16.261  0.00  0.00    -0.346 N 
ATOM     14  CA  LYS d   1     -36.829  31.646 -16.477  0.00  0.00     0.089 C 
ATOM     15  C   LYS d   1     -36.293  30.771 -15.330  0.00  0.00     0.241 C 
ATOM     16  O   LYS d   1     -36.925  30.689 -14.257  0.00  0.00    -0.271 OA
ATOM     17  H17 LYS d   1     -38.610  32.246 -15.454  0.00  0.00     0.163 HD
ATOM     18  H18 LYS d   1     -36.613  31.185 -17.452  0.00  0.00     0.087 H 
ATOM     19  N   ILE d   1     -35.178  30.094 -15.566  0.00  0.00    -0.346 N 
ATOM     20  CA  ILE d   1     -34.569  29.228 -14.537  0.00  0.00     0.092 C 
ATOM     21  C   ILE d   1     -34.256  29.913 -13.229  0.00  0.00     0.241 C 
ATOM     22  O   ILE d   1     -34.330  29.276 -12.112  0.00  0.00    -0.271 OA
ATOM     23  H30 ILE d   1     -34.739  30.172 -16.461  0.00  0.00     0.163 HD
ATOM     24  H31 ILE d   1     -35.307  28.448 -14.301  0.00  0.00     0.088 H 
ATOM     25  N   ASP d   1     -33.894  31.196 -13.377  0.00  0.00    -0.345 N 
ATOM     26  CA  ASP d   1     -33.511  32.081 -12.264  0.00  0.00     0.098 C 
ATOM     27  C   ASP d   1     -34.713  32.888 -11.742  0.00  0.00     0.241 C 
ATOM     28  O   ASP d   1     -34.586  33.659 -10.748  0.00  0.00    -0.271 OA
ATOM     29  N   ASP d   1     -41.367  32.822 -11.753  0.00  0.00    -0.346 N 
ATOM     30  CA  ASP d   1     -42.498  33.751 -11.929  0.00  0.00     0.098 C 
ATOM     31  C   ASP d   1     -42.479  34.316 -13.349  0.00  0.00     0.241 C 
ATOM     32  O   ASP d   1     -43.529  34.714 -13.864  0.00  0.00    -0.271 OA
ATOM     33  H41 ASP d   1     -33.883  31.576 -14.302  0.00  0.00     0.163 HD
ATOM     34  H42 ASP d   1     -33.162  31.438 -11.443  0.00  0.00     0.088 H 
ATOM     35  H57 ASP d   1     -40.706  32.994 -11.022  0.00  0.00     0.163 HD
ATOM     36  H58 ASP d   1     -43.439  33.213 -11.742  0.00  0.00     0.088 H 
ATOM     37  N   ASN d   1     -35.894  32.668 -12.320  0.00  0.00    -0.346 N 
ATOM     38  CA  ASN d   1     -37.082  33.407 -11.869  0.00  0.00     0.097 C 
ATOM     39  C   ASN d   1     -38.318  32.795 -12.478  0.00  0.00     0.241 C 
ATOM     40  O   ASN d   1     -38.796  33.242 -13.569  0.00  0.00    -0.271 OA
ATOM     41  H45 ASN d   1     -35.972  32.000 -13.060  0.00  0.00     0.163 HD
ATOM     42  H46 ASN d   1     -37.147  33.344 -10.773  0.00  0.00     0.088 H 
ATOM     43  N   GLU d   1     -38.812  31.748 -11.825  0.00  0.00    -0.346 N 
ATOM     44  CA  GLU d   1     -39.852  30.971 -12.497  0.00  0.00     0.090 C 
ATOM     45  C   GLU d   1     -41.196  31.737 -12.557  0.00  0.00     0.241 C 
ATOM     46  O   GLU d   1     -42.047  31.328 -13.363  0.00  0.00    -0.271 OA
ATOM     47  H51 GLU d   1     -38.486  31.502 -10.912  0.00  0.00     0.163 HD
ATOM     48  H52 GLU d   1     -39.517  30.850 -13.538  0.00  0.00     0.087 H 
ENDROOT
BRANCH  14  49
ATOM     49  CB  LYS d   1     -36.202  33.024 -16.402  0.00  0.00    -0.038 C 
ATOM     50  H19 LYS d   1     -35.132  32.952 -16.645  0.00  0.00     0.036 H 
ATOM     51  H20 LYS d   1     -36.321  33.425 -15.385  0.00  0.00     0.036 H 
BRANCH  49  52
ATOM     52  CG  LYS d   1     -36.915  33.996 -17.440  0.00  0.00    -0.061 C 
ATOM     53  H21 LYS d   1     -36.541  35.021 -17.297  0.00  0.00     0.033 H 
ATOM     54  H22 LYS d   1     -38.002  33.975 -17.273  0.00  0.00     0.033 H 
BRANCH  52  55
ATOM     55  CD  LYS d   1     -36.611  33.538 -18.877  0.00  0.00    -0.043 C 
ATOM     56  H23 LYS d   1     -37.206  32.645 -19.119  0.00  0.00     0.035 H 
ATOM     57  H24 LYS d   1     -35.541  33.304 -18.977  0.00  0.00     0.035 H 
BRANCH  55  58
ATOM     58  CE  LYS d   1     -36.995  34.719 -19.849  0.00  0.00     0.080 C 
ATOM     59  H25 LYS d   1     -36.239  35.515 -19.781  0.00  0.00     0.075 H 
ATOM     60  H26 LYS d   1     -37.979  35.123 -19.569  0.00  0.00     0.075 H 
BRANCH  58  61
ATOM     61  NZ  LYS d   1     -37.046  34.198 -21.230  0.00  0.00    -0.079 N 
ATOM     62  H27 LYS d   1     -37.291  34.944 -21.862  0.00  0.00     0.274 HD
ATOM     63  H28 LYS d   1     -37.738  33.468 -21.288  0.00  0.00     0.274 HD
ATOM     64  H29 LYS d   1     -36.144  33.826 -21.483  0.00  0.00     0.274 HD
ENDBRANCH  58  61
ENDBRANCH  55  58
ENDBRANCH  52  55
ENDBRANCH  49  52
ENDBRANCH  14  49
BRANCH   8  65
ATOM     65  CB  LEU d   1     -41.627  31.090 -17.896  0.00  0.00    -0.035 C 
ATOM     66  H8  LEU d   1     -41.284  30.192 -18.431  0.00  0.00     0.037 H 
ATOM     67  H9  LEU d   1     -41.535  31.967 -18.554  0.00  0.00     0.037 H 
BRANCH  65  68
ATOM     68  CG  LEU d   1     -43.142  30.897 -17.579  0.00  0.00    -0.059 C 
ATOM     69  H10 LEU d   1     -43.368  31.667 -16.826  0.00  0.00     0.038 H 
BRANCH  68  70
ATOM     70  CD1 LEU d   1     -44.097  31.238 -18.795  0.00  0.00    -0.073 C 
ATOM     71  H11 LEU d   1     -45.143  31.078 -18.495  0.00  0.00     0.028 H 
ATOM     72  H12 LEU d   1     -43.855  30.584 -19.646  0.00  0.00     0.028 H 
ATOM     73  H13 LEU d   1     -43.956  32.289 -19.089  0.00  0.00     0.028 H 
ENDBRANCH  68  70
BRANCH  68  74
ATOM     74  CD2 LEU d   1     -43.473  29.521 -16.854  0.00  0.00    -0.073 C 
ATOM     75  H14 LEU d   1     -42.766  29.363 -16.026  0.00  0.00     0.028 H 
ATOM     76  H15 LEU d   1     -43.383  28.695 -17.575  0.00  0.00     0.028 H 
ATOM     77  H16 LEU d   1     -44.499  29.552 -16.459  0.00  0.00     0.028 H 
ENDBRANCH  68  74
ENDBRANCH  65  68
ENDBRANCH   8  65
BRANCH  20  78
ATOM     78  CB  ILE d   1     -33.330  28.519 -15.157  0.00  0.00    -0.030 C 
ATOM     79  H32 ILE d   1     -32.635  29.281 -15.539  0.00  0.00     0.043 H 
BRANCH  78  80
ATOM     80  CG1 ILE d   1     -33.862  27.685 -16.335  0.00  0.00    -0.063 C 
ATOM     81  H33 ILE d   1     -33.006  27.431 -16.977  0.00  0.00     0.033 H 
ATOM     82  H34 ILE d   1     -34.568  28.314 -16.897  0.00  0.00     0.033 H 
BRANCH  80  83
ATOM     83  CD1 ILE d   1     -34.625  26.301 -15.964  0.00  0.00    -0.076 C 
ATOM     84  H38 ILE d   1     -34.953  25.804 -16.889  0.00  0.00     0.027 H 
ATOM     85  H39 ILE d   1     -35.500  26.522 -15.336  0.00  0.00     0.027 H 
ATOM     86  H40 ILE d   1     -33.938  25.639 -15.416  0.00  0.00     0.027 H 
ENDBRANCH  80  83
ENDBRANCH  78  80
BRANCH  78  87
ATOM     87  CG2 ILE d   1     -32.565  27.649 -14.132  0.00  0.00    -0.071 C 
ATOM     88  H35 ILE d   1     -32.204  28.284 -13.310  0.00  0.00     0.028 H 
ATOM     89  H36 ILE d   1     -31.709  27.167 -14.627  0.00  0.00     0.028 H 
ATOM     90  H37 ILE d   1     -33.239  26.878 -13.731  0.00  0.00     0.028 H 
ENDBRANCH  78  87
ENDBRANCH  20  78
BRANCH   2  91
ATOM     91  CB  SER d   1     -40.443  36.186 -15.416  0.00  0.00     0.044 C 
ATOM     92  H3  SER d   1     -40.979  36.986 -14.884  0.00  0.00     0.077 H 
ATOM     93  H4  SER d   1     -40.328  36.463 -16.474  0.00  0.00     0.077 H 
BRANCH  91  94
ATOM     94  OG  SER d   1     -39.161  36.028 -14.839  0.00  0.00    -0.398 OA
ATOM     95  H5  SER d   1     -38.680  36.844 -14.910  0.00  0.00     0.209 HD
ENDBRANCH  91  94
ENDBRANCH   2  91
BRANCH  26  96
ATOM     96  CB  ASP d   1     -32.312  33.052 -12.649  0.00  0.00     0.043 C 
ATOM     97  H43 ASP d   1     -31.414  32.439 -12.815  0.00  0.00     0.052 H 
ATOM     98  H44 ASP d   1     -32.139  33.735 -11.804  0.00  0.00     0.052 H 
BRANCH  96  99
ATOM     99  CG  ASP d   1     -32.564  33.936 -13.963  0.00  0.00     0.175 C 
ATOM    100  OD1 ASP d   1     -31.727  34.874 -14.279  0.00  0.00    -0.648 OA
ATOM    101  OD2 ASP d   1     -33.524  33.709 -14.721  0.00  0.00    -0.648 OA
ENDBRANCH  96  99
ENDBRANCH  26  96
BRANCH  30 102
ATOM    102  CB  ASP d   1     -42.398  34.965 -10.999  0.00  0.00     0.043 C 
ATOM    103  H59 ASP d   1     -43.134  35.717 -11.319  0.00  0.00     0.052 H 
ATOM    104  H60 ASP d   1     -41.385  35.387 -11.077  0.00  0.00     0.052 H 
BRANCH 102 105
ATOM    105  CG  ASP d   1     -42.663  34.612  -9.569  0.00  0.00     0.175 C 
ATOM    106  OD1 ASP d   1     -43.080  33.460  -9.335  0.00  0.00    -0.648 OA
ATOM    107  OD2 ASP d   1     -42.450  35.466  -8.687  0.00  0.00    -0.648 OA
ENDBRANCH 102 105
ENDBRANCH  30 102
BRANCH  38 108
ATOM    108  CB  ASN d   1     -37.002  34.863 -12.276  0.00  0.00     0.036 C 
ATOM    109  H47 ASN d   1     -36.935  34.920 -13.373  0.00  0.00     0.051 H 
ATOM    110  H48 ASN d   1     -36.099  35.306 -11.830  0.00  0.00     0.051 H 
BRANCH 108 111
ATOM    111  CG  ASN d   1     -38.204  35.653 -11.822  0.00  0.00     0.217 C 
ATOM    112  OD1 ASN d   1     -39.099  35.126 -11.157  0.00  0.00    -0.274 OA
ATOM    113  ND2 ASN d   1     -38.234  36.925 -12.190  0.00  0.00    -0.370 N 
ATOM    114  H49 ASN d   1     -39.003  37.505 -11.922  0.00  0.00     0.159 HD
ATOM    115  H50 ASN d   1     -37.487  37.305 -12.736  0.00  0.00     0.159 HD
ENDBRANCH 108 111
ENDBRANCH  38 108
BRANCH  44 116
ATOM    116  CB  GLU d   1     -40.018  29.548 -11.936  0.00  0.00    -0.029 C 
ATOM    117  H53 GLU d   1     -41.023  29.184 -12.195  0.00  0.00     0.037 H 
ATOM    118  H54 GLU d   1     -39.913  29.588 -10.842  0.00  0.00     0.037 H 
BRANCH 116 119
ATOM    119  CG  GLU d   1     -38.997  28.575 -12.483  0.00  0.00     0.018 C 
ATOM    120  H55 GLU d   1     -39.164  27.604 -11.994  0.00  0.00     0.049 H 
ATOM    121  H56 GLU d   1     -37.999  28.953 -12.217  0.00  0.00     0.049 H 
BRANCH 119 122
ATOM    122  CD  GLU d   1     -39.020  28.343 -14.005  0.00  0.00     0.172 C 
ATOM    123  OE1 GLU d   1     -40.057  28.555 -14.619  0.00  0.00    -0.648 OA
ATOM    124  OE2 GLU d   1     -37.994  27.868 -14.588  0.00  0.00    -0.648 OA
ENDBRANCH 119 122
ENDBRANCH 116 119
ENDBRANCH  44 116
TORSDOF 24
