REMARK  23 active torsions:
REMARK  status: ('A' for Active; 'I' for Inactive)
REMARK    1  A    between atoms: CA_2  and  CB_5 
REMARK    2  A    between atoms: CA_7  and  CB_10 
REMARK    3  A    between atoms: CB_10  and  OG1_11 
REMARK    4  A    between atoms: CB_10  and  CG2_12 
REMARK    5  A    between atoms: CA_14  and  CB_17 
REMARK    6  A    between atoms: CB_17  and  CG_18 
REMARK    7  A    between atoms: CG_18  and  CD_19 
REMARK    8  A    between atoms: CD_19  and  CE_20 
REMARK    9  A    between atoms: CE_20  and  NZ_21 
REMARK   10  A    between atoms: CA_23  and  CB_26 
REMARK   11  A    between atoms: CB_26  and  CG1_27 
REMARK   12  A    between atoms: CB_26  and  CG2_28 
REMARK   13  A    between atoms: CG1_27  and  CD1_29 
REMARK   14  A    between atoms: CA_31  and  CB_34 
REMARK   15  A    between atoms: CB_34  and  CG_35 
REMARK   16  A    between atoms: CA_39  and  CB_42 
REMARK   17  A    between atoms: CB_42  and  CG_43 
REMARK       I    between atoms: CG_43  and  ND2_45 
REMARK   18  A    between atoms: CA_47  and  CB_50 
REMARK   19  A    between atoms: CB_50  and  CG_51 
REMARK   20  A    between atoms: CG_51  and  CD1_52 
REMARK   21  A    between atoms: CG_51  and  CD2_53 
REMARK   22  A    between atoms: CA_55  and  CB_58 
REMARK   23  A    between atoms: CB_58  and  CG_59 
ROOT
ATOM      1  N   ALA d   1      -6.226 -14.973   4.302  0.00  0.00    -0.346 N 
ATOM      2  CA  ALA d   1      -5.840 -15.513   5.611  0.00  0.00     0.086 C 
ATOM      3  C   ALA d   1      -5.459 -14.406   6.619  0.00  0.00     0.240 C 
ATOM      4  O   ALA d   1      -4.839 -14.685   7.654  0.00  0.00    -0.271 OA
ATOM      5  H   ALA d   1      -5.487 -14.793   3.622  0.00  0.00     0.163 HD
ATOM      6  H   ALA d   1      -6.709 -16.021   6.029  0.00  0.00     0.086 H 
ATOM      7  N   THR d   1      -5.837 -13.158   6.320  0.00  0.00    -0.344 N 
ATOM      8  CA  THR d   1      -5.404 -11.925   7.078  0.00  0.00     0.113 C 
ATOM      9  C   THR d   1      -3.884 -11.707   7.224  0.00  0.00     0.243 C 
ATOM     10  O   THR d   1      -3.399 -11.310   8.283  0.00  0.00    -0.271 OA
ATOM     11  H   THR d   1      -6.462 -13.030   5.524  0.00  0.00     0.163 HD
ATOM     12  H   THR d   1      -5.749 -11.131   6.416  0.00  0.00     0.091 H 
ATOM     13  N   LYS d   1      -3.132 -11.961   6.153  0.00  0.00    -0.346 N 
ATOM     14  CA  LYS d   1      -1.675 -11.807   6.185  0.00  0.00     0.089 C 
ATOM     15  C   LYS d   1      -1.287 -10.955   4.986  0.00  0.00     0.241 C 
ATOM     16  O   LYS d   1      -1.974 -10.986   3.985  0.00  0.00    -0.271 OA
ATOM     17  H   LYS d   1      -3.581 -12.270   5.291  0.00  0.00     0.163 HD
ATOM     18  H   LYS d   1      -1.350 -11.339   7.114  0.00  0.00     0.087 H 
ATOM     19  N   ILE d   1      -0.190 -10.204   5.068  0.00  0.00    -0.346 N 
ATOM     20  CA  ILE d   1       0.249  -9.347   3.933  0.00  0.00     0.092 C 
ATOM     21  C   ILE d   1       0.424 -10.169   2.633  0.00  0.00     0.241 C 
ATOM     22  O   ILE d   1       0.111  -9.700   1.504  0.00  0.00    -0.271 OA
ATOM     23  H   ILE d   1       0.361 -10.216   5.926  0.00  0.00     0.163 HD
ATOM     24  H   ILE d   1      -0.535  -8.606   3.779  0.00  0.00     0.088 H 
ATOM     25  N   ASP d   1       0.898 -11.407   2.814  0.00  0.00    -0.345 N 
ATOM     26  CA  ASP d   1       1.190 -12.312   1.682  0.00  0.00     0.098 C 
ATOM     27  C   ASP d   1       0.018 -13.282   1.457  0.00  0.00     0.241 C 
ATOM     28  O   ASP d   1       0.120 -14.172   0.631  0.00  0.00    -0.271 OA
ATOM     29  N   ASP d   1      -6.555 -13.174   2.161  0.00  0.00    -0.346 N 
ATOM     30  CA  ASP d   1      -7.652 -14.101   2.553  0.00  0.00     0.098 C 
ATOM     31  C   ASP d   1      -7.487 -14.703   3.946  0.00  0.00     0.241 C 
ATOM     32  O   ASP d   1      -8.478 -14.933   4.655  0.00  0.00    -0.271 OA
ATOM     33  H   ASP d   1       1.063 -11.737   3.765  0.00  0.00     0.163 HD
ATOM     34  H   ASP d   1       1.311 -11.703   0.786  0.00  0.00     0.088 H 
ATOM     35  H   ASP d   1      -6.021 -13.400   1.322  0.00  0.00     0.163 HD
ATOM     36  H   ASP d   1      -8.554 -13.489   2.559  0.00  0.00     0.088 H 
ATOM     37  N   ASN d   1      -1.058 -13.145   2.238  0.00  0.00    -0.346 N 
ATOM     38  CA  ASN d   1      -2.294 -13.905   1.956  0.00  0.00     0.097 C 
ATOM     39  C   ASN d   1      -3.436 -13.127   2.589  0.00  0.00     0.241 C 
ATOM     40  O   ASN d   1      -3.779 -13.270   3.810  0.00  0.00    -0.271 OA
ATOM     41  H   ASN d   1      -1.026 -12.510   3.036  0.00  0.00     0.163 HD
ATOM     42  H   ASN d   1      -2.471 -13.991   0.884  0.00  0.00     0.088 H 
ATOM     43  N   LEU d   1      -3.977 -12.225   1.768  0.00  0.00    -0.346 N 
ATOM     44  CA  LEU d   1      -4.967 -11.291   2.319  0.00  0.00     0.089 C 
ATOM     45  C   LEU d   1      -6.217 -12.061   2.833  0.00  0.00     0.241 C 
ATOM     46  O   LEU d   1      -6.802 -11.659   3.846  0.00  0.00    -0.271 OA
ATOM     47  H   LEU d   1      -3.710 -12.185   0.784  0.00  0.00     0.163 HD
ATOM     48  H   LEU d   1      -4.530 -10.791   3.184  0.00  0.00     0.087 H 
ENDROOT
BRANCH  14  49
ATOM     49  CB  LYS d   1      -1.011 -13.194   6.074  0.00  0.00    -0.038 C 
ATOM     50  H   LYS d   1       0.061 -13.043   6.201  0.00  0.00     0.036 H 
ATOM     51  H   LYS d   1      -1.302 -13.608   5.109  0.00  0.00     0.036 H 
BRANCH  49  52
ATOM     52  CG  LYS d   1      -1.452 -14.208   7.149  0.00  0.00    -0.061 C 
ATOM     53  H   LYS d   1      -1.082 -15.198   6.882  0.00  0.00     0.033 H 
ATOM     54  H   LYS d   1      -2.541 -14.221   7.206  0.00  0.00     0.033 H 
BRANCH  52  55
ATOM     55  CD  LYS d   1      -0.884 -13.808   8.503  0.00  0.00    -0.043 C 
ATOM     56  H   LYS d   1      -1.166 -12.780   8.731  0.00  0.00     0.035 H 
ATOM     57  H   LYS d   1       0.203 -13.881   8.482  0.00  0.00     0.035 H 
BRANCH  55  58
ATOM     58  CE  LYS d   1      -1.457 -14.769   9.599  0.00  0.00     0.080 C 
ATOM     59  H   LYS d   1      -1.129 -15.795   9.434  0.00  0.00     0.075 H 
ATOM     60  H   LYS d   1      -2.546 -14.792   9.572  0.00  0.00     0.075 H 
BRANCH  58  61
ATOM     61  NZ  LYS d   1      -0.968 -14.256  10.887  0.00  0.00    -0.079 N 
ATOM     62  H   LYS d   1      -1.314 -14.849  11.641  0.00  0.00     0.274 HD
ATOM     63  H   LYS d   1       0.052 -14.262  10.889  0.00  0.00     0.274 HD
ATOM     64  H   LYS d   1      -1.304 -13.302  11.021  0.00  0.00     0.274 HD
ENDBRANCH  58  61
ENDBRANCH  55  58
ENDBRANCH  52  55
ENDBRANCH  49  52
ENDBRANCH  14  49
BRANCH   8  65
ATOM     65  CB  THR d   1      -6.116 -11.771   8.493  0.00  0.00     0.060 C 
ATOM     66  H   THR d   1      -5.543 -12.332   9.231  0.00  0.00     0.086 H 
BRANCH  65  67
ATOM     67  OG1 THR d   1      -7.451 -12.302   8.419  0.00  0.00    -0.393 OA
ATOM     68  H   THR d   1      -7.879 -12.208   9.273  0.00  0.00     0.210 HD
ENDBRANCH  65  67
BRANCH  65  69
ATOM     69  CG2 THR d   1      -6.147 -10.263   8.961  0.00  0.00    -0.050 C 
ATOM     70  H   THR d   1      -6.724  -9.674   8.248  0.00  0.00     0.031 H 
ATOM     71  H   THR d   1      -6.610 -10.199   9.946  0.00  0.00     0.031 H 
ATOM     72  H   THR d   1      -5.128  -9.878   9.011  0.00  0.00     0.031 H 
ENDBRANCH  65  69
ENDBRANCH   8  65
BRANCH  20  73
ATOM     73  CB  ILE d   1       1.585  -8.621   4.260  0.00  0.00    -0.030 C 
ATOM     74  H   ILE d   1       1.574  -8.360   5.318  0.00  0.00     0.043 H 
BRANCH  73  75
ATOM     75  CG1 ILE d   1       1.735  -7.323   3.458  0.00  0.00    -0.063 C 
ATOM     76  H   ILE d   1       1.267  -7.485   2.487  0.00  0.00     0.033 H 
ATOM     77  H   ILE d   1       2.800  -7.097   3.401  0.00  0.00     0.033 H 
BRANCH  75  78
ATOM     78  CD1 ILE d   1       1.062  -6.145   4.087  0.00  0.00    -0.076 C 
ATOM     79  H   ILE d   1      -0.005  -6.346   4.183  0.00  0.00     0.027 H 
ATOM     80  H   ILE d   1       1.490  -5.968   5.074  0.00  0.00     0.027 H 
ATOM     81  H   ILE d   1       1.213  -5.265   3.461  0.00  0.00     0.027 H 
ENDBRANCH  75  78
ENDBRANCH  73  75
BRANCH  73  82
ATOM     82  CG2 ILE d   1       2.744  -9.535   3.974  0.00  0.00    -0.071 C 
ATOM     83  H   ILE d   1       2.659 -10.431   4.590  0.00  0.00     0.028 H 
ATOM     84  H   ILE d   1       2.733  -9.815   2.921  0.00  0.00     0.028 H 
ATOM     85  H   ILE d   1       3.677  -9.020   4.205  0.00  0.00     0.028 H 
ENDBRANCH  73  82
ENDBRANCH  20  73
BRANCH   2  86
ATOM     86  CB  ALA d   1      -4.679 -16.544   5.439  0.00  0.00    -0.049 C 
ATOM     87  H   ALA d   1      -3.790 -16.030   5.073  0.00  0.00     0.030 H 
ATOM     88  H   ALA d   1      -4.462 -17.008   6.401  0.00  0.00     0.030 H 
ATOM     89  H   ALA d   1      -4.978 -17.310   4.724  0.00  0.00     0.030 H 
ENDBRANCH   2  86
BRANCH  26  90
ATOM     90  CB  ASP d   1       2.527 -13.086   1.897  0.00  0.00     0.043 C 
ATOM     91  H   ASP d   1       3.330 -12.353   1.971  0.00  0.00     0.052 H 
ATOM     92  H   ASP d   1       2.657 -13.769   1.058  0.00  0.00     0.052 H 
BRANCH  90  93
ATOM     93  CG  ASP d   1       2.528 -13.904   3.165  0.00  0.00     0.175 C 
ATOM     94  OD1 ASP d   1       3.432 -14.731   3.362  0.00  0.00    -0.648 OA
ATOM     95  OD2 ASP d   1       1.600 -13.758   4.003  0.00  0.00    -0.648 OA
ENDBRANCH  90  93
ENDBRANCH  26  90
BRANCH  30  96
ATOM     96  CB  ASP d   1      -7.762 -15.255   1.549  0.00  0.00     0.043 C 
ATOM     97  H   ASP d   1      -8.255 -16.090   2.048  0.00  0.00     0.052 H 
ATOM     98  H   ASP d   1      -6.756 -15.506   1.213  0.00  0.00     0.052 H 
BRANCH  96  99
ATOM     99  CG  ASP d   1      -8.581 -14.888   0.336  0.00  0.00     0.175 C 
ATOM    100  OD1 ASP d   1      -9.403 -13.950   0.449  0.00  0.00    -0.648 OA
ATOM    101  OD2 ASP d   1      -8.389 -15.524  -0.728  0.00  0.00    -0.648 OA
ENDBRANCH  96  99
ENDBRANCH  30  96
BRANCH  38 102
ATOM    102  CB  ASN d   1      -2.196 -15.379   2.407  0.00  0.00     0.036 C 
ATOM    103  H   ASN d   1      -2.168 -15.390   3.497  0.00  0.00     0.051 H 
ATOM    104  H   ASN d   1      -1.303 -15.806   1.951  0.00  0.00     0.051 H 
BRANCH 102 105
ATOM    105  CG  ASN d   1      -3.413 -16.238   1.957  0.00  0.00     0.217 C 
ATOM    106  OD1 ASN d   1      -4.436 -15.729   1.493  0.00  0.00    -0.274 OA
ATOM    107  ND2 ASN d   1      -3.289 -17.550   2.122  0.00  0.00    -0.370 N 
ATOM    108  H   ASN d   1      -4.055 -18.171   1.862  0.00  0.00     0.159 HD
ATOM    109  H   ASN d   1      -2.428 -17.936   2.509  0.00  0.00     0.159 HD
ENDBRANCH 102 105
ENDBRANCH  38 102
BRANCH  44 110
ATOM    110  CB  LEU d   1      -5.301 -10.172   1.335  0.00  0.00    -0.035 C 
ATOM    111  H   LEU d   1      -6.194  -9.672   1.709  0.00  0.00     0.037 H 
ATOM    112  H   LEU d   1      -5.422 -10.633   0.354  0.00  0.00     0.037 H 
BRANCH 110 113
ATOM    113  CG  LEU d   1      -4.200  -9.095   1.199  0.00  0.00    -0.059 C 
ATOM    114  H   LEU d   1      -3.280  -9.565   0.852  0.00  0.00     0.038 H 
BRANCH 113 115
ATOM    115  CD1 LEU d   1      -4.696  -8.077   0.212  0.00  0.00    -0.073 C 
ATOM    116  H   LEU d   1      -4.880  -8.562  -0.747  0.00  0.00     0.028 H 
ATOM    117  H   LEU d   1      -5.622  -7.636   0.581  0.00  0.00     0.028 H 
ATOM    118  H   LEU d   1      -3.945  -7.297   0.088  0.00  0.00     0.028 H 
ENDBRANCH 113 115
BRANCH 113 119
ATOM    119  CD2 LEU d   1      -3.817  -8.419   2.575  0.00  0.00    -0.073 C 
ATOM    120  H   LEU d   1      -4.698  -7.938   3.000  0.00  0.00     0.028 H 
ATOM    121  H   LEU d   1      -3.450  -9.181   3.263  0.00  0.00     0.028 H 
ATOM    122  H   LEU d   1      -3.039  -7.673   2.408  0.00  0.00     0.028 H 
ENDBRANCH 113 119
ENDBRANCH 110 113
ENDBRANCH  44 110
TORSDOF 23
