REMARK  25 active torsions:
REMARK  status: ('A' for Active; 'I' for Inactive)
REMARK    1  A    between atoms: CA_2  and  CB_5 
REMARK    2  A    between atoms: CB_5  and  OG_6 
REMARK    3  A    between atoms: CA_8  and  CB_11 
REMARK    4  A    between atoms: CB_11  and  CG_12 
REMARK    5  A    between atoms: CG_12  and  CD_13 
REMARK    6  A    between atoms: CD_13  and  NE_14 
REMARK       I    between atoms: NE_14  and  CZ_15 
REMARK       I    between atoms: CZ_15  and  NH1_16 
REMARK    7  A    between atoms: CA_19  and  CB_22 
REMARK    8  A    between atoms: CB_22  and  CG_23 
REMARK    9  A    between atoms: CG_23  and  CD_24 
REMARK   10  A    between atoms: CD_24  and  CE_25 
REMARK   11  A    between atoms: CE_25  and  NZ_26 
REMARK   12  A    between atoms: CA_28  and  CB_31 
REMARK   13  A    between atoms: CB_31  and  CG1_32 
REMARK   14  A    between atoms: CB_31  and  CG2_33 
REMARK   15  A    between atoms: CG1_32  and  CD1_34 
REMARK   16  A    between atoms: CA_36  and  CB_39 
REMARK   17  A    between atoms: CB_39  and  CG_40 
REMARK   18  A    between atoms: CA_44  and  CB_47 
REMARK   19  A    between atoms: CB_47  and  CG_48 
REMARK       I    between atoms: CG_48  and  ND2_50 
REMARK   20  A    between atoms: CA_52  and  CB_55 
REMARK   21  A    between atoms: CB_55  and  CG_56 
REMARK   22  A    between atoms: CG_56  and  CD1_57 
REMARK   23  A    between atoms: CG_56  and  CD2_58 
REMARK   24  A    between atoms: CA_60  and  CB_63 
REMARK   25  A    between atoms: CB_63  and  CG_64 
ROOT
ATOM      1  N   SER d   1       9.735 -53.570  15.288  0.00  0.00    -0.344 N 
ATOM      2  CA  SER d   1      10.295 -53.441  16.641  0.00  0.00     0.109 C 
ATOM      3  C   SER d   1       9.439 -52.561  17.597  0.00  0.00     0.243 C 
ATOM      4  O   SER d   1       9.850 -52.227  18.738  0.00  0.00    -0.271 OA
ATOM      5  H   SER d   1      10.041 -52.899  14.583  0.00  0.00     0.163 HD
ATOM      6  H   SER d   1      10.306 -54.428  17.103  0.00  0.00     0.090 H 
ATOM      7  N   ARG d   1       8.258 -52.159  17.120  0.00  0.00    -0.346 N 
ATOM      8  CA  ARG d   1       7.366 -51.255  17.870  0.00  0.00     0.089 C 
ATOM      9  C   ARG d   1       7.944 -49.809  17.967  0.00  0.00     0.241 C 
ATOM     10  O   ARG d   1       7.683 -49.078  18.933  0.00  0.00    -0.271 OA
ATOM     11  H   ARG d   1       7.962 -52.490  16.202  0.00  0.00     0.163 HD
ATOM     12  H   ARG d   1       6.428 -51.137  17.327  0.00  0.00     0.087 H 
ATOM     13  N   LYS d   1       8.711 -49.395  16.953  0.00  0.00    -0.346 N 
ATOM     14  CA  LYS d   1       9.333 -48.059  16.930  0.00  0.00     0.089 C 
ATOM     15  C   LYS d   1       8.807 -47.326  15.699  0.00  0.00     0.241 C 
ATOM     16  O   LYS d   1       8.507 -47.987  14.724  0.00  0.00    -0.271 OA
ATOM     17  H   LYS d   1       8.871 -50.026  16.168  0.00  0.00     0.163 HD
ATOM     18  H   LYS d   1       9.094 -47.498  17.833  0.00  0.00     0.087 H 
ATOM     19  N   ILE d   1       8.720 -45.990  15.713  0.00  0.00    -0.346 N 
ATOM     20  CA  ILE d   1       8.309 -45.185  14.515  0.00  0.00     0.092 C 
ATOM     21  C   ILE d   1       9.141 -45.576  13.307  0.00  0.00     0.241 C 
ATOM     22  O   ILE d   1       8.617 -45.657  12.169  0.00  0.00    -0.271 OA
ATOM     23  H   ILE d   1       8.943 -45.497  16.578  0.00  0.00     0.163 HD
ATOM     24  H   ILE d   1       7.260 -45.401  14.311  0.00  0.00     0.088 H 
ATOM     25  N   ASP d   1      10.439 -45.828  13.561  0.00  0.00    -0.345 N 
ATOM     26  CA  ASP d   1      11.384 -46.049  12.462  0.00  0.00     0.098 C 
ATOM     27  C   ASP d   1      11.603 -47.526  12.214  0.00  0.00     0.241 C 
ATOM     28  O   ASP d   1      12.370 -47.876  11.343  0.00  0.00    -0.271 OA
ATOM     29  N   ASP d   1       8.138 -53.041  13.000  0.00  0.00    -0.346 N 
ATOM     30  CA  ASP d   1       8.419 -54.425  13.449  0.00  0.00     0.098 C 
ATOM     31  C   ASP d   1       8.857 -54.499  14.916  0.00  0.00     0.241 C 
ATOM     32  O   ASP d   1       8.395 -55.359  15.677  0.00  0.00    -0.271 OA
ATOM     33  H   ASP d   1      10.768 -45.865  14.526  0.00  0.00     0.163 HD
ATOM     34  H   ASP d   1      10.915 -45.591  11.591  0.00  0.00     0.088 H 
ATOM     35  H   ASP d   1       8.576 -52.719  12.137  0.00  0.00     0.163 HD
ATOM     36  H   ASP d   1       7.484 -54.978  13.362  0.00  0.00     0.088 H 
ATOM     37  N   ASN d   1      10.971 -48.372  13.021  0.00  0.00    -0.346 N 
ATOM     38  CA  ASN d   1      11.031 -49.819  12.823  0.00  0.00     0.097 C 
ATOM     39  C   ASN d   1       9.737 -50.394  13.418  0.00  0.00     0.241 C 
ATOM     40  O   ASN d   1       9.673 -50.770  14.603  0.00  0.00    -0.271 OA
ATOM     41  H   ASN d   1      10.428 -48.001  13.801  0.00  0.00     0.163 HD
ATOM     42  H   ASN d   1      11.084 -50.085  11.767  0.00  0.00     0.088 H 
ATOM     43  N   LEU d   1       8.679 -50.383  12.596  0.00  0.00    -0.346 N 
ATOM     44  CA  LEU d   1       7.343 -50.747  13.124  0.00  0.00     0.089 C 
ATOM     45  C   LEU d   1       7.344 -52.189  13.658  0.00  0.00     0.241 C 
ATOM     46  O   LEU d   1       6.663 -52.495  14.659  0.00  0.00    -0.271 OA
ATOM     47  H   LEU d   1       8.792 -50.126  11.615  0.00  0.00     0.163 HD
ATOM     48  H   LEU d   1       7.130 -50.078  13.958  0.00  0.00     0.087 H 
ENDROOT
BRANCH   8  49
ATOM     49  CB  ARG d   1       7.031 -51.895  19.255  0.00  0.00    -0.036 C 
ATOM     50  H   ARG d   1       7.965 -51.879  19.816  0.00  0.00     0.036 H 
ATOM     51  H   ARG d   1       6.591 -52.866  19.028  0.00  0.00     0.036 H 
BRANCH  49  52
ATOM     52  CG  ARG d   1       6.014 -51.184  20.138  0.00  0.00    -0.048 C 
ATOM     53  H   ARG d   1       6.435 -50.212  20.396  0.00  0.00     0.035 H 
ATOM     54  H   ARG d   1       5.825 -51.830  20.995  0.00  0.00     0.035 H 
BRANCH  52  55
ATOM     55  CD  ARG d   1       4.680 -50.929  19.467  0.00  0.00     0.009 C 
ATOM     56  H   ARG d   1       4.016 -51.774  19.650  0.00  0.00     0.064 H 
ATOM     57  H   ARG d   1       4.833 -50.807  18.395  0.00  0.00     0.064 H 
BRANCH  55  58
ATOM     58  NE  ARG d   1       4.076 -49.709  20.014  0.00  0.00    -0.227 N 
ATOM     59  CZ  ARG d   1       4.216 -48.484  19.497  0.00  0.00     0.665 C 
ATOM     60  NH1 ARG d   1       4.921 -48.289  18.386  0.00  0.00    -0.235 N 
ATOM     61  NH2 ARG d   1       3.632 -47.441  20.089  0.00  0.00    -0.235 N 
ATOM     62  H   ARG d   1       5.363 -49.080  17.917  0.00  0.00     0.174 HD
ATOM     63  H   ARG d   1       5.019 -47.349  18.003  0.00  0.00     0.174 HD
ATOM     64  H   ARG d   1       3.079 -47.578  20.935  0.00  0.00     0.174 HD
ATOM     65  H   ARG d   1       3.738 -46.506  19.695  0.00  0.00     0.174 HD
ATOM     66  H   ARG d   1       3.505 -49.803  20.854  0.00  0.00     0.177 HD
ENDBRANCH  55  58
ENDBRANCH  52  55
ENDBRANCH  49  52
ENDBRANCH   8  49
BRANCH   2  67
ATOM     67  CB  SER d   1      11.710 -52.863  16.497  0.00  0.00     0.044 C 
ATOM     68  H   SER d   1      11.728 -51.864  16.932  0.00  0.00     0.077 H 
ATOM     69  H   SER d   1      11.970 -52.828  15.439  0.00  0.00     0.077 H 
BRANCH  67  70
ATOM     70  OG  SER d   1      12.651 -53.671  17.172  0.00  0.00    -0.398 OA
ATOM     71  H   SER d   1      13.527 -53.293  17.070  0.00  0.00     0.209 HD
ENDBRANCH  67  70
ENDBRANCH   2  67
BRANCH  14  72
ATOM     72  CB  LYS d   1      10.856 -48.218  16.835  0.00  0.00    -0.038 C 
ATOM     73  H   LYS d   1      11.286 -47.220  16.923  0.00  0.00     0.036 H 
ATOM     74  H   LYS d   1      11.065 -48.720  15.890  0.00  0.00     0.036 H 
BRANCH  72  75
ATOM     75  CG  LYS d   1      11.474 -49.068  17.937  0.00  0.00    -0.061 C 
ATOM     76  H   LYS d   1      12.529 -49.224  17.710  0.00  0.00     0.033 H 
ATOM     77  H   LYS d   1      10.943 -50.019  17.987  0.00  0.00     0.033 H 
BRANCH  75  78
ATOM     78  CD  LYS d   1      11.360 -48.372  19.284  0.00  0.00    -0.043 C 
ATOM     79  H   LYS d   1      10.360 -47.961  19.420  0.00  0.00     0.035 H 
ATOM     80  H   LYS d   1      12.062 -47.541  19.347  0.00  0.00     0.035 H 
BRANCH  78  81
ATOM     81  CE  LYS d   1      11.662 -49.410  20.355  0.00  0.00     0.080 C 
ATOM     82  H   LYS d   1      12.527 -49.980  20.015  0.00  0.00     0.075 H 
ATOM     83  H   LYS d   1      10.758 -50.004  20.489  0.00  0.00     0.075 H 
BRANCH  81  84
ATOM     84  NZ  LYS d   1      12.008 -48.840  21.674  0.00  0.00    -0.079 N 
ATOM     85  H   LYS d   1      12.195 -49.597  22.332  0.00  0.00     0.274 HD
ATOM     86  H   LYS d   1      12.838 -48.254  21.583  0.00  0.00     0.274 HD
ATOM     87  H   LYS d   1      11.229 -48.277  22.015  0.00  0.00     0.274 HD
ENDBRANCH  81  84
ENDBRANCH  78  81
ENDBRANCH  75  78
ENDBRANCH  72  75
ENDBRANCH  14  72
BRANCH  30  88
ATOM     88  CB  ASP d   1       9.498 -55.063  12.556  0.00  0.00     0.043 C 
ATOM     89  H   ASP d   1      10.051 -55.783  13.159  0.00  0.00     0.052 H 
ATOM     90  H   ASP d   1      10.133 -54.264  12.173  0.00  0.00     0.052 H 
BRANCH  88  91
ATOM     91  CG  ASP d   1       8.904 -55.807  11.361  0.00  0.00     0.175 C 
ATOM     92  OD1 ASP d   1       7.661 -55.910  11.285  0.00  0.00    -0.648 OA
ATOM     93  OD2 ASP d   1       9.676 -56.291  10.502  0.00  0.00    -0.648 OA
ENDBRANCH  88  91
ENDBRANCH  30  88
BRANCH  20  94
ATOM     94  CB  ILE d   1       8.447 -43.615  14.794  0.00  0.00    -0.030 C 
ATOM     95  H   ILE d   1       9.407 -43.483  15.293  0.00  0.00     0.043 H 
BRANCH  94  96
ATOM     96  CG1 ILE d   1       7.287 -43.160  15.665  0.00  0.00    -0.063 C 
ATOM     97  H   ILE d   1       7.561 -42.200  16.102  0.00  0.00     0.033 H 
ATOM     98  H   ILE d   1       7.109 -43.938  16.408  0.00  0.00     0.033 H 
BRANCH  96  99
ATOM     99  CD1 ILE d   1       5.980 -42.958  14.883  0.00  0.00    -0.076 C 
ATOM    100  H   ILE d   1       6.131 -42.199  14.115  0.00  0.00     0.027 H 
ATOM    101  H   ILE d   1       5.689 -43.898  14.414  0.00  0.00     0.027 H 
ATOM    102  H   ILE d   1       5.196 -42.634  15.567  0.00  0.00     0.027 H 
ENDBRANCH  96  99
ENDBRANCH  94  96
BRANCH  94 103
ATOM    103  CG2 ILE d   1       8.505 -42.725  13.512  0.00  0.00    -0.071 C 
ATOM    104  H   ILE d   1       9.366 -43.015  12.909  0.00  0.00     0.028 H 
ATOM    105  H   ILE d   1       7.591 -42.863  12.934  0.00  0.00     0.028 H 
ATOM    106  H   ILE d   1       8.598 -41.678  13.802  0.00  0.00     0.028 H 
ENDBRANCH  94 103
ENDBRANCH  20  94
BRANCH  44 107
ATOM    107  CB  LEU d   1       6.225 -50.518  12.101  0.00  0.00    -0.035 C 
ATOM    108  H   LEU d   1       5.342 -51.041  12.468  0.00  0.00     0.037 H 
ATOM    109  H   LEU d   1       6.591 -50.877  11.139  0.00  0.00     0.037 H 
BRANCH 107 110
ATOM    110  CG  LEU d   1       5.827 -49.024  11.911  0.00  0.00    -0.059 C 
ATOM    111  H   LEU d   1       6.705 -48.504  11.527  0.00  0.00     0.038 H 
BRANCH 110 112
ATOM    112  CD1 LEU d   1       4.661 -48.955  10.929  0.00  0.00    -0.073 C 
ATOM    113  H   LEU d   1       4.966 -49.384   9.974  0.00  0.00     0.028 H 
ATOM    114  H   LEU d   1       3.817 -49.518  11.329  0.00  0.00     0.028 H 
ATOM    115  H   LEU d   1       4.370 -47.914  10.785  0.00  0.00     0.028 H 
ENDBRANCH 110 112
BRANCH 110 116
ATOM    116  CD2 LEU d   1       5.457 -48.298  13.220  0.00  0.00    -0.073 C 
ATOM    117  H   LEU d   1       4.608 -48.800  13.685  0.00  0.00     0.028 H 
ATOM    118  H   LEU d   1       6.309 -48.319  13.899  0.00  0.00     0.028 H 
ATOM    119  H   LEU d   1       5.193 -47.264  12.998  0.00  0.00     0.028 H 
ENDBRANCH 110 116
ENDBRANCH 107 110
ENDBRANCH  44 107
BRANCH  26 120
ATOM    120  CB  ASP d   1      12.768 -45.345  12.663  0.00  0.00     0.043 C 
ATOM    121  H   ASP d   1      12.600 -44.269  12.614  0.00  0.00     0.052 H 
ATOM    122  H   ASP d   1      13.440 -45.713  11.888  0.00  0.00     0.052 H 
BRANCH 120 123
ATOM    123  CG  ASP d   1      13.412 -45.651  14.016  0.00  0.00     0.175 C 
ATOM    124  OD1 ASP d   1      14.606 -45.285  14.174  0.00  0.00    -0.648 OA
ATOM    125  OD2 ASP d   1      12.772 -46.297  14.897  0.00  0.00    -0.648 OA
ENDBRANCH 120 123
ENDBRANCH  26 120
BRANCH  38 126
ATOM    126  CB  ASN d   1      12.323 -50.415  13.419  0.00  0.00     0.036 C 
ATOM    127  H   ASN d   1      12.235 -50.383  14.505  0.00  0.00     0.051 H 
ATOM    128  H   ASN d   1      13.163 -49.830  13.045  0.00  0.00     0.051 H 
BRANCH 126 129
ATOM    129  CG  ASN d   1      12.549 -51.877  13.010  0.00  0.00     0.217 C 
ATOM    130  OD1 ASN d   1      11.775 -52.461  12.251  0.00  0.00    -0.274 OA
ATOM    131  ND2 ASN d   1      13.600 -52.473  13.541  0.00  0.00    -0.370 N 
ATOM    132  H   ASN d   1      13.794 -53.451  13.327  0.00  0.00     0.159 HD
ATOM    133  H   ASN d   1      14.218 -51.955  14.166  0.00  0.00     0.159 HD
ENDBRANCH 126 129
ENDBRANCH  38 126
TORSDOF 25
