REMARK  23 active torsions:
REMARK  status: ('A' for Active; 'I' for Inactive)
REMARK    1  A    between atoms: CA_2  and  CB_5 
REMARK    2  A    between atoms: CB_5  and  OG_6 
REMARK    3  A    between atoms: CA_8  and  CB_11 
REMARK    4  A    between atoms: CB_11  and  CG_12 
REMARK    5  A    between atoms: CA_18  and  CB_21 
REMARK    6  A    between atoms: CB_21  and  CG_22 
REMARK    7  A    between atoms: CG_22  and  CD_23 
REMARK    8  A    between atoms: CD_23  and  CE_24 
REMARK    9  A    between atoms: CE_24  and  NZ_25 
REMARK   10  A    between atoms: CA_27  and  CB_30 
REMARK   11  A    between atoms: CB_30  and  CG1_31 
REMARK   12  A    between atoms: CB_30  and  CG2_32 
REMARK   13  A    between atoms: CG1_31  and  CD1_33 
REMARK   14  A    between atoms: CA_35  and  CB_38 
REMARK   15  A    between atoms: CB_38  and  CG_39 
REMARK   16  A    between atoms: CA_43  and  CB_46 
REMARK   17  A    between atoms: CB_46  and  CG_47 
REMARK       I    between atoms: CG_47  and  ND2_49 
REMARK   18  A    between atoms: CA_51  and  CB_54 
REMARK   19  A    between atoms: CB_54  and  CG_55 
REMARK   20  A    between atoms: CG_55  and  CD1_56 
REMARK   21  A    between atoms: CG_55  and  CD2_57 
REMARK   22  A    between atoms: CA_59  and  CB_62 
REMARK   23  A    between atoms: CB_62  and  CG_63 
ROOT
ATOM      1  N   SER d   1      -9.740  53.841  15.661  0.00  0.00    -0.344 N 
ATOM      2  CA  SER d   1     -10.270  53.874  17.022  0.00  0.00     0.109 C 
ATOM      3  C   SER d   1      -9.654  52.763  17.876  0.00  0.00     0.243 C 
ATOM      4  O   SER d   1     -10.270  52.259  18.819  0.00  0.00    -0.271 OA
ATOM      5  H   SER d   1     -10.119  53.157  15.006  0.00  0.00     0.163 HD
ATOM      6  H   SER d   1      -9.988  54.821  17.482  0.00  0.00     0.090 H 
ATOM      7  N   HIS d   1      -8.416  52.411  17.535  0.00  0.00    -0.346 N 
ATOM      8  CA  HIS d   1      -7.632  51.332  18.181  0.00  0.00     0.094 C 
ATOM      9  C   HIS d   1      -8.272  49.944  18.333  0.00  0.00     0.241 C 
ATOM     10  O   HIS d   1      -8.221  49.364  19.415  0.00  0.00    -0.271 OA
ATOM     11  H   HIS d   1      -7.974  52.923  16.771  0.00  0.00     0.163 HD
ATOM     12  H   HIS d   1      -6.862  51.182  17.424  0.00  0.00     0.088 H 
ATOM     13  N   LYS d   1      -8.827  49.397  17.253  0.00  0.00    -0.346 N 
ATOM     14  CA  LYS d   1      -9.363  48.017  17.268  0.00  0.00     0.089 C 
ATOM     15  C   LYS d   1      -8.841  47.285  16.055  0.00  0.00     0.241 C 
ATOM     16  O   LYS d   1      -8.577  47.948  15.061  0.00  0.00    -0.271 OA
ATOM     17  H   LYS d   1      -8.884  49.943  16.393  0.00  0.00     0.163 HD
ATOM     18  H   LYS d   1      -9.063  47.505  18.183  0.00  0.00     0.087 H 
ATOM     19  N   ILE d   1      -8.749  45.948  16.047  0.00  0.00    -0.346 N 
ATOM     20  CA  ILE d   1      -8.322  45.249  14.803  0.00  0.00     0.092 C 
ATOM     21  C   ILE d   1      -9.182  45.668  13.586  0.00  0.00     0.241 C 
ATOM     22  O   ILE d   1      -8.669  45.795  12.469  0.00  0.00    -0.271 OA
ATOM     23  H   ILE d   1      -8.970  45.413  16.887  0.00  0.00     0.163 HD
ATOM     24  H   ILE d   1      -7.291  45.575  14.666  0.00  0.00     0.088 H 
ATOM     25  N   ASP d   1     -10.479  45.895  13.818  0.00  0.00    -0.345 N 
ATOM     26  CA  ASP d   1     -11.422  46.063  12.701  0.00  0.00     0.098 C 
ATOM     27  C   ASP d   1     -11.663  47.522  12.470  0.00  0.00     0.241 C 
ATOM     28  O   ASP d   1     -12.389  47.840  11.541  0.00  0.00    -0.271 OA
ATOM     29  N   ASP d   1      -8.192  53.060  13.408  0.00  0.00    -0.346 N 
ATOM     30  CA  ASP d   1      -8.341  54.483  13.787  0.00  0.00     0.098 C 
ATOM     31  C   ASP d   1      -8.781  54.667  15.238  0.00  0.00     0.241 C 
ATOM     32  O   ASP d   1      -8.262  55.537  15.946  0.00  0.00    -0.271 OA
ATOM     33  H   ASP d   1     -10.818  45.952  14.778  0.00  0.00     0.163 HD
ATOM     34  H   ASP d   1     -10.947  45.594  11.839  0.00  0.00     0.088 H 
ATOM     35  H   ASP d   1      -8.745  52.714  12.624  0.00  0.00     0.163 HD
ATOM     36  H   ASP d   1      -7.353  54.931  13.683  0.00  0.00     0.088 H 
ATOM     37  N   ASN d   1     -11.073  48.379  13.317  0.00  0.00    -0.346 N 
ATOM     38  CA  ASN d   1     -11.099  49.836  13.126  0.00  0.00     0.097 C 
ATOM     39  C   ASN d   1      -9.826  50.396  13.791  0.00  0.00     0.241 C 
ATOM     40  O   ASN d   1      -9.798  50.680  14.998  0.00  0.00    -0.271 OA
ATOM     41  H   ASN d   1     -10.585  48.003  14.130  0.00  0.00     0.163 HD
ATOM     42  H   ASN d   1     -11.113  50.084  12.065  0.00  0.00     0.088 H 
ATOM     43  N   LEU d   1      -8.763  50.500  12.989  0.00  0.00    -0.346 N 
ATOM     44  CA  LEU d   1      -7.420  50.758  13.517  0.00  0.00     0.089 C 
ATOM     45  C   LEU d   1      -7.371  52.193  14.034  0.00  0.00     0.241 C 
ATOM     46  O   LEU d   1      -6.645  52.491  15.003  0.00  0.00    -0.271 OA
ATOM     47  H   LEU d   1      -8.889  50.397  11.982  0.00  0.00     0.163 HD
ATOM     48  H   LEU d   1      -7.195  50.086  14.345  0.00  0.00     0.087 H 
ENDROOT
BRANCH  14  49
ATOM     49  CB  LYS d   1     -10.890  48.086  17.166  0.00  0.00    -0.038 C 
ATOM     50  H   LYS d   1     -11.254  47.064  17.270  0.00  0.00     0.036 H 
ATOM     51  H   LYS d   1     -11.116  48.570  16.216  0.00  0.00     0.036 H 
BRANCH  49  52
ATOM     52  CG  LYS d   1     -11.591  48.915  18.258  0.00  0.00    -0.061 C 
ATOM     53  H   LYS d   1     -12.652  48.952  18.009  0.00  0.00     0.033 H 
ATOM     54  H   LYS d   1     -11.113  49.894  18.282  0.00  0.00     0.033 H 
BRANCH  52  55
ATOM     55  CD  LYS d   1     -11.470  48.313  19.658  0.00  0.00    -0.043 C 
ATOM     56  H   LYS d   1     -10.425  48.258  19.962  0.00  0.00     0.035 H 
ATOM     57  H   LYS d   1     -11.867  47.298  19.674  0.00  0.00     0.035 H 
BRANCH  55  58
ATOM     58  CE  LYS d   1     -12.261  49.215  20.613  0.00  0.00     0.080 C 
ATOM     59  H   LYS d   1     -13.320  49.123  20.374  0.00  0.00     0.075 H 
ATOM     60  H   LYS d   1     -11.908  50.239  20.490  0.00  0.00     0.075 H 
BRANCH  58  61
ATOM     61  NZ  LYS d   1     -12.068  48.826  22.007  0.00  0.00    -0.079 N 
ATOM     62  H   LYS d   1     -12.608  49.447  22.610  0.00  0.00     0.274 HD
ATOM     63  H   LYS d   1     -12.383  47.865  22.137  0.00  0.00     0.274 HD
ATOM     64  H   LYS d   1     -11.078  48.896  22.244  0.00  0.00     0.274 HD
ENDBRANCH  58  61
ENDBRANCH  55  58
ENDBRANCH  52  55
ENDBRANCH  49  52
ENDBRANCH  14  49
BRANCH   8  65
ATOM     65  CB  HIS d   1      -7.009  51.767  19.526  0.00  0.00     0.004 C 
ATOM     66  H   HIS d   1      -7.691  51.464  20.320  0.00  0.00     0.046 H 
ATOM     67  H   HIS d   1      -6.852  52.845  19.485  0.00  0.00     0.046 H 
BRANCH  65  68
ATOM     68  CG  HIS d   1      -5.676  51.120  19.796  0.00  0.00     0.053 A 
ATOM     69  ND1 HIS d   1      -4.541  51.843  20.109  0.00  0.00    -0.247 NA
ATOM     70  CE1 HIS d   1      -3.519  51.019  20.268  0.00  0.00     0.064 A 
ATOM     71  NE2 HIS d   1      -3.949  49.784  20.067  0.00  0.00    -0.359 N 
ATOM     72  H   HIS d   1      -2.499  51.307  20.521  0.00  0.00     0.143 H 
ATOM     73  CD2 HIS d   1      -5.290  49.820  19.760  0.00  0.00     0.002 A 
ATOM     74  H   HIS d   1      -3.378  48.941  20.130  0.00  0.00     0.166 HD
ATOM     75  H   HIS d   1      -5.924  48.964  19.531  0.00  0.00     0.114 H 
ENDBRANCH  65  68
ENDBRANCH   8  65
BRANCH  20  76
ATOM     76  CB  ILE d   1      -8.281  43.657  14.898  0.00  0.00    -0.030 C 
ATOM     77  H   ILE d   1      -8.428  43.475  15.963  0.00  0.00     0.043 H 
BRANCH  76  78
ATOM     78  CG1 ILE d   1      -6.996  43.098  14.297  0.00  0.00    -0.063 C 
ATOM     79  H   ILE d   1      -6.657  43.803  13.538  0.00  0.00     0.033 H 
ATOM     80  H   ILE d   1      -7.223  42.108  13.902  0.00  0.00     0.033 H 
BRANCH  78  81
ATOM     81  CD1 ILE d   1      -5.884  42.941  15.296  0.00  0.00    -0.076 C 
ATOM     82  H   ILE d   1      -5.646  43.913  15.729  0.00  0.00     0.027 H 
ATOM     83  H   ILE d   1      -6.200  42.258  16.085  0.00  0.00     0.027 H 
ATOM     84  H   ILE d   1      -5.003  42.539  14.796  0.00  0.00     0.027 H 
ENDBRANCH  78  81
ENDBRANCH  76  78
BRANCH  76  85
ATOM     85  CG2 ILE d   1      -9.315  42.961  14.004  0.00  0.00    -0.071 C 
ATOM     86  H   ILE d   1     -10.316  43.279  14.294  0.00  0.00     0.028 H 
ATOM     87  H   ILE d   1      -9.134  43.230  12.963  0.00  0.00     0.028 H 
ATOM     88  H   ILE d   1      -9.227  41.881  14.122  0.00  0.00     0.028 H 
ENDBRANCH  76  85
ENDBRANCH  20  76
BRANCH   2  89
ATOM     89  CB  SER d   1     -11.809  53.815  17.009  0.00  0.00     0.044 C 
ATOM     90  H   SER d   1     -12.186  54.773  16.652  0.00  0.00     0.077 H 
ATOM     91  H   SER d   1     -12.153  53.597  18.020  0.00  0.00     0.077 H 
BRANCH  89  92
ATOM     92  OG  SER d   1     -12.289  52.796  16.144  0.00  0.00    -0.398 OA
ATOM     93  H   SER d   1     -13.249  52.789  16.161  0.00  0.00     0.209 HD
ENDBRANCH  89  92
ENDBRANCH   2  89
BRANCH  26  94
ATOM     94  CB  ASP d   1     -12.792  45.327  12.877  0.00  0.00     0.043 C 
ATOM     95  H   ASP d   1     -12.597  44.255  12.888  0.00  0.00     0.052 H 
ATOM     96  H   ASP d   1     -13.442  45.628  12.055  0.00  0.00     0.052 H 
BRANCH  94  97
ATOM     97  CG  ASP d   1     -13.495  45.692  14.192  0.00  0.00     0.175 C 
ATOM     98  OD1 ASP d   1     -14.652  45.294  14.372  0.00  0.00    -0.648 OA
ATOM     99  OD2 ASP d   1     -12.884  46.340  15.077  0.00  0.00    -0.648 OA
ENDBRANCH  94  97
ENDBRANCH  26  94
BRANCH  30 100
ATOM    100  CB  ASP d   1      -9.339  55.198  12.851  0.00  0.00     0.043 C 
ATOM    101  H   ASP d   1      -9.710  56.081  13.372  0.00  0.00     0.052 H 
ATOM    102  H   ASP d   1     -10.128  54.488  12.602  0.00  0.00     0.052 H 
BRANCH 100 103
ATOM    103  CG  ASP d   1      -8.697  55.666  11.535  0.00  0.00     0.175 C 
ATOM    104  OD1 ASP d   1      -7.442  55.696  11.425  0.00  0.00    -0.648 OA
ATOM    105  OD2 ASP d   1      -9.462  56.006  10.602  0.00  0.00    -0.648 OA
ENDBRANCH 100 103
ENDBRANCH  30 100
BRANCH  38 106
ATOM    106  CB  ASN d   1     -12.377  50.464  13.705  0.00  0.00     0.036 C 
ATOM    107  H   ASN d   1     -12.221  50.595  14.776  0.00  0.00     0.051 H 
ATOM    108  H   ASN d   1     -13.207  49.799  13.464  0.00  0.00     0.051 H 
BRANCH 106 109
ATOM    109  CG  ASN d   1     -12.712  51.875  13.101  0.00  0.00     0.217 C 
ATOM    110  OD1 ASN d   1     -11.863  52.563  12.549  0.00  0.00    -0.274 OA
ATOM    111  ND2 ASN d   1     -13.966  52.282  13.237  0.00  0.00    -0.370 N 
ATOM    112  H   ASN d   1     -14.248  53.193  12.876  0.00  0.00     0.159 HD
ATOM    113  H   ASN d   1     -14.649  51.684  13.702  0.00  0.00     0.159 HD
ENDBRANCH 106 109
ENDBRANCH  38 106
BRANCH  44 114
ATOM    114  CB  LEU d   1      -6.364  50.492  12.429  0.00  0.00    -0.035 C 
ATOM    115  H   LEU d   1      -5.476  51.030  12.762  0.00  0.00     0.037 H 
ATOM    116  H   LEU d   1      -6.843  50.787  11.495  0.00  0.00     0.037 H 
BRANCH 114 117
ATOM    117  CG  LEU d   1      -5.880  49.032  12.187  0.00  0.00    -0.059 C 
ATOM    118  H   LEU d   1      -6.729  48.524  11.729  0.00  0.00     0.038 H 
BRANCH 117 119
ATOM    119  CD1 LEU d   1      -4.665  48.971  11.221  0.00  0.00    -0.073 C 
ATOM    120  H   LEU d   1      -4.945  49.400  10.259  0.00  0.00     0.028 H 
ATOM    121  H   LEU d   1      -3.836  49.538  11.645  0.00  0.00     0.028 H 
ATOM    122  H   LEU d   1      -4.364  47.933  11.083  0.00  0.00     0.028 H 
ENDBRANCH 117 119
BRANCH 117 123
ATOM    123  CD2 LEU d   1      -5.515  48.293  13.504  0.00  0.00    -0.073 C 
ATOM    124  H   LEU d   1      -4.713  48.831  14.011  0.00  0.00     0.028 H 
ATOM    125  H   LEU d   1      -6.391  48.251  14.151  0.00  0.00     0.028 H 
ATOM    126  H   LEU d   1      -5.185  47.281  13.271  0.00  0.00     0.028 H 
ENDBRANCH 117 123
ENDBRANCH 114 117
ENDBRANCH  44 114
TORSDOF 23
