REMARK  21 active torsions:
REMARK  status: ('A' for Active; 'I' for Inactive)
REMARK    1  A    between atoms: C_1  and  CH3_3 
REMARK       I    between atoms: C_1  and  N_4 
REMARK    2  A    between atoms: N_4  and  CA_5 
REMARK    3  A    between atoms: CA_5  and  C_6 
REMARK    4  A    between atoms: CA_5  and  CB_8 
REMARK       I    between atoms: C_6  and  N_10 
REMARK    5  A    between atoms: CB_8  and  OG_9 
REMARK    6  A    between atoms: N_10  and  CA_11 
REMARK    7  A    between atoms: CA_11  and  C_12 
REMARK    8  A    between atoms: CA_11  and  CB_14 
REMARK       I    between atoms: C_12  and  N_15 
REMARK    9  A    between atoms: N_15  and  CA_16 
REMARK   10  A    between atoms: CA_16  and  C_17 
REMARK   11  A    between atoms: CA_16  and  CB_19 
REMARK       I    between atoms: C_17  and  N_22 
REMARK   12  A    between atoms: CB_19  and  CG1_20 
REMARK   13  A    between atoms: CB_19  and  CG2_21 
REMARK   14  A    between atoms: N_22  and  CA_23 
REMARK   15  A    between atoms: CA_23  and  C_24 
REMARK   16  A    between atoms: CA_23  and  CB_26 
REMARK   17  A    between atoms: CB_26  and  CG_27 
REMARK   18  A    between atoms: N_33  and  CA_34 
REMARK   19  A    between atoms: CA_34  and  CB_35 
REMARK   20  A    between atoms: CA_34  and  C_41 
REMARK   21  A    between atoms: CB_35  and  CG_36 
ROOT
ATOM      1  C   VAL d   1     -23.934 -38.525   2.785  0.00  0.00     0.241 C 
ATOM      2  O   VAL d   1     -22.741 -38.481   3.084  0.00  0.00    -0.271 OA
ATOM      3  N   ALC d   1     -24.623 -39.660   2.718  0.00  0.00    -0.347 N 
ATOM      4  H   ALC d   1     -25.610 -39.628   2.463  0.00  0.00     0.163 HD
ENDROOT
BRANCH   3   5
ATOM      5  CA  ALC d   1     -24.007 -40.942   2.998  0.00  0.00     0.077 C 
ATOM      6  H   ALC d   1     -23.373 -40.865   3.881  0.00  0.00     0.085 H 
BRANCH   5   7
ATOM      7  C   ALC d   1     -23.138 -41.359   1.818  0.00  0.00     0.174 C 
ATOM      8  O   ALC d   1     -23.496 -40.983   0.484  0.00  0.00    -0.175 OA
ATOM      9  N   HSV d   1     -22.056 -42.076   2.105  0.00  0.00    -0.359 N 
ATOM     10  H   HSV d   1     -21.859 -42.310   3.078  0.00  0.00     0.162 HD
BRANCH   9  11
ATOM     11  CA  HSV d   1     -21.144 -42.536   1.065  0.00  0.00     0.067 C 
ATOM     12  H   HSV d   1     -21.578 -42.272   0.101  0.00  0.00     0.084 H 
BRANCH  11  13
ATOM     13  CB  HSV d   1     -19.784 -41.849   1.203  0.00  0.00     0.001 C 
ATOM     14  H   HSV d   1     -19.082 -42.386   0.565  0.00  0.00     0.046 H 
ATOM     15  H   HSV d   1     -19.518 -41.864   2.260  0.00  0.00     0.046 H 
BRANCH  13  16
ATOM     16  CG  HSV d   1     -19.783 -40.418   0.763  0.00  0.00     0.053 A 
ATOM     17  ND1 HSV d   1     -18.699 -39.585   0.941  0.00  0.00    -0.247 NA
ATOM     18  CE1 HSV d   1     -18.982 -38.388   0.459  0.00  0.00     0.064 A 
ATOM     19  NE2 HSV d   1     -20.211 -38.414  -0.026  0.00  0.00    -0.359 N 
ATOM     20  H   HSV d   1     -18.315 -37.526   0.461  0.00  0.00     0.143 H 
ATOM     21  CD2 HSV d   1     -20.733 -39.672   0.152  0.00  0.00     0.002 A 
ATOM     22  H   HSV d   1     -20.693 -37.628  -0.462  0.00  0.00     0.166 HD
ATOM     23  H   HSV d   1     -21.727 -40.007  -0.144  0.00  0.00     0.114 H 
ENDBRANCH  13  16
ENDBRANCH  11  13
BRANCH  11  24
ATOM     24  C   HSV d   1     -20.972 -44.051   1.113  0.00  0.00     0.110 C 
ATOM     25  O   HSV d   1     -21.343 -44.757   0.175  0.00  0.00    -0.305 OA
ATOM     26  H1  HSV d   1     -20.516 -44.513   1.987  0.00  0.00     0.146 H 
ENDBRANCH  11  24
ENDBRANCH   9  11
ENDBRANCH   5   7
BRANCH   5  27
ATOM     27  CB  ALC d   1     -25.092 -41.977   3.271  0.00  0.00    -0.036 C 
ATOM     28  H   ALC d   1     -24.617 -42.909   3.577  0.00  0.00     0.037 H 
ATOM     29  H   ALC d   1     -25.678 -42.117   2.363  0.00  0.00     0.037 H 
BRANCH  27  30
ATOM     30  CG  ALC d   1     -26.021 -41.513   4.386  0.00  0.00    -0.052 C 
ATOM     31  CD2 ALC d   1     -26.526 -42.723   5.163  0.00  0.00    -0.062 C 
ATOM     32  CE2 ALC d   1     -27.567 -42.310   6.196  0.00  0.00    -0.065 C 
ATOM     33  H   ALC d   1     -25.684 -43.185   5.679  0.00  0.00     0.033 H 
ATOM     34  H   ALC d   1     -26.984 -43.422   4.464  0.00  0.00     0.033 H 
ATOM     35  CZ  ALC d   1     -27.105 -41.076   6.961  0.00  0.00    -0.065 C 
ATOM     36  H   ALC d   1     -27.709 -43.129   6.901  0.00  0.00     0.033 H 
ATOM     37  H   ALC d   1     -28.500 -42.078   5.683  0.00  0.00     0.033 H 
ATOM     38  CE1 ALC d   1     -25.607 -40.860   6.783  0.00  0.00    -0.065 C 
ATOM     39  H   ALC d   1     -27.317 -41.219   8.021  0.00  0.00     0.033 H 
ATOM     40  H   ALC d   1     -27.634 -40.205   6.576  0.00  0.00     0.033 H 
ATOM     41  CD1 ALC d   1     -25.262 -40.581   5.324  0.00  0.00    -0.062 C 
ATOM     42  H   ALC d   1     -25.084 -41.763   7.098  0.00  0.00     0.033 H 
ATOM     43  H   ALC d   1     -25.305 -40.002   7.383  0.00  0.00     0.033 H 
ATOM     44  H   ALC d   1     -25.541 -39.553   5.092  0.00  0.00     0.033 H 
ATOM     45  H   ALC d   1     -24.193 -40.743   5.184  0.00  0.00     0.033 H 
ATOM     46  H   ALC d   1     -26.869 -40.980   3.956  0.00  0.00     0.040 H 
ENDBRANCH  27  30
ENDBRANCH   5  27
ENDBRANCH   3   5
BRANCH   1  47
ATOM     47  CA  VAL d   1     -24.707 -37.249   2.469  0.00  0.00     0.092 C 
ATOM     48  H   VAL d   1     -25.760 -37.489   2.322  0.00  0.00     0.088 H 
BRANCH  47  49
ATOM     49  N   VAL d   1     -24.633 -36.310   3.582  0.00  0.00    -0.346 N 
ATOM     50  C   ALA d   1     -25.683 -36.064   4.359  0.00  0.00     0.240 C 
ATOM     51  O   ALA d   1     -26.778 -36.602   4.197  0.00  0.00    -0.271 OA
ATOM     52  H   VAL d   1     -23.753 -35.830   3.769  0.00  0.00     0.163 HD
BRANCH  50  53
ATOM     53  CA  ALA d   1     -25.465 -35.061   5.487  0.00  0.00     0.086 C 
ATOM     54  H   ALA d   1     -24.591 -34.460   5.235  0.00  0.00     0.086 H 
BRANCH  53  55
ATOM     55  N   ALA d   1     -26.606 -34.163   5.623  0.00  0.00    -0.346 N 
ATOM     56  C   SER d   1     -26.722 -33.064   4.886  0.00  0.00     0.243 C 
ATOM     57  O   SER d   1     -25.885 -32.727   4.047  0.00  0.00    -0.271 OA
ATOM     58  H   ALA d   1     -27.334 -34.385   6.302  0.00  0.00     0.163 HD
BRANCH  56  59
ATOM     59  CA  SER d   1     -27.966 -32.216   5.131  0.00  0.00     0.109 C 
ATOM     60  H   SER d   1     -28.027 -32.001   6.198  0.00  0.00     0.090 H 
BRANCH  59  61
ATOM     61  N   SER d   1     -27.885 -30.944   4.424  0.00  0.00    -0.346 N 
ATOM     62  C   ACE d   1     -27.805 -29.822   5.143  0.00  0.00     0.214 C 
ATOM     63  O   ACE d   1     -27.705 -30.100   6.337  0.00  0.00    -0.274 OA
ATOM     64  H   SER d   1     -27.889 -30.912   3.405  0.00  0.00     0.163 HD
BRANCH  62  65
ATOM     65  CH3 ACE d   1     -27.508 -28.457   4.594  0.00  0.00    -0.003 C 
ATOM     66  H   ACE d   1     -28.170 -27.727   5.060  0.00  0.00     0.040 H 
ATOM     67  H   ACE d   1     -26.471 -28.198   4.809  0.00  0.00     0.040 H 
ATOM     68  H   ACE d   1     -27.668 -28.458   3.516  0.00  0.00     0.040 H 
ENDBRANCH  62  65
ENDBRANCH  59  61
BRANCH  59  69
ATOM     69  CB  SER d   1     -29.218 -32.986   4.706  0.00  0.00     0.044 C 
ATOM     70  H   SER d   1     -29.905 -32.294   4.220  0.00  0.00     0.077 H 
ATOM     71  H   SER d   1     -29.671 -33.431   5.592  0.00  0.00     0.077 H 
BRANCH  69  72
ATOM     72  OG  SER d   1     -28.895 -34.021   3.793  0.00  0.00    -0.398 OA
ATOM     73  H   SER d   1     -28.284 -34.633   4.208  0.00  0.00     0.209 HD
ENDBRANCH  69  72
ENDBRANCH  59  69
ENDBRANCH  56  59
ENDBRANCH  53  55
BRANCH  53  74
ATOM     74  CB  ALA d   1     -25.199 -35.783   6.799  0.00  0.00    -0.049 C 
ATOM     75  H   ALA d   1     -24.985 -35.051   7.578  0.00  0.00     0.030 H 
ATOM     76  H   ALA d   1     -26.078 -36.365   7.077  0.00  0.00     0.030 H 
ATOM     77  H   ALA d   1     -24.344 -36.449   6.679  0.00  0.00     0.030 H 
ENDBRANCH  53  74
ENDBRANCH  50  53
ENDBRANCH  47  49
BRANCH  47  78
ATOM     78  CB  VAL d   1     -24.153 -36.631   1.172  0.00  0.00    -0.033 C 
ATOM     79  H   VAL d   1     -24.908 -36.725   0.392  0.00  0.00     0.042 H 
BRANCH  78  80
ATOM     80  CG1 VAL d   1     -23.857 -35.153   1.372  0.00  0.00    -0.071 C 
ATOM     81  H   VAL d   1     -24.775 -34.634   1.649  0.00  0.00     0.028 H 
ATOM     82  H   VAL d   1     -23.118 -35.036   2.165  0.00  0.00     0.028 H 
ATOM     83  H   VAL d   1     -23.466 -34.733   0.445  0.00  0.00     0.028 H 
ENDBRANCH  78  80
BRANCH  78  84
ATOM     84  CG2 VAL d   1     -22.905 -37.375   0.721  0.00  0.00    -0.071 C 
ATOM     85  H   VAL d   1     -22.144 -37.311   1.499  0.00  0.00     0.028 H 
ATOM     86  H   VAL d   1     -23.153 -38.421   0.539  0.00  0.00     0.028 H 
ATOM     87  H   VAL d   1     -22.527 -36.925  -0.197  0.00  0.00     0.028 H 
ENDBRANCH  78  84
ENDBRANCH  47  78
ENDBRANCH   1  47
TORSDOF 21
