REMARK  23 active torsions:
REMARK  status: ('A' for Active; 'I' for Inactive)
REMARK    1  A    between atoms: C_1  and  CH3_3 
REMARK       I    between atoms: C_1  and  N_4 
REMARK    2  A    between atoms: N_4  and  CA_5 
REMARK    3  A    between atoms: CA_5  and  C_6 
REMARK    4  A    between atoms: CA_5  and  CB_8 
REMARK       I    between atoms: C_6  and  N_10 
REMARK    5  A    between atoms: CB_8  and  OG_9 
REMARK    6  A    between atoms: N_10  and  CA_11 
REMARK    7  A    between atoms: CA_11  and  C_12 
REMARK    8  A    between atoms: CA_11  and  CB_14 
REMARK       I    between atoms: C_12  and  N_15 
REMARK    9  A    between atoms: N_15  and  CA_16 
REMARK   10  A    between atoms: CA_16  and  C_17 
REMARK   11  A    between atoms: CA_16  and  CB_19 
REMARK       I    between atoms: C_17  and  N_22 
REMARK   12  A    between atoms: CB_19  and  CG1_20 
REMARK   13  A    between atoms: CB_19  and  CG2_21 
REMARK   14  A    between atoms: N_22  and  CA_23 
REMARK   15  A    between atoms: CA_23  and  C_24 
REMARK   16  A    between atoms: CA_23  and  CB_26 
REMARK       I    between atoms: C_24  and  N_30 
REMARK   17  A    between atoms: CB_26  and  CG_27 
REMARK   18  A    between atoms: CG_27  and  CD1_28 
REMARK   19  A    between atoms: CG_27  and  CD2_29 
REMARK   20  A    between atoms: N_30  and  CA_31 
REMARK   21  A    between atoms: CA_31  and  CB_32 
REMARK   22  A    between atoms: CA_31  and  C_38 
REMARK   23  A    between atoms: CB_32  and  CG_33 
ROOT
ATOM      1  CA  VAL d   1     -24.439 -37.811   3.529  0.00  0.00     0.092 C 
ATOM      2  H15 VAL d   1     -25.513 -38.049   3.527  0.00  0.00     0.088 H 
ENDROOT
BRANCH   1   3
ATOM      3  N   VAL d   1     -24.202 -36.814   4.577  0.00  0.00    -0.346 N 
ATOM      4  C   ALA d   1     -25.201 -36.195   5.209  0.00  0.00     0.240 C 
ATOM      5  O   ALA d   1     -26.397 -36.381   4.922  0.00  0.00    -0.271 OA
ATOM      6  H14 VAL d   1     -23.260 -36.590   4.827  0.00  0.00     0.163 HD
BRANCH   4   7
ATOM      7  CA  ALA d   1     -24.808 -35.190   6.317  0.00  0.00     0.086 C 
ATOM      8  H10 ALA d   1     -23.875 -34.689   6.021  0.00  0.00     0.086 H 
BRANCH   7   9
ATOM      9  N   ALA d   1     -25.858 -34.183   6.467  0.00  0.00    -0.346 N 
ATOM     10  C   SER d   1     -26.115 -33.301   5.508  0.00  0.00     0.243 C 
ATOM     11  O   SER d   1     -25.315 -33.049   4.590  0.00  0.00    -0.271 OA
ATOM     12  H9  ALA d   1     -26.394 -34.158   7.311  0.00  0.00     0.163 HD
BRANCH  10  13
ATOM     13  CA  SER d   1     -27.493 -32.621   5.599  0.00  0.00     0.109 C 
ATOM     14  H5  SER d   1     -27.749 -32.520   6.664  0.00  0.00     0.090 H 
BRANCH  13  15
ATOM     15  N   SER d   1     -27.509 -31.268   5.011  0.00  0.00    -0.346 N 
ATOM     16  C   ACE d   1     -27.361 -30.134   5.714  0.00  0.00     0.214 C 
ATOM     17  O   ACE d   1     -27.258 -30.176   6.949  0.00  0.00    -0.274 OA
ATOM     18  H4  SER d   1     -27.639 -31.191   4.022  0.00  0.00     0.163 HD
BRANCH  16  19
ATOM     19  CH3 ACE d   1     -27.535 -28.832   4.945  0.00  0.00    -0.003 C 
ATOM     20  H1  ACE d   1     -27.603 -29.048   3.869  0.00  0.00     0.040 H 
ATOM     21  H2  ACE d   1     -26.672 -28.177   5.133  0.00  0.00     0.040 H 
ATOM     22  H3  ACE d   1     -28.456 -28.330   5.277  0.00  0.00     0.040 H 
ENDBRANCH  16  19
ENDBRANCH  13  15
BRANCH  13  23
ATOM     23  CB  SER d   1     -28.557 -33.537   4.927  0.00  0.00     0.044 C 
ATOM     24  H6  SER d   1     -28.315 -34.585   5.158  0.00  0.00     0.077 H 
ATOM     25  H7  SER d   1     -28.517 -33.382   3.839  0.00  0.00     0.077 H 
BRANCH  23  26
ATOM     26  OG  SER d   1     -29.880 -33.267   5.376  0.00  0.00    -0.398 OA
ATOM     27  H8  SER d   1     -30.488 -33.851   4.937  0.00  0.00     0.209 HD
ENDBRANCH  23  26
ENDBRANCH  13  23
ENDBRANCH  10  13
ENDBRANCH   7   9
BRANCH   7  28
ATOM     28  CB  ALA d   1     -24.581 -35.893   7.630  0.00  0.00    -0.049 C 
ATOM     29  H11 ALA d   1     -23.791 -36.648   7.510  0.00  0.00     0.030 H 
ATOM     30  H12 ALA d   1     -25.512 -36.384   7.949  0.00  0.00     0.030 H 
ATOM     31  H13 ALA d   1     -24.274 -35.160   8.390  0.00  0.00     0.030 H 
ENDBRANCH   7  28
ENDBRANCH   4   7
ENDBRANCH   1   3
BRANCH   1  32
ATOM     32  C   VAL d   1     -23.672 -39.088   3.893  0.00  0.00     0.241 C 
ATOM     33  O   VAL d   1     -22.450 -39.100   3.989  0.00  0.00    -0.271 OA
ATOM     34  N   LEU d   1     -24.403 -40.179   4.093  0.00  0.00    -0.346 N 
ATOM     35  H23 LEU d   1     -25.399 -40.126   4.020  0.00  0.00     0.163 HD
BRANCH  34  36
ATOM     36  CA  LEU d   1     -23.773 -41.454   4.418  0.00  0.00     0.089 C 
ATOM     37  H24 LEU d   1     -22.901 -41.257   5.059  0.00  0.00     0.087 H 
BRANCH  36  38
ATOM     38  C   LEU d   1     -23.292 -42.157   3.151  0.00  0.00     0.241 C 
ATOM     39  O   LEU d   1     -24.102 -42.578   2.326  0.00  0.00    -0.271 OA
ATOM     40  N   HSV d   1     -21.976 -42.283   2.995  0.00  0.00    -0.344 N 
ATOM     41  H34 HSV d   1     -21.358 -41.943   3.704  0.00  0.00     0.163 HD
BRANCH  40  42
ATOM     42  CA  HSV d   1     -21.425 -42.916   1.794  0.00  0.00     0.101 C 
ATOM     43  H35 HSV d   1     -21.972 -42.528   0.922  0.00  0.00     0.090 H 
BRANCH  42  44
ATOM     44  CB  HSV d   1     -19.951 -42.533   1.608  0.00  0.00     0.005 C 
ATOM     45  H36 HSV d   1     -19.518 -43.186   0.836  0.00  0.00     0.046 H 
ATOM     46  H37 HSV d   1     -19.428 -42.696   2.562  0.00  0.00     0.046 H 
BRANCH  44  47
ATOM     47  CG  HSV d   1     -19.742 -41.106   1.192  0.00  0.00     0.053 A 
ATOM     48  ND1 HSV d   1     -18.811 -40.285   1.787  0.00  0.00    -0.247 NA
ATOM     49  CE1 HSV d   1     -18.824 -39.103   1.199  0.00  0.00     0.064 A 
ATOM     50  NE2 HSV d   1     -19.738 -39.122   0.248  0.00  0.00    -0.359 N 
ATOM     51  H39 HSV d   1     -18.189 -38.257   1.455  0.00  0.00     0.143 H 
ATOM     52  CD2 HSV d   1     -20.329 -40.362   0.223  0.00  0.00     0.002 A 
ATOM     53  H40 HSV d   1     -19.971 -38.335  -0.375  0.00  0.00     0.166 HD
ATOM     54  H38 HSV d   1     -21.121 -40.687  -0.450  0.00  0.00     0.114 H 
ENDBRANCH  44  47
ENDBRANCH  42  44
BRANCH  42  55
ATOM     55  C   HSV d   1     -21.685 -44.452   1.861  0.00  0.00     0.197 C 
ATOM     56  O   HSV d   1     -20.892 -45.290   1.427  0.00  0.00    -0.646 OA
ATOM     57  O1  HSV d   1     -22.758 -44.856   2.384  0.00  0.00    -0.646 OA
ENDBRANCH  42  55
ENDBRANCH  40  42
ENDBRANCH  36  38
BRANCH  36  58
ATOM     58  CB  LEU d   1     -24.745 -42.354   5.183  0.00  0.00    -0.035 C 
ATOM     59  H25 LEU d   1     -24.219 -43.291   5.420  0.00  0.00     0.037 H 
ATOM     60  H26 LEU d   1     -25.596 -42.568   4.520  0.00  0.00     0.037 H 
BRANCH  58  61
ATOM     61  CG  LEU d   1     -25.303 -41.789   6.491  0.00  0.00    -0.059 C 
ATOM     62  H27 LEU d   1     -25.951 -40.935   6.247  0.00  0.00     0.038 H 
BRANCH  61  63
ATOM     63  CD1 LEU d   1     -26.144 -42.832   7.212  0.00  0.00    -0.073 C 
ATOM     64  H28 LEU d   1     -26.534 -42.405   8.148  0.00  0.00     0.028 H 
ATOM     65  H29 LEU d   1     -25.522 -43.710   7.441  0.00  0.00     0.028 H 
ATOM     66  H30 LEU d   1     -26.983 -43.135   6.569  0.00  0.00     0.028 H 
ENDBRANCH  61  63
BRANCH  61  67
ATOM     67  CD2 LEU d   1     -24.178 -41.290   7.385  0.00  0.00    -0.073 C 
ATOM     68  H31 LEU d   1     -23.585 -40.538   6.843  0.00  0.00     0.028 H 
ATOM     69  H32 LEU d   1     -23.531 -42.134   7.666  0.00  0.00     0.028 H 
ATOM     70  H33 LEU d   1     -24.604 -40.837   8.292  0.00  0.00     0.028 H 
ENDBRANCH  61  67
ENDBRANCH  58  61
ENDBRANCH  36  58
ENDBRANCH  34  36
ENDBRANCH   1  32
BRANCH   1  71
ATOM     71  CB  VAL d   1     -24.074 -37.280   2.071  0.00  0.00    -0.033 C 
ATOM     72  H16 VAL d   1     -23.052 -36.876   2.124  0.00  0.00     0.042 H 
BRANCH  71  73
ATOM     73  CG1 VAL d   1     -24.059 -38.420   1.005  0.00  0.00    -0.071 C 
ATOM     74  H17 VAL d   1     -23.802 -37.999   0.022  0.00  0.00     0.028 H 
ATOM     75  H18 VAL d   1     -25.053 -38.889   0.955  0.00  0.00     0.028 H 
ATOM     76  H19 VAL d   1     -23.311 -39.176   1.287  0.00  0.00     0.028 H 
ENDBRANCH  71  73
BRANCH  71  77
ATOM     77  CG2 VAL d   1     -25.005 -36.115   1.637  0.00  0.00    -0.071 C 
ATOM     78  H20 VAL d   1     -24.994 -35.330   2.408  0.00  0.00     0.028 H 
ATOM     79  H21 VAL d   1     -26.031 -36.492   1.513  0.00  0.00     0.028 H 
ATOM     80  H22 VAL d   1     -24.650 -35.698   0.683  0.00  0.00     0.028 H 
ENDBRANCH  71  77
ENDBRANCH   1  71
TORSDOF 23
