REMARK WARNING: 32 MAX_TORS EXCEEDED!!!
REMARK  42 active torsions:
REMARK  status: ('A' for Active; 'I' for Inactive)
REMARK    1  A    between atoms: N_1  and  CA_2 
REMARK    2  A    between atoms: CA_2  and  C_3 
REMARK       I    between atoms: C_3  and  N_5 
REMARK    3  A    between atoms: N_5  and  CA_6 
REMARK    4  A    between atoms: CA_12  and  CB_15 
REMARK    5  A    between atoms: CB_15  and  CG_16 
REMARK    6  A    between atoms: CG_16  and  CD_17 
REMARK    7  A    between atoms: CD_17  and  NE_18 
REMARK       I    between atoms: NE_18  and  CZ_19 
REMARK       I    between atoms: CZ_19  and  NH1_20 
REMARK       I    between atoms: CZ_19  and  NH2_21 
REMARK    8  A    between atoms: CA_23  and  CB_26 
REMARK    9  A    between atoms: CB_26  and  CG_27 
REMARK   10  A    between atoms: CG_27  and  CD1_28 
REMARK   11  A    between atoms: CG_27  and  CD2_29 
REMARK   12  A    between atoms: CA_31  and  C_32 
REMARK       I    between atoms: C_32  and  N_36 
REMARK   13  A    between atoms: N_36  and  CA_37 
REMARK   14  A    between atoms: CA_37  and  C_38 
REMARK   15  A    between atoms: CA_37  and  CB_40 
REMARK       I    between atoms: C_38  and  N_47 
REMARK   16  A    between atoms: CB_40  and  CG_41 
REMARK   17  A    between atoms: CG_41  and  CD_42 
REMARK   18  A    between atoms: CD_42  and  NE_43 
REMARK       I    between atoms: NE_43  and  CZ_44 
REMARK       I    between atoms: CZ_44  and  NH1_45 
REMARK   19  A    between atoms: N_47  and  CA_48 
REMARK   20  A    between atoms: CA_48  and  C_49 
REMARK   21  A    between atoms: CA_48  and  CB_51 
REMARK       I    between atoms: C_49  and  N_55 
REMARK   22  A    between atoms: CB_51  and  CG_52 
REMARK   23  A    between atoms: CG_52  and  CD1_53 
REMARK   24  A    between atoms: CG_52  and  CD2_54 
REMARK   25  A    between atoms: N_55  and  CA_56 
REMARK   26  A    between atoms: CA_56  and  C_57 
REMARK   27  A    between atoms: CA_56  and  CB_59 
REMARK       I    between atoms: C_57  and  N_63 
REMARK   28  A    between atoms: CB_59  and  CG_60 
REMARK   29  A    between atoms: CG_60  and  CD1_61 
REMARK   30  A    between atoms: CG_60  and  CD2_62 
REMARK   31  A    between atoms: N_63  and  CA_64 
REMARK   32  A    between atoms: CA_64  and  C_65 
REMARK   33  A    between atoms: CA_64  and  CB_67 
REMARK       I    between atoms: C_65  and  N_69 
REMARK   34  A    between atoms: CB_67  and  OG_68 
REMARK   35  A    between atoms: N_69  and  CA_70 
REMARK   36  A    between atoms: CA_70  and  C_71 
REMARK   37  A    between atoms: CA_70  and  CB_73 
REMARK       I    between atoms: C_71  and  N_81 
REMARK   38  A    between atoms: CB_73  and  CG_74 
REMARK   39  A    between atoms: CZ_79  and  OH_80 
REMARK   40  A    between atoms: N_81  and  CA_82 
REMARK   41  A    between atoms: CA_82  and  C_83 
REMARK   42  A    between atoms: CA_82  and  CB_85 
ROOT
ATOM      1  CA  ARG d   1      -3.884  41.396  16.195  0.00  0.00     0.089 C 
ATOM      2  H   ARG d   1      -2.825  41.408  15.939  0.00  0.00     0.087 H 
ENDROOT
BRANCH   1   3
ATOM      3  N   ARG d   1      -4.453  40.018  16.098  0.00  0.00    -0.346 N 
ATOM      4  C   CYS d   1      -4.013  38.919  16.724  0.00  0.00     0.241 C 
ATOM      5  O   CYS d   1      -3.094  38.884  17.549  0.00  0.00    -0.271 OA
ATOM      6  H   ARG d   1      -5.263  39.902  15.490  0.00  0.00     0.163 HD
BRANCH   4   7
ATOM      7  CA  CYS d   1      -4.741  37.622  16.335  0.00  0.00     0.098 C 
ATOM      8  N   CYS d   1      -6.199  37.795  16.169  0.00  0.00    -0.345 N 
ATOM      9  C   LEU d   1      -6.935  38.266  17.162  0.00  0.00     0.241 C 
ATOM     10  H   CYS d   1      -6.641  37.550  15.283  0.00  0.00     0.163 HD
ATOM     11  CA  LEU d   1      -8.426  38.511  16.933  0.00  0.00     0.089 C 
ATOM     12  O   LEU d   1      -6.461  38.549  18.246  0.00  0.00    -0.271 OA
ATOM     13  N   LEU d   1      -8.713  39.231  15.682  0.00  0.00    -0.346 N 
ATOM     14  H   LEU d   1      -8.754  39.173  17.734  0.00  0.00     0.087 H 
ATOM     15  C   ARG d   1      -8.212  40.437  15.412  0.00  0.00     0.241 C 
ATOM     16  H   LEU d   1      -9.321  38.789  14.992  0.00  0.00     0.163 HD
ATOM     17  CA  ARG d   1      -8.466  40.981  13.999  0.00  0.00     0.089 C 
ATOM     18  O   ARG d   1      -7.608  41.104  16.242  0.00  0.00    -0.271 OA
ATOM     19  N   ARG d   1      -8.407  39.941  12.956  0.00  0.00    -0.346 N 
ATOM     20  H   ARG d   1      -7.653  41.682  13.812  0.00  0.00     0.087 H 
ATOM     21  C   DCY d   1      -7.329  39.176  12.820  0.00  0.00     0.241 C 
ATOM     22  H   ARG d   1      -9.203  39.807  12.332  0.00  0.00     0.163 HD
ATOM     23  CA  DCY d   1      -7.321  38.148  11.682  0.00  0.00     0.098 C 
ATOM     24  O   DCY d   1      -6.367  39.284  13.565  0.00  0.00    -0.271 OA
ATOM     25  CB  DCY d   1      -6.304  37.011  11.954  0.00  0.00     0.013 C 
ATOM     26  H   DCY d   1      -6.997  38.684  10.790  0.00  0.00     0.088 H 
ATOM     27  SG  DCY d   1      -6.512  36.175  13.566  0.00  0.00    -0.095 SA
ATOM     28  H   DCY d   1      -5.313  37.464  11.956  0.00  0.00     0.053 H 
ATOM     29  H   DCY d   1      -6.456  36.257  11.182  0.00  0.00     0.053 H 
ATOM     30  SG  CYS d   1      -4.782  35.474  14.462  0.00  0.00    -0.095 SA
ATOM     31  CB  CYS d   1      -4.089  37.080  15.068  0.00  0.00     0.013 C 
ATOM     32  H   CYS d   1      -3.040  36.902  15.304  0.00  0.00     0.053 H 
ATOM     33  H   CYS d   1      -4.264  37.816  14.283  0.00  0.00     0.053 H 
ATOM     34  H   CYS d   1      -4.640  36.907  17.151  0.00  0.00     0.088 H 
BRANCH  11  35
ATOM     35  CB  LEU d   1      -9.229  37.206  17.041  0.00  0.00    -0.035 C 
ATOM     36  H   LEU d   1      -8.746  36.494  16.372  0.00  0.00     0.037 H 
ATOM     37  H   LEU d   1     -10.261  37.462  16.803  0.00  0.00     0.037 H 
BRANCH  35  38
ATOM     38  CG  LEU d   1      -9.257  36.551  18.414  0.00  0.00    -0.059 C 
ATOM     39  H   LEU d   1      -8.296  36.052  18.537  0.00  0.00     0.038 H 
BRANCH  38  40
ATOM     40  CD1 LEU d   1      -9.326  37.550  19.621  0.00  0.00    -0.073 C 
ATOM     41  H   LEU d   1      -8.453  38.202  19.602  0.00  0.00     0.028 H 
ATOM     42  H   LEU d   1     -10.232  38.152  19.542  0.00  0.00     0.028 H 
ATOM     43  H   LEU d   1      -9.342  36.989  20.555  0.00  0.00     0.028 H 
ENDBRANCH  38  40
BRANCH  38  44
ATOM     44  CD2 LEU d   1     -10.430  35.493  18.469  0.00  0.00    -0.073 C 
ATOM     45  H   LEU d   1     -11.380  35.996  18.286  0.00  0.00     0.028 H 
ATOM     46  H   LEU d   1     -10.267  34.732  17.706  0.00  0.00     0.028 H 
ATOM     47  H   LEU d   1     -10.449  35.024  19.453  0.00  0.00     0.028 H 
ENDBRANCH  38  44
ENDBRANCH  35  38
ENDBRANCH  11  35
BRANCH  17  48
ATOM     48  CB  ARG d   1      -9.810  41.726  13.908  0.00  0.00    -0.036 C 
ATOM     49  H   ARG d   1     -10.474  41.110  13.302  0.00  0.00     0.036 H 
ATOM     50  H   ARG d   1      -9.600  42.712  13.493  0.00  0.00     0.036 H 
BRANCH  48  51
ATOM     51  CG  ARG d   1     -10.494  41.943  15.223  0.00  0.00    -0.048 C 
ATOM     52  H   ARG d   1     -10.388  42.992  15.498  0.00  0.00     0.035 H 
ATOM     53  H   ARG d   1     -10.035  41.287  15.963  0.00  0.00     0.035 H 
BRANCH  51  54
ATOM     54  CD  ARG d   1     -12.014  41.606  15.141  0.00  0.00     0.009 C 
ATOM     55  H   ARG d   1     -12.103  40.604  14.722  0.00  0.00     0.064 H 
ATOM     56  H   ARG d   1     -12.486  42.379  14.535  0.00  0.00     0.064 H 
BRANCH  54  57
ATOM     57  NE  ARG d   1     -12.694  41.597  16.454  0.00  0.00    -0.227 N 
ATOM     58  CZ  ARG d   1     -12.449  42.447  17.469  0.00  0.00     0.665 C 
ATOM     59  NH1 ARG d   1     -11.541  43.426  17.350  0.00  0.00    -0.235 N 
ATOM     60  NH2 ARG d   1     -13.134  42.338  18.607  0.00  0.00    -0.235 N 
ATOM     61  H   ARG d   1     -11.022  43.537  16.479  0.00  0.00     0.174 HD
ATOM     62  H   ARG d   1     -11.370  44.060  18.130  0.00  0.00     0.174 HD
ATOM     63  H   ARG d   1     -13.843  41.611  18.708  0.00  0.00     0.174 HD
ATOM     64  H   ARG d   1     -12.950  42.981  19.377  0.00  0.00     0.174 HD
ATOM     65  H   ARG d   1     -13.410  40.886  16.604  0.00  0.00     0.177 HD
ENDBRANCH  54  57
ENDBRANCH  51  54
ENDBRANCH  48  51
ENDBRANCH  17  48
BRANCH  23  66
ATOM     66  N   DCY d   1      -8.651  37.617  11.377  0.00  0.00    -0.346 N 
ATOM     67  C   GLY d   1      -9.001  37.333  10.117  0.00  0.00     0.243 C 
ATOM     68  O   GLY d   1      -8.219  37.457   9.167  0.00  0.00    -0.272 OA
ATOM     69  H   DCY d   1      -9.318  37.462  12.133  0.00  0.00     0.163 HD
BRANCH  67  70
ATOM     70  CA  GLY d   1     -10.413  36.825   9.868  0.00  0.00     0.152 C 
ATOM     71  H   GLY d   1     -10.385  35.736   9.901  0.00  0.00     0.090 H 
ATOM     72  H   GLY d   1     -11.061  37.258  10.630  0.00  0.00     0.090 H 
BRANCH  70  73
ATOM     73  N   GLY d   1     -10.957  37.230   8.518  0.00  0.00    -0.071 N 
ATOM     74  H   GLY d   1     -11.902  36.862   8.409  0.00  0.00     0.274 HD
ATOM     75  H   GLY d   1     -10.977  38.248   8.452  0.00  0.00     0.274 HD
ATOM     76  H   GLY d   1     -10.357  36.853   7.784  0.00  0.00     0.274 HD
ENDBRANCH  70  73
ENDBRANCH  67  70
ENDBRANCH  23  66
ENDBRANCH   4   7
ENDBRANCH   1   3
BRANCH   1  77
ATOM     77  C   ARG d   1      -4.146  41.865  17.614  0.00  0.00     0.241 C 
ATOM     78  O   ARG d   1      -3.262  42.362  18.336  0.00  0.00    -0.271 OA
ATOM     79  N   LEU d   1      -5.393  41.673  18.025  0.00  0.00    -0.346 N 
ATOM     80  H   LEU d   1      -6.083  41.274  17.389  0.00  0.00     0.163 HD
BRANCH  79  81
ATOM     81  CA  LEU d   1      -5.772  42.025  19.361  0.00  0.00     0.089 C 
ATOM     82  H   LEU d   1      -5.561  43.084  19.511  0.00  0.00     0.087 H 
BRANCH  81  83
ATOM     83  C   LEU d   1      -4.960  41.266  20.406  0.00  0.00     0.241 C 
ATOM     84  O   LEU d   1      -4.519  41.857  21.417  0.00  0.00    -0.271 OA
ATOM     85  N   LEU d   1      -4.742  39.971  20.166  0.00  0.00    -0.346 N 
ATOM     86  H   LEU d   1      -5.137  39.537  19.331  0.00  0.00     0.163 HD
BRANCH  85  87
ATOM     87  CA  LEU d   1      -3.934  39.162  21.099  0.00  0.00     0.089 C 
ATOM     88  H   LEU d   1      -4.380  39.318  22.081  0.00  0.00     0.087 H 
BRANCH  87  89
ATOM     89  C   LEU d   1      -2.477  39.634  21.212  0.00  0.00     0.241 C 
ATOM     90  O   LEU d   1      -1.949  39.669  22.319  0.00  0.00    -0.271 OA
ATOM     91  N   SER d   1      -1.842  40.020  20.093  0.00  0.00    -0.344 N 
ATOM     92  H   SER d   1      -2.324  39.973  19.195  0.00  0.00     0.163 HD
BRANCH  91  93
ATOM     93  CA  SER d   1      -0.427  40.521  20.155  0.00  0.00     0.109 C 
ATOM     94  H   SER d   1       0.107  39.695  20.624  0.00  0.00     0.090 H 
BRANCH  93  95
ATOM     95  C   SER d   1      -0.237  41.762  20.960  0.00  0.00     0.243 C 
ATOM     96  O   SER d   1       0.802  41.952  21.557  0.00  0.00    -0.271 OA
ATOM     97  N   TYR d   1      -1.208  42.665  20.862  0.00  0.00    -0.346 N 
ATOM     98  H   TYR d   1      -2.041  42.426  20.324  0.00  0.00     0.163 HD
BRANCH  97  99
ATOM     99  CA  TYR d   1      -1.139  43.989  21.490  0.00  0.00     0.093 C 
ATOM    100  H   TYR d   1      -0.249  44.505  21.130  0.00  0.00     0.088 H 
BRANCH  99 101
ATOM    101  C   TYR d   1      -0.978  43.894  23.022  0.00  0.00     0.241 C 
ATOM    102  O   TYR d   1      -1.886  43.461  23.700  0.00  0.00    -0.271 OA
ATOM    103  N   ALA d   1       0.213  44.233  23.531  0.00  0.00    -0.345 N 
ATOM    104  H   ALA d   1       0.876  44.711  22.921  0.00  0.00     0.163 HD
BRANCH 103 105
ATOM    105  CA  ALA d   1       0.635  43.952  24.951  0.00  0.00     0.093 C 
ATOM    106  H   ALA d   1       0.010  44.638  25.523  0.00  0.00     0.089 H 
BRANCH 105 107
ATOM    107  C   ALA d   1       2.085  44.335  25.337  0.00  0.00     0.196 C 
ATOM    108  O   ALA d   1       2.616  43.911  26.418  0.00  0.00    -0.646 OA
ATOM    109  O1  ALA d   1       2.753  45.079  24.570  0.00  0.00    -0.646 OA
ENDBRANCH 105 107
BRANCH 105 110
ATOM    110  CB  ALA d   1       0.326  42.421  25.383  0.00  0.00    -0.048 C 
ATOM    111  H   ALA d   1      -0.744  42.230  25.301  0.00  0.00     0.030 H 
ATOM    112  H   ALA d   1       0.869  41.742  24.725  0.00  0.00     0.030 H 
ATOM    113  H   ALA d   1       0.646  42.264  26.413  0.00  0.00     0.030 H 
ENDBRANCH 105 110
ENDBRANCH 103 105
ENDBRANCH  99 101
BRANCH  99 114
ATOM    114  CB  TYR d   1      -2.369  44.797  21.092  0.00  0.00    -0.014 C 
ATOM    115  H   TYR d   1      -3.247  44.231  21.404  0.00  0.00     0.043 H 
ATOM    116  H   TYR d   1      -2.317  44.963  20.016  0.00  0.00     0.043 H 
BRANCH 114 117
ATOM    117  CG  TYR d   1      -2.443  46.154  21.757  0.00  0.00    -0.056 A 
ATOM    118  CD1 TYR d   1      -1.405  47.082  21.628  0.00  0.00    -0.074 A 
ATOM    119  CE1 TYR d   1      -1.452  48.338  22.239  0.00  0.00    -0.051 A 
ATOM    120  H   TYR d   1      -0.532  46.817  21.032  0.00  0.00     0.084 H 
ATOM    121  CZ  TYR d   1      -2.559  48.671  22.964  0.00  0.00     0.065 A 
ATOM    122  H   TYR d   1      -0.622  49.037  22.139  0.00  0.00     0.087 H 
ATOM    123  CE2 TYR d   1      -3.623  47.762  23.096  0.00  0.00    -0.051 A 
ATOM    124  CD2 TYR d   1      -3.548  46.506  22.521  0.00  0.00    -0.074 A 
ATOM    125  H   TYR d   1      -4.513  48.049  23.655  0.00  0.00     0.087 H 
ATOM    126  H   TYR d   1      -4.358  45.791  22.668  0.00  0.00     0.084 H 
BRANCH 121 127
ATOM    127  OH  TYR d   1      -2.645  49.892  23.579  0.00  0.00    -0.361 OA
ATOM    128  H   TYR d   1      -1.849  50.397  23.398  0.00  0.00     0.217 HD
ENDBRANCH 121 127
ENDBRANCH 114 117
ENDBRANCH  99 114
ENDBRANCH  97  99
ENDBRANCH  93  95
BRANCH  93 129
ATOM    129  CB  SER d   1       0.099  40.867  18.767  0.00  0.00     0.044 C 
ATOM    130  H   SER d   1       1.185  40.955  18.781  0.00  0.00     0.077 H 
ATOM    131  H   SER d   1      -0.301  41.825  18.435  0.00  0.00     0.077 H 
BRANCH 129 132
ATOM    132  OG  SER d   1      -0.299  39.844  17.903  0.00  0.00    -0.398 OA
ATOM    133  H   SER d   1      -1.257  39.788  17.896  0.00  0.00     0.209 HD
ENDBRANCH 129 132
ENDBRANCH  93 129
ENDBRANCH  91  93
ENDBRANCH  87  89
BRANCH  87 134
ATOM    134  CB  LEU d   1      -4.017  37.650  20.779  0.00  0.00    -0.035 C 
ATOM    135  H   LEU d   1      -3.346  37.129  21.462  0.00  0.00     0.037 H 
ATOM    136  H   LEU d   1      -3.747  37.517  19.732  0.00  0.00     0.037 H 
BRANCH 134 137
ATOM    137  CG  LEU d   1      -5.420  37.074  20.975  0.00  0.00    -0.059 C 
ATOM    138  H   LEU d   1      -6.103  37.702  20.404  0.00  0.00     0.038 H 
BRANCH 137 139
ATOM    139  CD1 LEU d   1      -5.519  35.662  20.453  0.00  0.00    -0.073 C 
ATOM    140  H   LEU d   1      -5.288  35.653  19.388  0.00  0.00     0.028 H 
ATOM    141  H   LEU d   1      -4.809  35.029  20.985  0.00  0.00     0.028 H 
ATOM    142  H   LEU d   1      -6.531  35.288  20.610  0.00  0.00     0.028 H 
ENDBRANCH 137 139
BRANCH 137 143
ATOM    143  CD2 LEU d   1      -5.823  37.106  22.431  0.00  0.00    -0.073 C 
ATOM    144  H   LEU d   1      -5.118  36.514  23.015  0.00  0.00     0.028 H 
ATOM    145  H   LEU d   1      -5.816  38.136  22.786  0.00  0.00     0.028 H 
ATOM    146  H   LEU d   1      -6.825  36.690  22.539  0.00  0.00     0.028 H 
ENDBRANCH 137 143
ENDBRANCH 134 137
ENDBRANCH  87 134
ENDBRANCH  85  87
ENDBRANCH  81  83
BRANCH  81 147
ATOM    147  CB  LEU d   1      -7.244  41.772  19.539  0.00  0.00    -0.035 C 
ATOM    148  H   LEU d   1      -7.393  40.722  19.286  0.00  0.00     0.037 H 
ATOM    149  H   LEU d   1      -7.745  42.517  18.921  0.00  0.00     0.037 H 
BRANCH 147 150
ATOM    150  CG  LEU d   1      -7.819  41.939  20.918  0.00  0.00    -0.059 C 
ATOM    151  H   LEU d   1      -7.369  41.272  21.653  0.00  0.00     0.038 H 
BRANCH 150 152
ATOM    152  CD1 LEU d   1      -7.552  43.352  21.455  0.00  0.00    -0.073 C 
ATOM    153  H   LEU d   1      -6.477  43.525  21.500  0.00  0.00     0.028 H 
ATOM    154  H   LEU d   1      -8.012  44.084  20.792  0.00  0.00     0.028 H 
ATOM    155  H   LEU d   1      -7.978  43.446  22.454  0.00  0.00     0.028 H 
ENDBRANCH 150 152
BRANCH 150 156
ATOM    156  CD2 LEU d   1      -9.296  41.653  20.743  0.00  0.00    -0.073 C 
ATOM    157  H   LEU d   1      -9.721  42.363  20.034  0.00  0.00     0.028 H 
ATOM    158  H   LEU d   1      -9.426  40.639  20.366  0.00  0.00     0.028 H 
ATOM    159  H   LEU d   1      -9.800  41.752  21.704  0.00  0.00     0.028 H 
ENDBRANCH 150 156
ENDBRANCH 147 150
ENDBRANCH  81 147
ENDBRANCH  79  81
ENDBRANCH   1  77
BRANCH   1 160
ATOM    160  CB  ARG d   1      -4.677  42.326  15.247  0.00  0.00    -0.036 C 
ATOM    161  H   ARG d   1      -5.159  43.045  15.910  0.00  0.00     0.036 H 
ATOM    162  H   ARG d   1      -5.284  41.650  14.645  0.00  0.00     0.036 H 
BRANCH 160 163
ATOM    163  CG  ARG d   1      -3.935  43.184  14.227  0.00  0.00    -0.048 C 
ATOM    164  H   ARG d   1      -2.891  43.228  14.536  0.00  0.00     0.035 H 
ATOM    165  H   ARG d   1      -4.425  44.157  14.201  0.00  0.00     0.035 H 
BRANCH 163 166
ATOM    166  CD  ARG d   1      -3.970  42.602  12.769  0.00  0.00     0.009 C 
ATOM    167  H   ARG d   1      -3.707  41.545  12.821  0.00  0.00     0.064 H 
ATOM    168  H   ARG d   1      -3.270  43.175  12.160  0.00  0.00     0.064 H 
BRANCH 166 169
ATOM    169  NE  ARG d   1      -5.307  42.710  12.152  0.00  0.00    -0.227 N 
ATOM    170  CZ  ARG d   1      -5.689  42.151  10.994  0.00  0.00     0.665 C 
ATOM    171  NH1 ARG d   1      -4.838  41.414  10.276  0.00  0.00    -0.235 N 
ATOM    172  NH2 ARG d   1      -6.940  42.329  10.555  0.00  0.00    -0.235 N 
ATOM    173  H   ARG d   1      -3.884  41.270  10.606  0.00  0.00     0.174 HD
ATOM    174  H   ARG d   1      -5.142  40.995   9.397  0.00  0.00     0.174 HD
ATOM    175  H   ARG d   1      -7.597  42.887  11.100  0.00  0.00     0.174 HD
ATOM    176  H   ARG d   1      -7.237  41.907   9.675  0.00  0.00     0.174 HD
ATOM    177  H   ARG d   1      -6.005  43.261  12.653  0.00  0.00     0.177 HD
ENDBRANCH 166 169
ENDBRANCH 163 166
ENDBRANCH 160 163
ENDBRANCH   1 160
TORSDOF 42
