REMARK  17 active torsions:
REMARK  status: ('A' for Active; 'I' for Inactive)
REMARK    1  A    between atoms: P1_1  and  O3_4 
REMARK    2  A    between atoms: P1_1  and  O7_23 
REMARK    3  A    between atoms: O3_4  and  C1_5 
REMARK    4  A    between atoms: C1_5  and  C2_6 
REMARK    5  A    between atoms: C3_8  and  O5_9 
REMARK    6  A    between atoms: C4_10  and  O6_11 
REMARK    7  A    between atoms: O6_11  and  P3_45 
REMARK    8  A    between atoms: C5_12  and  N1_13 
REMARK    9  A    between atoms: C8_17  and  N3_18 
REMARK   10  A    between atoms: O7_23  and  P2_24 
REMARK   11  A    between atoms: P2_24  and  O10_27 
REMARK   12  A    between atoms: O10_27  and  C11_28 
REMARK   13  A    between atoms: C11_28  and  C12_29 
REMARK   14  A    between atoms: C13_31  and  O12_32 
REMARK   15  A    between atoms: C14_33  and  O13_34 
REMARK   16  A    between atoms: C15_35  and  N6_36 
REMARK   17  A    between atoms: C17_38  and  C18_39 
REMARK       I    between atoms: C18_39  and  N7_41 
ROOT
ATOM      1  P1  NON d   1      31.058  25.308 -20.764  0.00  0.00     0.417 P 
ATOM      2  O1  NON d   1      31.421  23.873 -20.647  0.00  0.00    -0.624 OA
ATOM      3  O2  NON d   1      32.106  26.332 -20.954  0.00  0.00    -0.624 OA
ENDROOT
BRANCH   1   4
ATOM      4  O3  NON d   1      30.105  25.609 -19.527  0.00  0.00    -0.287 OA
BRANCH   4   5
ATOM      5  C1  NON d   1      29.575  26.938 -19.356  0.00  0.00     0.058 C 
ATOM      6  H   NON d   1      29.134  27.295 -20.298  0.00  0.00     0.079 H 
ATOM      7  H   NON d   1      30.372  27.627 -19.040  0.00  0.00     0.079 H 
BRANCH   5   8
ATOM      8  C2  NON d   1      28.518  26.844 -18.291  0.00  0.00     0.089 C 
ATOM      9  O4  NON d   1      27.618  25.730 -18.567  0.00  0.00    -0.353 OA
ATOM     10  C5  NON d   1      27.106  25.233 -17.327  0.00  0.00     0.140 C 
ATOM     11  C4  NON d   1      27.678  26.137 -16.231  0.00  0.00     0.121 C 
ATOM     12  H   NON d   1      26.011  25.342 -17.325  0.00  0.00     0.123 H 
ATOM     13  C3  NON d   1      28.993  26.598 -16.875  0.00  0.00     0.092 C 
ATOM     14  H   NON d   1      27.853  25.597 -15.289  0.00  0.00     0.095 H 
ATOM     15  H   NON d   1      29.780  25.832 -16.812  0.00  0.00     0.091 H 
ATOM     16  H   NON d   1      27.955  27.789 -18.308  0.00  0.00     0.090 H 
BRANCH  10  17
ATOM     17  N1  NON d   1      27.400  23.805 -17.164  0.00  0.00    -0.294 N 
ATOM     18  C6  NON d   1      28.110  22.992 -18.035  0.00  0.00     0.071 C 
ATOM     19  N2  NON d   1      28.318  21.782 -17.550  0.00  0.00    -0.236 NA
ATOM     20  H   NON d   1      28.459  23.317 -19.014  0.00  0.00     0.144 H 
ATOM     21  C7  NON d   1      27.487  21.728 -16.465  0.00  0.00     0.149 A 
ATOM     22  C8  NON d   1      27.290  20.735 -15.467  0.00  0.00     0.155 A 
ATOM     23  C10 NON d   1      26.877  22.965 -16.234  0.00  0.00     0.167 A 
ATOM     24  N4  NON d   1      26.452  21.040 -14.427  0.00  0.00    -0.222 NA
ATOM     25  C9  NON d   1      25.929  22.287 -14.300  0.00  0.00     0.091 A 
ATOM     26  N5  NON d   1      26.057  23.307 -15.185  0.00  0.00    -0.222 NA
ATOM     27  H   NON d   1      25.353  22.487 -13.404  0.00  0.00     0.146 H 
BRANCH  22  28
ATOM     28  N3  NON d   1      27.982  19.589 -15.476  0.00  0.00    -0.382 N 
ATOM     29  H   NON d   1      27.821  18.885 -14.742  0.00  0.00     0.157 HD
ATOM     30  H   NON d   1      28.675  19.412 -16.217  0.00  0.00     0.157 HD
ENDBRANCH  22  28
ENDBRANCH  10  17
BRANCH  11  31
ATOM     31  O6  NON d   1      26.778  27.214 -16.022  0.00  0.00    -0.270 OA
BRANCH  31  32
ATOM     32  P3  NON d   1      26.677  28.095 -14.672  0.00  0.00     0.422 P 
ATOM     33  O15 NON d   1      28.048  28.644 -14.338  0.00  0.00    -0.617 OA
ATOM     34  O16 NON d   1      25.660  29.119 -15.097  0.00  0.00    -0.617 OA
ATOM     35  O17 NON d   1      26.156  27.164 -13.600  0.00  0.00    -0.617 OA
ENDBRANCH  31  32
ENDBRANCH  11  31
BRANCH  13  36
ATOM     36  O5  NON d   1      29.445  27.819 -16.334  0.00  0.00    -0.390 OA
ATOM     37  H   NON d   1      30.160  28.153 -16.863  0.00  0.00     0.210 HD
ENDBRANCH  13  36
ENDBRANCH   5   8
ENDBRANCH   4   5
ENDBRANCH   1   4
BRANCH   1  38
ATOM     38  O7  NON d   1      29.977  25.403 -21.962  0.00  0.00    -0.180 OA
BRANCH  38  39
ATOM     39  P2  NON d   1      29.452  24.510 -23.149  0.00  0.00     0.417 P 
ATOM     40  O8  NON d   1      28.726  23.332 -22.583  0.00  0.00    -0.624 OA
ATOM     41  O9  NON d   1      28.731  25.418 -24.075  0.00  0.00    -0.624 OA
BRANCH  39  42
ATOM     42  O10 NON d   1      30.758  24.056 -23.945  0.00  0.00    -0.287 OA
BRANCH  42  43
ATOM     43  C11 NON d   1      31.028  22.685 -24.271  0.00  0.00     0.058 C 
ATOM     44  H   NON d   1      30.477  22.034 -23.576  0.00  0.00     0.079 H 
ATOM     45  H   NON d   1      32.107  22.497 -24.172  0.00  0.00     0.079 H 
BRANCH  43  46
ATOM     46  C12 NON d   1      30.601  22.376 -25.678  0.00  0.00     0.089 C 
ATOM     47  O11 NON d   1      31.091  21.085 -26.110  0.00  0.00    -0.353 OA
ATOM     48  C15 NON d   1      30.009  20.318 -26.589  0.00  0.00     0.136 C 
ATOM     49  C14 NON d   1      28.762  20.889 -25.874  0.00  0.00     0.105 C 
ATOM     50  H   NON d   1      29.889  20.471 -27.672  0.00  0.00     0.122 H 
ATOM     51  C13 NON d   1      29.100  22.370 -26.001  0.00  0.00     0.091 C 
ATOM     52  H   NON d   1      28.677  20.545 -24.833  0.00  0.00     0.093 H 
ATOM     53  H   NON d   1      28.551  22.939 -25.236  0.00  0.00     0.091 H 
ATOM     54  H   NON d   1      31.062  23.151 -26.308  0.00  0.00     0.090 H 
BRANCH  48  55
ATOM     55  N6  NON d   1      30.306  18.864 -26.365  0.00  0.00    -0.337 N 
ATOM     56  C16 NON d   1      31.389  18.362 -27.074  0.00  0.00    -0.006 C 
ATOM     57  C17 NON d   1      31.197  17.278 -27.947  0.00  0.00     0.028 C 
ATOM     58  H   NON d   1      32.377  18.804 -26.955  0.00  0.00     0.112 H 
ATOM     59  C19 NON d   1      29.918  16.633 -27.959  0.00  0.00    -0.018 C 
ATOM     60  C20 NON d   1      28.989  16.932 -26.936  0.00  0.00    -0.084 C 
ATOM     61  H   NON d   1      30.103  15.549 -27.919  0.00  0.00     0.046 H 
ATOM     62  H   NON d   1      29.438  16.888 -28.915  0.00  0.00     0.046 H 
ATOM     63  C21 NON d   1      29.274  17.967 -26.040  0.00  0.00    -0.021 C 
ATOM     64  H   NON d   1      28.064  16.364 -26.847  0.00  0.00     0.079 H 
ATOM     65  H   NON d   1      28.711  18.075 -25.114  0.00  0.00     0.111 H 
BRANCH  57  66
ATOM     66  C18 NON d   1      32.368  16.545 -28.532  0.00  0.00     0.247 C 
ATOM     67  O14 NON d   1      32.789  15.532 -27.965  0.00  0.00    -0.268 OA
ATOM     68  N7  NON d   1      33.002  17.122 -29.560  0.00  0.00    -0.366 N 
ATOM     69  H   NON d   1      33.788  16.669 -29.981  0.00  0.00     0.159 HD
ATOM     70  H   NON d   1      32.690  18.006 -29.907  0.00  0.00     0.159 HD
ENDBRANCH  57  66
ENDBRANCH  48  55
BRANCH  49  71
ATOM     71  O13 NON d   1      27.560  20.638 -26.583  0.00  0.00    -0.388 OA
ATOM     72  H   NON d   1      27.680  20.866 -27.497  0.00  0.00     0.210 HD
ENDBRANCH  49  71
BRANCH  51  73
ATOM     73  O12 NON d   1      28.792  22.949 -27.259  0.00  0.00    -0.390 OA
ATOM     74  H   NON d   1      27.853  22.916 -27.400  0.00  0.00     0.210 HD
ENDBRANCH  51  73
ENDBRANCH  43  46
ENDBRANCH  42  43
ENDBRANCH  39  42
ENDBRANCH  38  39
ENDBRANCH   1  38
TORSDOF 17
