REMARK  11 active torsions:
REMARK  status: ('A' for Active; 'I' for Inactive)
REMARK    1  A    between atoms: C1_1  and  C2_2 
REMARK    2  A    between atoms: C2_2  and  C3_3 
REMARK    3  A    between atoms: C2_2  and  O2_9 
REMARK    4  A    between atoms: C3_3  and  C4_4 
REMARK    5  A    between atoms: C3_3  and  O3_10 
REMARK    6  A    between atoms: C4_4  and  C5_5 
REMARK    7  A    between atoms: C4_4  and  O4_11 
REMARK    8  A    between atoms: C5_5  and  C6_6 
REMARK    9  A    between atoms: C5_5  and  O5_12 
REMARK   10  A    between atoms: C6_6  and  O6_13 
REMARK   11  A    between atoms: O6_13  and  P_14 
ROOT
ATOM      1  C4  6PG d   1      -2.449  -1.345  54.131  0.00  0.00     0.090 C 
ATOM      2  H   6PG d   1      -1.943  -2.243  53.777  0.00  0.00     0.091 H 
ENDROOT
BRANCH   1   3
ATOM      3  C3  6PG d   1      -2.711  -0.369  52.970  0.00  0.00     0.097 C 
ATOM      4  H   6PG d   1      -2.938   0.570  53.475  0.00  0.00     0.091 H 
BRANCH   3   5
ATOM      5  C2  6PG d   1      -1.552   0.039  52.048  0.00  0.00     0.146 C 
ATOM      6  H   6PG d   1      -0.815   0.503  52.703  0.00  0.00     0.104 H 
BRANCH   5   7
ATOM      7  C1  6PG d   1      -2.055   0.983  50.961  0.00  0.00     0.205 C 
ATOM      8  O1A 6PG d   1      -2.440   2.095  51.284  0.00  0.00    -0.646 OA
ATOM      9  O1  6PG d   1      -2.084   0.628  49.839  0.00  0.00    -0.646 OA
ENDBRANCH   5   7
BRANCH   5  10
ATOM     10  O2  6PG d   1      -0.951  -1.064  51.365  0.00  0.00    -0.382 OA
ATOM     11  H   6PG d   1      -0.237  -0.744  50.808  0.00  0.00     0.210 HD
ENDBRANCH   5  10
ENDBRANCH   3   5
BRANCH   3  12
ATOM     12  O3  6PG d   1      -3.768  -0.898  52.186  0.00  0.00    -0.390 OA
ATOM     13  H   6PG d   1      -4.554  -0.988  52.730  0.00  0.00     0.210 HD
ENDBRANCH   3  12
ENDBRANCH   1   3
BRANCH   1  14
ATOM     14  C5  6PG d   1      -1.590  -0.712  55.204  0.00  0.00     0.084 C 
ATOM     15  H   6PG d   1      -1.981   0.270  55.471  0.00  0.00     0.090 H 
BRANCH  14  16
ATOM     16  C6  6PG d   1      -1.584  -1.493  56.505  0.00  0.00     0.059 C 
ATOM     17  H   6PG d   1      -2.489  -1.247  57.061  0.00  0.00     0.079 H 
ATOM     18  H   6PG d   1      -0.688  -1.225  57.066  0.00  0.00     0.079 H 
BRANCH  16  19
ATOM     19  O6  6PG d   1      -1.567  -2.861  56.273  0.00  0.00    -0.280 OA
BRANCH  19  20
ATOM     20  P   6PG d   1      -0.777  -3.782  57.298  0.00  0.00     0.422 P 
ATOM     21  O1P 6PG d   1      -1.394  -5.057  56.968  0.00  0.00    -0.617 OA
ATOM     22  O2P 6PG d   1      -0.948  -3.407  58.700  0.00  0.00    -0.617 OA
ATOM     23  O3P 6PG d   1       0.618  -3.608  56.914  0.00  0.00    -0.617 OA
ENDBRANCH  19  20
ENDBRANCH  16  19
ENDBRANCH  14  16
BRANCH  14  24
ATOM     24  O5  6PG d   1      -0.305  -0.658  54.657  0.00  0.00    -0.391 OA
ATOM     25  H   6PG d   1       0.287  -0.226  55.277  0.00  0.00     0.210 HD
ENDBRANCH  14  24
ENDBRANCH   1  14
BRANCH   1  26
ATOM     26  O4  6PG d   1      -3.738  -1.563  54.701  0.00  0.00    -0.390 OA
ATOM     27  H   6PG d   1      -4.313  -1.966  54.046  0.00  0.00     0.210 HD
ENDBRANCH   1  26
TORSDOF 11
