REMARK  6 active torsions:
REMARK  status: ('A' for Active; 'I' for Inactive)
REMARK    1  A    between atoms: O5'_1  and  C5'_2 
REMARK    2  A    between atoms: C5'_2  and  C4'_3 
REMARK    3  A    between atoms: C3'_5  and  O3'_6 
REMARK    4  A    between atoms: C2'_7  and  O2'_8 
REMARK    5  A    between atoms: C1'_9  and  N9_10 
REMARK    6  A    between atoms: C6_14  and  N6_15 
ROOT
ATOM      1  C4' ADN d   1     -53.907  -4.740 -39.968  0.00  0.00     0.088 C 
ATOM      2  O4' ADN d   1     -55.060  -4.713 -39.109  0.00  0.00    -0.353 OA
ATOM      3  C3' ADN d   1     -53.498  -3.278 -40.171  0.00  0.00     0.091 C 
ATOM      4  C2' ADN d   1     -54.555  -2.508 -39.382  0.00  0.00     0.105 C 
ATOM      5  C1' ADN d   1     -55.727  -3.485 -39.437  0.00  0.00     0.139 C 
ATOM      6  H   ADN d   1     -54.128  -5.239 -40.911  0.00  0.00     0.090 H 
ATOM      7  H   ADN d   1     -52.477  -3.072 -39.849  0.00  0.00     0.091 H 
ATOM      8  H   ADN d   1     -54.264  -2.238 -38.367  0.00  0.00     0.093 H 
ATOM      9  H   ADN d   1     -56.262  -3.513 -40.386  0.00  0.00     0.122 H 
ENDROOT
BRANCH   5  10
ATOM     10  N9  ADN d   1     -56.781  -3.125 -38.461  0.00  0.00    -0.294 N 
ATOM     11  C8  ADN d   1     -56.616  -2.963 -37.149  0.00  0.00     0.071 A 
ATOM     12  N7  ADN d   1     -57.780  -2.664 -36.578  0.00  0.00    -0.236 NA
ATOM     13  H   ADN d   1     -55.667  -3.061 -36.621  0.00  0.00     0.144 H 
ATOM     14  C5  ADN d   1     -58.702  -2.633 -37.537  0.00  0.00     0.149 A 
ATOM     15  C6  ADN d   1     -60.068  -2.388 -37.557  0.00  0.00     0.155 A 
ATOM     16  C4  ADN d   1     -58.067  -2.926 -38.735  0.00  0.00     0.167 A 
ATOM     17  N1  ADN d   1     -60.720  -2.442 -38.726  0.00  0.00    -0.222 NA
ATOM     18  C2  ADN d   1     -60.082  -2.724 -39.848  0.00  0.00     0.091 A 
ATOM     19  N3  ADN d   1     -58.783  -2.963 -39.867  0.00  0.00    -0.222 NA
ATOM     20  H   ADN d   1     -60.642  -2.760 -40.782  0.00  0.00     0.146 H 
BRANCH  15  21
ATOM     21  N6  ADN d   1     -60.725  -2.115 -36.433  0.00  0.00    -0.382 N 
ATOM     22  H   ADN d   1     -60.225  -2.084 -35.545  0.00  0.00     0.157 HD
ATOM     23  H   ADN d   1     -61.729  -1.937 -36.460  0.00  0.00     0.157 HD
ENDBRANCH  15  21
ENDBRANCH   5  10
BRANCH   4  24
ATOM     24  O2' ADN d   1     -54.844  -1.240 -39.976  0.00  0.00    -0.388 OA
ATOM     25  H   ADN d   1     -55.172  -1.373 -40.868  0.00  0.00     0.210 HD
ENDBRANCH   4  24
BRANCH   1  26
ATOM     26  C5' ADN d   1     -52.763  -5.490 -39.284  0.00  0.00     0.043 C 
ATOM     27  H   ADN d   1     -51.879  -5.467 -39.921  0.00  0.00     0.078 H 
ATOM     28  H   ADN d   1     -52.532  -5.014 -38.331  0.00  0.00     0.078 H 
BRANCH  26  29
ATOM     29  O5' ADN d   1     -53.156  -6.846 -39.059  0.00  0.00    -0.398 OA
ATOM     30  H   ADN d   1     -53.934  -6.863 -38.497  0.00  0.00     0.209 HD
ENDBRANCH  26  29
ENDBRANCH   1  26
BRANCH   3  31
ATOM     31  O3' ADN d   1     -53.571  -2.925 -41.554  0.00  0.00    -0.390 OA
ATOM     32  H   ADN d   1     -54.471  -3.044 -41.866  0.00  0.00     0.210 HD
ENDBRANCH   3  31
TORSDOF 6
