REMARK  8 active torsions:
REMARK  status: ('A' for Active; 'I' for Inactive)
REMARK    1  A    between atoms: O3A_8  and  PB_1 
REMARK    2  A    between atoms: PA_5  and  O3A_8 
REMARK    3  A    between atoms: PA_5  and  O5'_9 
REMARK    4  A    between atoms: O5'_9  and  C5'_10 
REMARK    5  A    between atoms: C5'_10  and  C4'_11 
REMARK    6  A    between atoms: C3'_13  and  O3'_14 
REMARK    7  A    between atoms: C2'_15  and  O2'_16 
REMARK    8  A    between atoms: C1'_17  and  N9_18 
ROOT
ATOM      1  C4' ADP d   1      -6.862  16.801 -16.705  0.00  0.00     0.089 C 
ATOM      2  O4' ADP d   1      -6.256  17.418 -15.559  0.00  0.00    -0.353 OA
ATOM      3  C3' ADP d   1      -7.095  17.880 -17.754  0.00  0.00     0.091 C 
ATOM      4  C2' ADP d   1      -6.312  19.077 -17.239  0.00  0.00     0.105 C 
ATOM      5  C1' ADP d   1      -6.466  18.839 -15.743  0.00  0.00     0.139 C 
ATOM      6  H3  ADP d   1      -7.816  16.328 -16.429  0.00  0.00     0.090 H 
ATOM      7  H4  ADP d   1      -6.771  17.574 -18.759  0.00  0.00     0.091 H 
ATOM      8  H6  ADP d   1      -5.257  19.020 -17.544  0.00  0.00     0.093 H 
ATOM      9  H8  ADP d   1      -7.478  19.127 -15.423  0.00  0.00     0.122 H 
ENDROOT
BRANCH   5  10
ATOM     10  N9  ADP d   1      -5.495  19.562 -14.948  0.00  0.00    -0.294 N 
ATOM     11  C8  ADP d   1      -4.144  19.525 -15.088  0.00  0.00     0.071 A 
ATOM     12  N7  ADP d   1      -3.554  20.300 -14.146  0.00  0.00    -0.236 NA
ATOM     13  H9  ADP d   1      -3.612  18.955 -15.848  0.00  0.00     0.144 H 
ATOM     14  C5  ADP d   1      -4.541  20.860 -13.424  0.00  0.00     0.149 A 
ATOM     15  C6  ADP d   1      -4.596  21.820 -12.299  0.00  0.00     0.155 A 
ATOM     16  C4  ADP d   1      -5.820  20.359 -13.940  0.00  0.00     0.167 A 
ATOM     17  N6  ADP d   1      -3.442  22.321 -11.775  0.00  0.00    -0.382 N 
ATOM     18  N1  ADP d   1      -5.825  22.138 -11.837  0.00  0.00    -0.222 NA
ATOM     19  H10 ADP d   1      -3.479  22.989 -10.992  0.00  0.00     0.157 HD
ATOM     20  H11 ADP d   1      -2.532  22.032 -12.162  0.00  0.00     0.157 HD
ATOM     21  C2  ADP d   1      -6.967  21.639 -12.353  0.00  0.00     0.091 A 
ATOM     22  N3  ADP d   1      -6.998  20.741 -13.378  0.00  0.00    -0.222 NA
ATOM     23  H12 ADP d   1      -7.909  21.969 -11.931  0.00  0.00     0.146 H 
ENDBRANCH   5  10
BRANCH   4  24
ATOM     24  O2' ADP d   1      -6.843  20.354 -17.674  0.00  0.00    -0.388 OA
ATOM     25  H7  ADP d   1      -6.830  20.395 -18.623  0.00  0.00     0.210 HD
ENDBRANCH   4  24
BRANCH   1  26
ATOM     26  C5' ADP d   1      -5.902  15.764 -17.240  0.00  0.00     0.058 C 
ATOM     27  H1  ADP d   1      -6.391  15.167 -18.024  0.00  0.00     0.079 H 
ATOM     28  H2  ADP d   1      -5.010  16.255 -17.656  0.00  0.00     0.079 H 
BRANCH  26  29
ATOM     29  O5' ADP d   1      -5.530  14.918 -16.135  0.00  0.00    -0.287 OA
BRANCH  29  30
ATOM     30  PA  ADP d   1      -4.368  13.837 -16.360  0.00  0.00     0.418 P 
ATOM     31  O1A ADP d   1      -4.466  12.981 -15.128  0.00  0.00    -0.624 OA
ATOM     32  O2A ADP d   1      -3.077  14.545 -16.744  0.00  0.00    -0.624 OA
BRANCH  30  33
ATOM     33  O3A ADP d   1      -4.777  13.065 -17.734  0.00  0.00    -0.173 OA
BRANCH  33  34
ATOM     34  PB  ADP d   1      -5.666  11.716 -17.968  0.00  0.00     0.431 P 
ATOM     35  O1B ADP d   1      -5.769  11.650 -19.456  0.00  0.00    -0.616 OA
ATOM     36  O2B ADP d   1      -4.866  10.582 -17.392  0.00  0.00    -0.616 OA
ATOM     37  O3B ADP d   1      -6.955  11.952 -17.284  0.00  0.00    -0.616 OA
ENDBRANCH  33  34
ENDBRANCH  30  33
ENDBRANCH  29  30
ENDBRANCH  26  29
ENDBRANCH   1  26
BRANCH   3  38
ATOM     38  O3' ADP d   1      -8.495  18.179 -17.716  0.00  0.00    -0.390 OA
ATOM     39  H5  ADP d   1      -8.691  18.852 -18.357  0.00  0.00     0.210 HD
ENDBRANCH   3  38
TORSDOF 8
