REMARK  18 active torsions:
REMARK  status: ('A' for Active; 'I' for Inactive)
REMARK    1  A    between atoms: N_1  and  CA_2 
REMARK    2  A    between atoms: CA_2  and  C_3 
REMARK    3  A    between atoms: CA_2  and  CB_5 
REMARK    4  A    between atoms: CB_5  and  OG1_6 
REMARK    5  A    between atoms: CB_5  and  CG2_7 
REMARK    6  A    between atoms: OG1_6  and  C1_10 
REMARK    7  A    between atoms: C2_11  and  N2_12 
REMARK    8  A    between atoms: C3_13  and  O3_14 
REMARK    9  A    between atoms: O3_14  and  C1_23 
REMARK   10  A    between atoms: C4_15  and  O4_16 
REMARK   11  A    between atoms: C5_17  and  C6_18 
REMARK   12  A    between atoms: C6_18  and  O6_19 
REMARK   13  A    between atoms: C7_20  and  C8_22 
REMARK   14  A    between atoms: C2_24  and  O2_29 
REMARK   15  A    between atoms: C3_25  and  O3_30 
REMARK   16  A    between atoms: C4_26  and  O4_31 
REMARK   17  A    between atoms: C5_27  and  C6_28 
REMARK   18  A    between atoms: C6_28  and  O6_33 
ROOT
ATOM      1  H   THR d   1       3.417  -1.877 -40.266  0.00  0.00     0.132 H 
ATOM      2  H   THR d   1       2.076  -0.282 -38.943  0.00  0.00     0.084 H 
ATOM      3  H   THR d   1       3.530  -1.406 -36.488  0.00  0.00     0.091 H 
ATOM      4  H   THR d   1       1.349  -2.274 -35.878  0.00  0.00     0.091 H 
ATOM      5  H   THR d   1       2.771  -3.728 -37.258  0.00  0.00     0.090 H 
ATOM      6  O   A2G d   1       2.142  -2.966 -39.076  0.00  0.00    -0.349 OA
ATOM      7  C1  A2G d   1       3.253  -2.065 -39.205  0.00  0.00     0.154 C 
ATOM      8  C2  A2G d   1       2.950  -0.748 -38.488  0.00  0.00     0.086 C 
ATOM      9  C3  A2G d   1       2.661  -1.004 -37.008  0.00  0.00     0.092 C 
ATOM     10  C4  A2G d   1       1.517  -2.016 -36.924  0.00  0.00     0.089 C 
ATOM     11  C5  A2G d   1       1.879  -3.284 -37.700  0.00  0.00     0.089 C 
ENDROOT
BRANCH   9  12
ATOM     12  O3  A2G d   1       2.302   0.242 -36.393  0.00  0.00    -0.348 OA
BRANCH  12  13
ATOM     13  C1  GAL d   1       2.325   0.153 -34.961  0.00  0.00     0.159 C 
ATOM     14  C2  GAL d   1       2.693   1.539 -34.426  0.00  0.00     0.110 C 
ATOM     15  C3  GAL d   1       2.593   1.584 -32.901  0.00  0.00     0.092 C 
ATOM     16  H   THR d   1       1.986   2.259 -34.840  0.00  0.00     0.094 H 
ATOM     17  C4  GAL d   1       1.208   1.093 -32.480  0.00  0.00     0.090 C 
ATOM     18  H   THR d   1       3.361   0.947 -32.462  0.00  0.00     0.091 H 
ATOM     19  C5  GAL d   1       0.972  -0.306 -33.053  0.00  0.00     0.089 C 
ATOM     20  H   THR d   1       1.147   1.060 -31.392  0.00  0.00     0.091 H 
ATOM     21  O5  GAL d   1       1.031  -0.259 -34.488  0.00  0.00    -0.348 OA
ATOM     22  H   THR d   1       1.745  -0.986 -32.695  0.00  0.00     0.090 H 
ATOM     23  H   THR d   1       3.053  -0.581 -34.617  0.00  0.00     0.133 H 
BRANCH  14  24
ATOM     24  O2  GAL d   1       4.019   1.886 -34.832  0.00  0.00    -0.388 OA
ATOM     25  H   THR d   1       4.077   1.857 -35.790  0.00  0.00     0.210 HD
ENDBRANCH  14  24
BRANCH  15  26
ATOM     26  O3  GAL d   1       2.780   2.927 -32.449  0.00  0.00    -0.390 OA
ATOM     27  H   THR d   1       2.108   3.491 -32.839  0.00  0.00     0.210 HD
ENDBRANCH  15  26
BRANCH  17  28
ATOM     28  O4  GAL d   1       0.214   1.985 -32.992  0.00  0.00    -0.390 OA
ATOM     29  H   THR d   1       0.359   2.864 -32.634  0.00  0.00     0.210 HD
ENDBRANCH  17  28
BRANCH  19  30
ATOM     30  C6  GAL d   1      -0.397  -0.813 -32.594  0.00  0.00     0.043 C 
ATOM     31  H   THR d   1      -1.177  -0.170 -33.003  0.00  0.00     0.078 H 
ATOM     32  H   THR d   1      -0.442  -0.797 -31.505  0.00  0.00     0.078 H 
BRANCH  30  33
ATOM     33  O6  GAL d   1      -0.594  -2.151 -33.057  0.00  0.00    -0.398 OA
ATOM     34  H   THR d   1      -0.553  -2.166 -34.016  0.00  0.00     0.209 HD
ENDBRANCH  30  33
ENDBRANCH  19  30
ENDBRANCH  12  13
ENDBRANCH   9  12
BRANCH   8  35
ATOM     35  N2  A2G d   1       4.124   0.131 -38.604  0.00  0.00    -0.360 N 
ATOM     36  C7  A2G d   1       4.017   1.438 -38.819  0.00  0.00     0.147 C 
ATOM     37  O7  A2G d   1       2.789   2.011 -38.938  0.00  0.00    -0.178 OA
ATOM     38  H   THR d   1       5.054  -0.278 -38.516  0.00  0.00     0.162 HD
BRANCH  36  39
ATOM     39  C8  A2G d   1       5.163   2.218 -38.929  0.00  0.00    -0.015 C 
ATOM     40  H   THR d   1       5.186   2.690 -39.911  0.00  0.00     0.038 H 
ATOM     41  H   THR d   1       5.154   2.986 -38.155  0.00  0.00     0.038 H 
ATOM     42  H   THR d   1       6.043   1.587 -38.807  0.00  0.00     0.038 H 
ENDBRANCH  36  39
ENDBRANCH   8  35
BRANCH  10  43
ATOM     43  O4  A2G d   1       0.325  -1.444 -37.470  0.00  0.00    -0.390 OA
ATOM     44  H   THR d   1      -0.389  -2.083 -37.415  0.00  0.00     0.210 HD
ENDBRANCH  10  43
BRANCH   7  45
ATOM     45  OG1 THR d   1       4.435  -2.643 -38.633  0.00  0.00    -0.352 OA
BRANCH  45  46
ATOM     46  CB  THR d   1       5.036  -3.580 -39.539  0.00  0.00     0.075 C 
ATOM     47  H   THR d   1       4.369  -3.727 -40.388  0.00  0.00     0.086 H 
BRANCH  46  48
ATOM     48  CA  THR d   1       6.378  -3.037 -40.040  0.00  0.00     0.206 C 
ATOM     49  H   THR d   1       6.904  -3.836 -40.562  0.00  0.00     0.105 H 
BRANCH  48  50
ATOM     50  N   THR d   1       7.167  -2.568 -38.893  0.00  0.00    -0.063 N 
ATOM     51  H   THR d   1       8.062  -2.206 -39.223  0.00  0.00     0.275 HD
ATOM     52  H   THR d   1       6.656  -1.829 -38.410  0.00  0.00     0.275 HD
ATOM     53  H   THR d   1       7.329  -3.345 -38.253  0.00  0.00     0.275 HD
ENDBRANCH  48  50
BRANCH  48  54
ATOM     54  C   THR d   1       6.165  -1.872 -41.009  0.00  0.00     0.207 C 
ATOM     55  O   THR d   1       7.148  -1.536 -41.707  0.00  0.00    -0.646 OA
ATOM     56  OXT THR d   1       5.033  -1.345 -41.041  0.00  0.00    -0.646 OA
ENDBRANCH  48  54
ENDBRANCH  46  48
BRANCH  46  57
ATOM     57  CG2 THR d   1       5.259  -4.917 -38.831  0.00  0.00    -0.050 C 
ATOM     58  H   THR d   1       5.919  -4.768 -37.976  0.00  0.00     0.031 H 
ATOM     59  H   THR d   1       4.301  -5.310 -38.489  0.00  0.00     0.031 H 
ATOM     60  H   THR d   1       5.715  -5.623 -39.525  0.00  0.00     0.031 H 
ENDBRANCH  46  57
ENDBRANCH  45  46
ENDBRANCH   7  45
BRANCH  11  61
ATOM     61  C6  A2G d   1       0.709  -4.269 -37.630  0.00  0.00     0.043 C 
ATOM     62  H   THR d   1      -0.178  -3.810 -38.066  0.00  0.00     0.078 H 
ATOM     63  H   THR d   1       0.512  -4.525 -36.589  0.00  0.00     0.078 H 
BRANCH  61  64
ATOM     64  O6  A2G d   1       1.038  -5.455 -38.358  0.00  0.00    -0.398 OA
ATOM     65  H   THR d   1       1.211  -5.229 -39.275  0.00  0.00     0.209 HD
ENDBRANCH  61  64
ENDBRANCH  11  61
TORSDOF 18
