REMARK WARNING: 32 MAX_TORS EXCEEDED!!!
REMARK  36 active torsions:
REMARK  status: ('A' for Active; 'I' for Inactive)
REMARK    1  A    between atoms: O3_21  and  C1_1 
REMARK    2  A    between atoms: C2_2  and  O2_7 
REMARK    3  A    between atoms: C3_3  and  O3_8 
REMARK    4  A    between atoms: C4_4  and  O4_9 
REMARK    5  A    between atoms: C5_5  and  C6_6 
REMARK    6  A    between atoms: C6_6  and  O6_11 
REMARK    7  A    between atoms: O4_34  and  C1_12 
REMARK    8  A    between atoms: C2_13  and  N2_20 
REMARK    9  A    between atoms: C3_14  and  O3_21 
REMARK   10  A    between atoms: C4_15  and  O4_22 
REMARK   11  A    between atoms: C5_16  and  C6_17 
REMARK   12  A    between atoms: C6_17  and  O6_24 
REMARK   13  A    between atoms: C7_18  and  C8_19 
REMARK       I    between atoms: N2_20  and  C7_18 
REMARK   14  A    between atoms: C1_26  and  O4_46 
REMARK   15  A    between atoms: C2_27  and  O2_32 
REMARK   16  A    between atoms: O3_33  and  C3_28 
REMARK   17  A    between atoms: C4_29  and  O4_34 
REMARK   18  A    between atoms: C5_30  and  C6_31 
REMARK   19  A    between atoms: C6_31  and  O6_36 
REMARK   20  A    between atoms: C2_50  and  O3_33 
REMARK   21  A    between atoms: C2_37  and  O2_44 
REMARK   22  A    between atoms: C3_38  and  O3_45 
REMARK   23  A    between atoms: O4_46  and  C4_39 
REMARK   24  A    between atoms: C5_40  and  C6_41 
REMARK   25  A    between atoms: C6_41  and  O6_48 
REMARK   26  A    between atoms: C1_42  and  O1_43 
REMARK   27  A    between atoms: C2_50  and  C1_49 
REMARK   28  A    between atoms: C4_52  and  O4_63 
REMARK   29  A    between atoms: N5_60  and  C5_53 
REMARK   30  A    between atoms: C6_54  and  C7_55 
REMARK   31  A    between atoms: C7_55  and  C8_56 
REMARK   32  A    between atoms: C7_55  and  O7_65 
REMARK   33  A    between atoms: C8_56  and  C9_57 
REMARK   34  A    between atoms: C8_56  and  O8_66 
REMARK   35  A    between atoms: C9_57  and  O9_67 
REMARK   36  A    between atoms: C10_58  and  C11_59 
REMARK       I    between atoms: C10_58  and  N5_60 
ROOT
ATOM      1  C1  GAL d   1      22.967  27.670  15.691  0.00  0.00     0.159 C 
ATOM      2  C2  GAL d   1      23.347  27.309  14.253  0.00  0.00     0.110 C 
ATOM      3  C3  GAL d   1      23.684  28.517  13.378  0.00  0.00     0.099 C 
ATOM      4  C4  GAL d   1      22.582  29.554  13.525  0.00  0.00     0.096 C 
ATOM      5  C5  GAL d   1      22.410  29.877  15.000  0.00  0.00     0.089 C 
ATOM      6  O5  GAL d   1      21.968  28.703  15.702  0.00  0.00    -0.348 OA
ATOM      7  H   GAL d   1      23.816  28.021  16.278  0.00  0.00     0.133 H 
ATOM      8  H   GAL d   1      22.470  26.836  13.812  0.00  0.00     0.094 H 
ATOM      9  H   GAL d   1      24.629  28.991  13.643  0.00  0.00     0.091 H 
ATOM     10  H   GAL d   1      22.841  30.443  12.950  0.00  0.00     0.091 H 
ATOM     11  H   GAL d   1      23.359  30.204  15.425  0.00  0.00     0.090 H 
ENDROOT
BRANCH   4  12
ATOM     12  O4  GAL d   1      21.342  28.989  13.073  0.00  0.00    -0.348 OA
BRANCH  12  13
ATOM     13  C1  NGA d   1      21.112  29.283  11.687  0.00  0.00     0.154 C 
ATOM     14  C2  NGA d   1      20.376  28.084  11.089  0.00  0.00     0.087 C 
ATOM     15  C3  NGA d   1      20.029  28.344   9.624  0.00  0.00     0.093 C 
ATOM     16  H   GAL d   1      19.456  27.931  11.654  0.00  0.00     0.084 H 
ATOM     17  C4  NGA d   1      19.213  29.635   9.540  0.00  0.00     0.089 C 
ATOM     18  H   GAL d   1      20.919  28.475   9.008  0.00  0.00     0.091 H 
ATOM     19  C5  NGA d   1      19.975  30.773  10.223  0.00  0.00     0.089 C 
ATOM     20  H   GAL d   1      19.049  29.887   8.492  0.00  0.00     0.091 H 
ATOM     21  O5  NGA d   1      20.258  30.434  11.591  0.00  0.00    -0.349 OA
ATOM     22  H   GAL d   1      20.915  30.940   9.698  0.00  0.00     0.090 H 
ATOM     23  H   GAL d   1      22.050  29.476  11.167  0.00  0.00     0.132 H 
BRANCH  14  24
ATOM     24  N2  NGA d   1      21.220  26.883  11.176  0.00  0.00    -0.349 N 
ATOM     25  C7  NGA d   1      20.718  25.692  11.487  0.00  0.00     0.214 C 
ATOM     26  O7  NGA d   1      19.528  25.486  11.726  0.00  0.00    -0.274 OA
ATOM     27  H   GAL d   1      22.220  26.966  10.992  0.00  0.00     0.163 HD
BRANCH  25  28
ATOM     28  C8  NGA d   1      21.738  24.553  11.532  0.00  0.00    -0.003 C 
ATOM     29  H   GAL d   1      21.751  24.117  12.531  0.00  0.00     0.040 H 
ATOM     30  H   GAL d   1      21.461  23.790  10.805  0.00  0.00     0.040 H 
ATOM     31  H   GAL d   1      22.727  24.943  11.292  0.00  0.00     0.040 H 
ENDBRANCH  25  28
ENDBRANCH  14  24
BRANCH  15  32
ATOM     32  O3  NGA d   1      19.309  27.206   9.129  0.00  0.00    -0.348 OA
BRANCH  32  33
ATOM     33  C1  GAL d   1      19.357  27.141   7.698  0.00  0.00     0.159 C 
ATOM     34  C2  GAL d   1      19.146  25.675   7.317  0.00  0.00     0.110 C 
ATOM     35  C3  GAL d   1      19.034  25.514   5.801  0.00  0.00     0.092 C 
ATOM     36  H   GAL d   1      18.210  25.331   7.758  0.00  0.00     0.094 H 
ATOM     37  C4  GAL d   1      17.933  26.445   5.292  0.00  0.00     0.090 C 
ATOM     38  H   GAL d   1      19.983  25.763   5.326  0.00  0.00     0.091 H 
ATOM     39  C5  GAL d   1      18.241  27.876   5.735  0.00  0.00     0.089 C 
ATOM     40  H   GAL d   1      17.879  26.404   4.204  0.00  0.00     0.091 H 
ATOM     41  O5  GAL d   1      18.290  27.943   7.168  0.00  0.00    -0.348 OA
ATOM     42  H   GAL d   1      19.203  28.163   5.311  0.00  0.00     0.090 H 
ATOM     43  H   GAL d   1      20.305  27.509   7.304  0.00  0.00     0.133 H 
BRANCH  34  44
ATOM     44  O2  GAL d   1      20.223  24.885   7.828  0.00  0.00    -0.388 OA
ATOM     45  H   GAL d   1      20.065  23.960   7.623  0.00  0.00     0.210 HD
ENDBRANCH  34  44
BRANCH  35  46
ATOM     46  O3  GAL d   1      18.691  24.160   5.494  0.00  0.00    -0.390 OA
ATOM     47  H   GAL d   1      17.860  23.937   5.920  0.00  0.00     0.210 HD
ENDBRANCH  35  46
BRANCH  37  48
ATOM     48  O4  GAL d   1      16.688  26.032   5.862  0.00  0.00    -0.390 OA
ATOM     49  H   GAL d   1      16.493  25.134   5.585  0.00  0.00     0.210 HD
ENDBRANCH  37  48
BRANCH  39  50
ATOM     50  C6  GAL d   1      17.158  28.837   5.241  0.00  0.00     0.043 C 
ATOM     51  H   GAL d   1      16.187  28.529   5.629  0.00  0.00     0.078 H 
ATOM     52  H   GAL d   1      17.123  28.824   4.152  0.00  0.00     0.078 H 
BRANCH  50  53
ATOM     53  O6  GAL d   1      17.466  30.156   5.700  0.00  0.00    -0.398 OA
ATOM     54  H   GAL d   1      17.493  30.162   6.660  0.00  0.00     0.209 HD
ENDBRANCH  50  53
ENDBRANCH  39  50
ENDBRANCH  32  33
ENDBRANCH  15  32
BRANCH  17  55
ATOM     55  O4  NGA d   1      17.951  29.450  10.188  0.00  0.00    -0.390 OA
ATOM     56  H   GAL d   1      18.096  29.230  11.111  0.00  0.00     0.210 HD
ENDBRANCH  17  55
BRANCH  19  57
ATOM     57  C6  NGA d   1      19.112  32.036  10.189  0.00  0.00     0.043 C 
ATOM     58  H   GAL d   1      18.173  31.847  10.710  0.00  0.00     0.078 H 
ATOM     59  H   GAL d   1      18.908  32.307   9.153  0.00  0.00     0.078 H 
BRANCH  57  60
ATOM     60  O6  NGA d   1      19.804  33.109  10.833  0.00  0.00    -0.398 OA
ATOM     61  H   GAL d   1      19.259  33.899  10.810  0.00  0.00     0.209 HD
ENDBRANCH  57  60
ENDBRANCH  19  57
ENDBRANCH  12  13
ENDBRANCH   4  12
BRANCH   3  62
ATOM     62  O3  GAL d   1      23.695  27.996  12.040  0.00  0.00    -0.336 OA
BRANCH  62  63
ATOM     63  C2  SIA d   1      24.635  28.607  11.154  0.00  0.00     0.259 C 
ATOM     64  C3  SIA d   1      26.060  28.204  11.543  0.00  0.00     0.024 C 
ATOM     65  C4  SIA d   1      27.052  28.873  10.588  0.00  0.00     0.063 C 
ATOM     66  H   GAL d   1      26.164  27.121  11.478  0.00  0.00     0.045 H 
ATOM     67  H   GAL d   1      26.264  28.524  12.565  0.00  0.00     0.045 H 
ATOM     68  C5  SIA d   1      26.823  30.385  10.565  0.00  0.00     0.064 C 
ATOM     69  H   GAL d   1      26.896  28.477   9.585  0.00  0.00     0.086 H 
ATOM     70  C6  SIA d   1      25.358  30.647  10.213  0.00  0.00     0.091 C 
ATOM     71  H   GAL d   1      27.051  30.822  11.537  0.00  0.00     0.080 H 
ATOM     72  O6  SIA d   1      24.512  30.033  11.199  0.00  0.00    -0.336 OA
ATOM     73  H   GAL d   1      25.171  30.218   9.229  0.00  0.00     0.090 H 
BRANCH  63  74
ATOM     74  C1  SIA d   1      24.303  28.099   9.749  0.00  0.00     0.239 C 
ATOM     75  O1A SIA d   1      24.790  26.996   9.414  0.00  0.00    -0.644 OA
ATOM     76  O1B SIA d   1      23.546  28.805   9.051  0.00  0.00    -0.644 OA
ENDBRANCH  63  74
BRANCH  65  77
ATOM     77  O4  SIA d   1      28.392  28.590  10.998  0.00  0.00    -0.393 OA
ATOM     78  H   GAL d   1      28.528  27.640  11.010  0.00  0.00     0.210 HD
ENDBRANCH  65  77
BRANCH  68  79
ATOM     79  N5  SIA d   1      27.702  30.991   9.549  0.00  0.00    -0.352 N 
ATOM     80  C10 SIA d   1      28.745  31.743   9.864  0.00  0.00     0.214 C 
ATOM     81  O10 SIA d   1      29.081  32.013  11.025  0.00  0.00    -0.274 OA
ATOM     82  H   GAL d   1      27.498  30.824   8.563  0.00  0.00     0.163 HD
BRANCH  80  83
ATOM     83  C11 SIA d   1      29.559  32.262   8.679  0.00  0.00    -0.003 C 
ATOM     84  H   GAL d   1      29.572  33.352   8.698  0.00  0.00     0.040 H 
ATOM     85  H   GAL d   1      30.579  31.884   8.748  0.00  0.00     0.040 H 
ATOM     86  H   GAL d   1      29.105  31.919   7.750  0.00  0.00     0.040 H 
ENDBRANCH  80  83
ENDBRANCH  68  79
BRANCH  70  87
ATOM     87  C7  SIA d   1      25.047  32.144  10.145  0.00  0.00     0.089 C 
ATOM     88  H   GAL d   1      25.627  32.598   9.341  0.00  0.00     0.091 H 
BRANCH  87  89
ATOM     89  C8  SIA d   1      23.555  32.348   9.872  0.00  0.00     0.083 C 
ATOM     90  H   GAL d   1      23.001  31.989  10.740  0.00  0.00     0.090 H 
BRANCH  89  91
ATOM     91  C9  SIA d   1      23.217  33.828   9.680  0.00  0.00     0.043 C 
ATOM     92  H   GAL d   1      23.783  34.224   8.837  0.00  0.00     0.078 H 
ATOM     93  H   GAL d   1      23.478  34.381  10.582  0.00  0.00     0.078 H 
BRANCH  91  94
ATOM     94  O9  SIA d   1      21.817  33.966   9.423  0.00  0.00    -0.398 OA
ATOM     95  H   GAL d   1      21.320  33.617  10.167  0.00  0.00     0.209 HD
ENDBRANCH  91  94
ENDBRANCH  89  91
BRANCH  89  96
ATOM     96  O8  SIA d   1      23.167  31.603   8.716  0.00  0.00    -0.391 OA
ATOM     97  H   GAL d   1      23.383  30.677   8.846  0.00  0.00     0.210 HD
ENDBRANCH  89  96
ENDBRANCH  87  89
BRANCH  87  98
ATOM     98  O7  SIA d   1      25.390  32.757  11.390  0.00  0.00    -0.390 OA
ATOM     99  H   GAL d   1      24.877  32.356  12.095  0.00  0.00     0.210 HD
ENDBRANCH  87  98
ENDBRANCH  70  87
ENDBRANCH  62  63
ENDBRANCH   3  62
BRANCH   5 100
ATOM    100  C6  GAL d   1      21.370  30.991  15.139  0.00  0.00     0.043 C 
ATOM    101  H   GAL d   1      20.429  30.663  14.697  0.00  0.00     0.078 H 
ATOM    102  H   GAL d   1      21.727  31.884  14.626  0.00  0.00     0.078 H 
BRANCH 100 103
ATOM    103  O6  GAL d   1      21.164  31.291  16.522  0.00  0.00    -0.398 OA
ATOM    104  H   GAL d   1      20.851  30.505  16.976  0.00  0.00     0.209 HD
ENDBRANCH 100 103
ENDBRANCH   5 100
BRANCH   2 105
ATOM    105  O2  GAL d   1      24.474  26.428  14.274  0.00  0.00    -0.388 OA
ATOM    106  H   GAL d   1      24.273  25.665  14.821  0.00  0.00     0.210 HD
ENDBRANCH   2 105
BRANCH   1 107
ATOM    107  O4  BGC d   1      22.356  26.459  16.162  0.00  0.00    -0.348 OA
BRANCH 107 108
ATOM    108  C4  BGC d   1      22.272  26.335  17.589  0.00  0.00     0.096 C 
ATOM    109  C3  BGC d   1      20.875  25.796  17.909  0.00  0.00     0.092 C 
ATOM    110  C2  BGC d   1      20.768  25.399  19.383  0.00  0.00     0.110 C 
ATOM    111  H   GAL d   1      20.700  24.909  17.300  0.00  0.00     0.091 H 
ATOM    112  C1  BGC d   1      21.882  24.410  19.729  0.00  0.00     0.156 C 
ATOM    113  H   GAL d   1      20.862  26.284  20.013  0.00  0.00     0.094 H 
ATOM    114  O5  BGC d   1      23.155  25.011  19.443  0.00  0.00    -0.349 OA
ATOM    115  H   GAL d   1      21.755  23.504  19.137  0.00  0.00     0.133 H 
ATOM    116  C5  BGC d   1      23.285  25.292  18.040  0.00  0.00     0.089 C 
ATOM    117  H   GAL d   1      23.091  24.373  17.487  0.00  0.00     0.090 H 
ATOM    118  H   GAL d   1      22.461  27.290  18.080  0.00  0.00     0.091 H 
BRANCH 109 119
ATOM    119  O3  BGC d   1      19.893  26.789  17.604  0.00  0.00    -0.390 OA
ATOM    120  H   GAL d   1      20.060  27.574  18.130  0.00  0.00     0.210 HD
ENDBRANCH 109 119
BRANCH 110 121
ATOM    121  O2  BGC d   1      19.500  24.772  19.597  0.00  0.00    -0.388 OA
ATOM    122  H   GAL d   1      19.429  23.996  19.036  0.00  0.00     0.210 HD
ENDBRANCH 110 121
BRANCH 112 123
ATOM    123  O1  BGC d   1      21.824  24.084  21.121  0.00  0.00    -0.369 OA
ATOM    124  H   GAL d   1      22.529  23.468  21.334  0.00  0.00     0.212 HD
ENDBRANCH 112 123
BRANCH 116 125
ATOM    125  C6  BGC d   1      24.703  25.785  17.746  0.00  0.00     0.043 C 
ATOM    126  H   GAL d   1      24.813  25.967  16.677  0.00  0.00     0.078 H 
ATOM    127  H   GAL d   1      25.425  25.029  18.057  0.00  0.00     0.078 H 
BRANCH 125 128
ATOM    128  O6  BGC d   1      24.938  26.998  18.466  0.00  0.00    -0.398 OA
ATOM    129  H   GAL d   1      24.842  26.834  19.407  0.00  0.00     0.209 HD
ENDBRANCH 125 128
ENDBRANCH 116 125
ENDBRANCH 107 108
ENDBRANCH   1 107
TORSDOF 36
