REMARK  15 active torsions:
REMARK  status: ('A' for Active; 'I' for Inactive)
REMARK    1  A    between atoms: C1_1  and  N1_8 
REMARK    2  A    between atoms: C4_4  and  OH_7 
REMARK    3  A    between atoms: OH_7  and  C1_12 
REMARK    4  A    between atoms: C2_13  and  N2_14 
REMARK    5  A    between atoms: C3_15  and  O3_16 
REMARK    6  A    between atoms: O3_16  and  C1_25 
REMARK    7  A    between atoms: C4_17  and  O4_18 
REMARK    8  A    between atoms: C5_19  and  C6_20 
REMARK    9  A    between atoms: C6_20  and  O6_21 
REMARK   10  A    between atoms: C7_22  and  C8_24 
REMARK   11  A    between atoms: C2_26  and  O2_31 
REMARK   12  A    between atoms: C3_27  and  O3_32 
REMARK   13  A    between atoms: C4_28  and  O4_33 
REMARK   14  A    between atoms: C5_29  and  C6_30 
REMARK   15  A    between atoms: C6_30  and  O6_35 
ROOT
ATOM      1  H   NPO d   1     -24.924  18.508  25.386  0.00  0.00     0.133 H 
ATOM      2  H   NPO d   1     -25.804  17.322  23.396  0.00  0.00     0.084 H 
ATOM      3  H   NPO d   1     -22.921  16.259  23.152  0.00  0.00     0.091 H 
ATOM      4  H   NPO d   1     -22.866  17.512  21.082  0.00  0.00     0.091 H 
ATOM      5  H   NPO d   1     -22.126  18.628  23.121  0.00  0.00     0.090 H 
ATOM      6  O   A2G d   1     -24.003  19.265  23.729  0.00  0.00    -0.349 OA
ATOM      7  C1  A2G d   1     -24.248  18.154  24.608  0.00  0.00     0.159 C 
ATOM      8  C2  A2G d   1     -24.852  17.003  23.821  0.00  0.00     0.086 C 
ATOM      9  C3  A2G d   1     -23.874  16.587  22.737  0.00  0.00     0.092 C 
ATOM     10  C4  A2G d   1     -23.605  17.783  21.836  0.00  0.00     0.089 C 
ATOM     11  C5  A2G d   1     -23.076  18.933  22.682  0.00  0.00     0.089 C 
ENDROOT
BRANCH   9  12
ATOM     12  O3  A2G d   1     -24.468  15.502  22.011  0.00  0.00    -0.348 OA
BRANCH  12  13
ATOM     13  C1  GAL d   1     -23.502  14.789  21.227  0.00  0.00     0.159 C 
ATOM     14  C2  GAL d   1     -24.020  13.372  21.033  0.00  0.00     0.110 C 
ATOM     15  C3  GAL d   1     -23.123  12.606  20.076  0.00  0.00     0.092 C 
ATOM     16  H   NPO d   1     -25.024  13.423  20.611  0.00  0.00     0.094 H 
ATOM     17  C4  GAL d   1     -23.021  13.386  18.777  0.00  0.00     0.090 C 
ATOM     18  H   NPO d   1     -22.130  12.476  20.505  0.00  0.00     0.091 H 
ATOM     19  C5  GAL d   1     -22.483  14.773  19.088  0.00  0.00     0.089 C 
ATOM     20  H   NPO d   1     -22.356  12.875  18.081  0.00  0.00     0.091 H 
ATOM     21  O5  GAL d   1     -23.397  15.454  19.959  0.00  0.00    -0.348 OA
ATOM     22  H   NPO d   1     -21.507  14.671  19.562  0.00  0.00     0.090 H 
ATOM     23  H   NPO d   1     -22.525  14.759  21.709  0.00  0.00     0.133 H 
BRANCH  14  24
ATOM     24  O2  GAL d   1     -24.067  12.693  22.296  0.00  0.00    -0.388 OA
ATOM     25  H   NPO d   1     -24.634  13.179  22.899  0.00  0.00     0.210 HD
ENDBRANCH  14  24
BRANCH  15  26
ATOM     26  O3  GAL d   1     -23.708  11.320  19.822  0.00  0.00    -0.390 OA
ATOM     27  H   NPO d   1     -23.158  10.836  19.202  0.00  0.00     0.210 HD
ENDBRANCH  15  26
BRANCH  17  28
ATOM     28  O4  GAL d   1     -24.326  13.500  18.192  0.00  0.00    -0.390 OA
ATOM     29  H   NPO d   1     -24.665  12.624  17.996  0.00  0.00     0.210 HD
ENDBRANCH  17  28
BRANCH  19  30
ATOM     30  C6  GAL d   1     -22.351  15.587  17.799  0.00  0.00     0.043 C 
ATOM     31  H   NPO d   1     -23.323  15.669  17.313  0.00  0.00     0.078 H 
ATOM     32  H   NPO d   1     -21.659  15.091  17.119  0.00  0.00     0.078 H 
BRANCH  30  33
ATOM     33  O6  GAL d   1     -21.861  16.890  18.125  0.00  0.00    -0.398 OA
ATOM     34  H   NPO d   1     -22.477  17.322  18.722  0.00  0.00     0.209 HD
ENDBRANCH  30  33
ENDBRANCH  19  30
ENDBRANCH  12  13
ENDBRANCH   9  12
BRANCH   8  35
ATOM     35  N2  A2G d   1     -25.050  15.845  24.705  0.00  0.00    -0.360 N 
ATOM     36  C7  A2G d   1     -26.106  15.732  25.520  0.00  0.00     0.147 C 
ATOM     37  O7  A2G d   1     -27.117  16.634  25.647  0.00  0.00    -0.178 OA
ATOM     38  H   NPO d   1     -24.355  15.098  24.697  0.00  0.00     0.162 HD
BRANCH  36  39
ATOM     39  C8  A2G d   1     -26.103  14.550  26.491  0.00  0.00    -0.015 C 
ATOM     40  H   NPO d   1     -26.038  14.922  27.514  0.00  0.00     0.038 H 
ATOM     41  H   NPO d   1     -27.023  13.979  26.369  0.00  0.00     0.038 H 
ATOM     42  H   NPO d   1     -25.246  13.911  26.280  0.00  0.00     0.038 H 
ENDBRANCH  36  39
ENDBRANCH   8  35
BRANCH  10  43
ATOM     43  O4  A2G d   1     -24.813  18.180  21.169  0.00  0.00    -0.390 OA
ATOM     44  H   NPO d   1     -24.632  18.935  20.604  0.00  0.00     0.210 HD
ENDBRANCH  10  43
BRANCH   7  45
ATOM     45  OH  NPO d   1     -23.040  17.670  25.216  0.00  0.00    -0.318 OA
BRANCH  45  46
ATOM     46  C4  NPO d   1     -22.736  18.279  26.394  0.00  0.00     0.072 A 
ATOM     47  C3  NPO d   1     -23.437  19.393  26.844  0.00  0.00    -0.048 A 
ATOM     48  C2  NPO d   1     -23.092  19.987  28.053  0.00  0.00    -0.048 A 
ATOM     49  H   NPO d   1     -24.255  19.800  26.250  0.00  0.00     0.087 H 
ATOM     50  C1  NPO d   1     -22.054  19.468  28.819  0.00  0.00     0.103 A 
ATOM     51  H   NPO d   1     -23.638  20.864  28.402  0.00  0.00     0.087 H 
ATOM     52  C6  NPO d   1     -21.341  18.365  28.361  0.00  0.00    -0.048 A 
ATOM     53  C5  NPO d   1     -21.680  17.777  27.148  0.00  0.00    -0.048 A 
ATOM     54  H   NPO d   1     -20.518  17.963  28.952  0.00  0.00     0.087 H 
ATOM     55  H   NPO d   1     -21.115  16.918  26.785  0.00  0.00     0.087 H 
BRANCH  50  56
ATOM     56  N1  NPO d   1     -21.803  19.956  30.031  0.00  0.00    -0.116 N 
ATOM     57  O2  NPO d   1     -22.552  21.069  30.498  0.00  0.00    -0.532 OA
ATOM     58  O3  NPO d   1     -20.808  19.327  30.828  0.00  0.00    -0.532 OA
ENDBRANCH  50  56
ENDBRANCH  45  46
ENDBRANCH   7  45
BRANCH  11  59
ATOM     59  C6  A2G d   1     -22.903  20.168  21.795  0.00  0.00     0.043 C 
ATOM     60  H   NPO d   1     -23.857  20.421  21.333  0.00  0.00     0.078 H 
ATOM     61  H   NPO d   1     -22.168  19.957  21.018  0.00  0.00     0.078 H 
BRANCH  59  62
ATOM     62  O6  A2G d   1     -22.453  21.267  22.592  0.00  0.00    -0.398 OA
ATOM     63  H   NPO d   1     -21.612  21.043  22.998  0.00  0.00     0.209 HD
ENDBRANCH  59  62
ENDBRANCH  11  59
TORSDOF 15
