REMARK  5 active torsions:
REMARK  status: ('A' for Active; 'I' for Inactive)
REMARK    1  A    between atoms: C3_3  and  N13_13 
REMARK    2  A    between atoms: C6_6  and  C7_7 
REMARK    3  A    between atoms: C7_7  and  C9_9 
REMARK    4  A    between atoms: C9_9  and  C10_10 
REMARK    5  A    between atoms: C10_10  and  C12_12 
ROOT
ATOM      1  C1  S21 d   1      23.334 -27.855  51.343  0.00  0.00    -0.067 A 
ATOM      2  C2  S21 d   1      23.744 -28.758  52.334  0.00  0.00    -0.050 A 
ATOM      3  C3  S21 d   1      22.854 -29.708  52.844  0.00  0.00     0.102 A 
ATOM      4  C4  S21 d   1      21.554 -29.756  52.368  0.00  0.00    -0.050 A 
ATOM      5  C5  S21 d   1      21.151 -28.854  51.386  0.00  0.00    -0.067 A 
ATOM      6  C6  S21 d   1      22.021 -27.895  50.865  0.00  0.00     0.010 A 
ATOM      7  H   S21 d   1      24.038 -27.123  50.946  0.00  0.00     0.085 H 
ATOM      8  H   S21 d   1      24.766 -28.719  52.710  0.00  0.00     0.087 H 
ATOM      9  H   S21 d   1      20.852 -30.493  52.758  0.00  0.00     0.087 H 
ATOM     10  H   S21 d   1      20.127 -28.898  51.014  0.00  0.00     0.085 H 
ENDROOT
BRANCH   6  11
ATOM     11  C7  S21 d   1      21.523 -26.955  49.791  0.00  0.00     0.166 C 
ATOM     12  O8  S21 d   1      20.623 -27.305  49.028  0.00  0.00    -0.292 OA
BRANCH  11  13
ATOM     13  C9  S21 d   1      22.144 -25.592  49.600  0.00  0.00     0.059 C 
ATOM     14  H   S21 d   1      21.916 -25.279  48.581  0.00  0.00     0.056 H 
ATOM     15  H   S21 d   1      23.207 -25.694  49.817  0.00  0.00     0.056 H 
BRANCH  13  16
ATOM     16  C10 S21 d   1      21.610 -24.524  50.517  0.00  0.00     0.239 C 
ATOM     17  O11 S21 d   1      22.158 -24.284  51.572  0.00  0.00    -0.288 OA
BRANCH  16  18
ATOM     18  C12 S21 d   1      20.417 -23.727  50.099  0.00  0.00     0.451 C 
ATOM     19  F1C S21 d   1      20.541 -23.517  48.791  0.00  0.00    -0.163 F 
ATOM     20  F2C S21 d   1      19.316 -24.417  50.331  0.00  0.00    -0.163 F 
ATOM     21  F3C S21 d   1      20.392 -22.588  50.784  0.00  0.00    -0.163 F 
ENDBRANCH  16  18
ENDBRANCH  13  16
ENDBRANCH  11  13
ENDBRANCH   6  11
BRANCH   3  22
ATOM     22  N13 S21 d   1      23.244 -30.625  53.826  0.00  0.00    -0.116 N 
ATOM     23  O1N S21 d   1      23.338 -31.834  53.540  0.00  0.00    -0.532 OA
ATOM     24  O2N S21 d   1      23.486 -30.216  54.971  0.00  0.00    -0.532 OA
ENDBRANCH   3  22
TORSDOF 5
