REMARK  3 active torsions:
REMARK  status: ('A' for Active; 'I' for Inactive)
REMARK    1  A    between atoms: C1_1  and  O19_19 
REMARK    2  A    between atoms: C6_6  and  O7_7 
REMARK    3  A    between atoms: O7_7  and  C8_8 
ROOT
ATOM      1  C8  K91 d   1     -15.464  36.335  34.008  0.00  0.00     0.105 A 
ATOM      2  C9  K91 d   1     -15.376  37.181  32.892  0.00  0.00    -0.046 A 
ATOM      3  C10 K91 d   1     -15.354  38.569  33.043  0.00  0.00    -0.058 A 
ATOM      4  C11 K91 d   1     -15.399  39.132  34.306  0.00  0.00     0.046 A 
ATOM      5  C12 K91 d   1     -15.463  38.276  35.394  0.00  0.00     0.017 A 
ATOM      6  C13 K91 d   1     -15.488  36.892  35.243  0.00  0.00     0.102 A 
ATOM      7  N14 K91 d   1     -15.549  36.049  36.284  0.00  0.00    -0.257 NA
ATOM      8  C15 K91 d   1     -15.593  36.528  37.530  0.00  0.00     0.003 A 
ATOM      9  C16 K91 d   1     -15.562  37.899  37.730  0.00  0.00    -0.065 A 
ATOM     10  C17 K91 d   1     -15.507  38.794  36.662  0.00  0.00    -0.068 A 
ATOM     11 CL18 K91 d   1     -15.357  40.931  34.511  0.00  0.00    -0.083 Cl
ATOM     12  H   K91 d   1     -15.324  36.748  31.893  0.00  0.00     0.087 H 
ATOM     13  H   K91 d   1     -15.301  39.211  32.163  0.00  0.00     0.086 H 
ATOM     14  H   K91 d   1     -15.653  35.848  38.380  0.00  0.00     0.114 H 
ATOM     15  H   K91 d   1     -15.581  38.288  38.748  0.00  0.00     0.085 H 
ATOM     16  H   K91 d   1     -15.499  39.871  36.830  0.00  0.00     0.085 H 
ENDROOT
BRANCH   1  17
ATOM     17  O7  K91 d   1     -15.496  34.966  33.930  0.00  0.00    -0.305 OA
BRANCH  17  18
ATOM     18  C6  K91 d   1     -14.337  34.263  34.221  0.00  0.00     0.110 A 
ATOM     19  C1  K91 d   1     -14.241  33.603  35.429  0.00  0.00     0.099 A 
ATOM     20  C2  K91 d   1     -13.073  32.929  35.710  0.00  0.00    -0.047 A 
ATOM     21  C3  K91 d   1     -11.997  32.895  34.837  0.00  0.00    -0.059 A 
ATOM     22  H   K91 d   1     -12.992  32.400  36.659  0.00  0.00     0.087 H 
ATOM     23  C4  K91 d   1     -12.100  33.537  33.635  0.00  0.00     0.036 A 
ATOM     24  H   K91 d   1     -11.083  32.365  35.105  0.00  0.00     0.086 H 
ATOM     25  C5  K91 d   1     -13.264  34.218  33.330  0.00  0.00    -0.026 A 
ATOM     26 CL20 K91 d   1     -10.684  33.451  32.522  0.00  0.00    -0.084 Cl
ATOM     27  H   K91 d   1     -13.345  34.731  32.372  0.00  0.00     0.090 H 
BRANCH  19  28
ATOM     28  O19 K91 d   1     -15.253  33.601  36.361  0.00  0.00    -0.358 OA
ATOM     29  H   K91 d   1     -15.439  34.503  36.632  0.00  0.00     0.217 HD
ENDBRANCH  19  28
ENDBRANCH  17  18
ENDBRANCH   1  17
TORSDOF 3
