REMARK  3 active torsions:
REMARK  status: ('A' for Active; 'I' for Inactive)
REMARK    1  A    between atoms: C6_6  and  C7_7 
REMARK    2  A    between atoms: C7_7  and  O8_8 
REMARK    3  A    between atoms: O8_8  and  C9_9 
ROOT
ATOM      1  C9  KM0 d   1      -4.081  31.551  15.180  0.00  0.00     0.098 A 
ATOM      2  C10 KM0 d   1      -3.237  31.713  14.090  0.00  0.00    -0.047 A 
ATOM      3  C11 KM0 d   1      -2.213  32.659  14.125  0.00  0.00    -0.058 A 
ATOM      4  C12 KM0 d   1      -2.008  33.441  15.258  0.00  0.00     0.046 A 
ATOM      5  C13 KM0 d   1      -2.859  33.272  16.343  0.00  0.00     0.017 A 
ATOM      6  C14 KM0 d   1      -3.888  32.333  16.301  0.00  0.00     0.101 A 
ATOM      7  N15 KM0 d   1      -4.718  32.153  17.348  0.00  0.00    -0.257 NA
ATOM      8  C16 KM0 d   1      -4.588  32.869  18.459  0.00  0.00     0.003 A 
ATOM      9  C17 KM0 d   1      -3.576  33.811  18.540  0.00  0.00    -0.065 A 
ATOM     10  C18 KM0 d   1      -2.697  34.029  17.488  0.00  0.00    -0.068 A 
ATOM     11 CL19 KM0 d   1      -0.677  34.654  15.316  0.00  0.00    -0.083 Cl
ATOM     12  H   KM0 d   1      -3.375  31.097  13.201  0.00  0.00     0.087 H 
ATOM     13  H   KM0 d   1      -1.567  32.787  13.257  0.00  0.00     0.086 H 
ATOM     14  H   KM0 d   1      -5.269  32.717  19.296  0.00  0.00     0.114 H 
ATOM     15  H   KM0 d   1      -3.467  34.396  19.453  0.00  0.00     0.085 H 
ATOM     16  H   KM0 d   1      -1.904  34.773  17.562  0.00  0.00     0.085 H 
ENDROOT
BRANCH   1  17
ATOM     17  O8  KM0 d   1      -5.097  30.630  15.167  0.00  0.00    -0.344 OA
BRANCH  17  18
ATOM     18  C7  KM0 d   1      -5.380  29.837  16.341  0.00  0.00     0.050 C 
ATOM     19  H   KM0 d   1      -5.096  30.426  17.213  0.00  0.00     0.082 H 
ATOM     20  H   KM0 d   1      -6.440  29.583  16.320  0.00  0.00     0.082 H 
BRANCH  18  21
ATOM     21  C6  KM0 d   1      -4.599  28.540  16.390  0.00  0.00    -0.034 A 
ATOM     22  C1  KM0 d   1      -4.575  27.818  17.580  0.00  0.00    -0.075 A 
ATOM     23  C2  KM0 d   1      -3.864  26.614  17.665  0.00  0.00    -0.082 A 
ATOM     24  H   KM0 d   1      -5.113  28.192  18.451  0.00  0.00     0.084 H 
ATOM     25  C3  KM0 d   1      -3.172  26.117  16.561  0.00  0.00    -0.083 A 
ATOM     26  H   KM0 d   1      -3.852  26.060  18.604  0.00  0.00     0.083 H 
ATOM     27  C4  KM0 d   1      -3.196  26.844  15.368  0.00  0.00    -0.082 A 
ATOM     28  H   KM0 d   1      -2.622  25.178  16.628  0.00  0.00     0.083 H 
ATOM     29  C5  KM0 d   1      -3.906  28.047  15.286  0.00  0.00    -0.075 A 
ATOM     30  H   KM0 d   1      -2.658  26.472  14.496  0.00  0.00     0.083 H 
ATOM     31  H   KM0 d   1      -3.917  28.604  14.349  0.00  0.00     0.084 H 
ENDBRANCH  18  21
ENDBRANCH  17  18
ENDBRANCH   1  17
TORSDOF 3
