REMARK  3 active torsions:
REMARK  status: ('A' for Active; 'I' for Inactive)
REMARK    1  A    between atoms: C6_6  and  C7_7 
REMARK    2  A    between atoms: C7_7  and  O8_8 
REMARK    3  A    between atoms: O8_8  and  C9_9 
ROOT
ATOM      1  C9  KM1 d   1      21.000 -21.967   8.493  0.00  0.00     0.098 A 
ATOM      2  C10 KM1 d   1      22.188 -21.296   8.783  0.00  0.00    -0.047 A 
ATOM      3  C11 KM1 d   1      22.188 -19.934   9.089  0.00  0.00    -0.058 A 
ATOM      4  C12 KM1 d   1      20.983 -19.245   9.111  0.00  0.00     0.046 A 
ATOM      5  C13 KM1 d   1      19.799 -19.924   8.835  0.00  0.00     0.017 A 
ATOM      6  C14 KM1 d   1      19.804 -21.283   8.528  0.00  0.00     0.101 A 
ATOM      7  N15 KM1 d   1      18.668 -21.955   8.262  0.00  0.00    -0.257 NA
ATOM      8  C16 KM1 d   1      17.506 -21.302   8.288  0.00  0.00     0.003 A 
ATOM      9  C17 KM1 d   1      17.447 -19.944   8.588  0.00  0.00    -0.065 A 
ATOM     10  C18 KM1 d   1      18.604 -19.238   8.861  0.00  0.00    -0.068 A 
ATOM     11 CL19 KM1 d   1      20.948 -17.489   9.495  0.00  0.00    -0.083 Cl
ATOM     12  H   KM1 d   1      23.131 -21.843   8.771  0.00  0.00     0.087 H 
ATOM     13  H   KM1 d   1      23.123 -19.418   9.308  0.00  0.00     0.086 H 
ATOM     14  H   KM1 d   1      16.584 -21.842   8.070  0.00  0.00     0.114 H 
ATOM     15  H   KM1 d   1      16.484 -19.434   8.608  0.00  0.00     0.085 H 
ATOM     16  H   KM1 d   1      18.572 -18.173   9.089  0.00  0.00     0.085 H 
ENDROOT
BRANCH   1  17
ATOM     17  O8  KM1 d   1      21.007 -23.296   8.201  0.00  0.00    -0.344 OA
BRANCH  17  18
ATOM     18  C7  KM1 d   1      21.715 -24.136   9.129  0.00  0.00     0.050 C 
ATOM     19  H   KM1 d   1      22.738 -23.759   9.131  0.00  0.00     0.082 H 
ATOM     20  H   KM1 d   1      21.141 -24.086  10.054  0.00  0.00     0.082 H 
BRANCH  18  21
ATOM     21  C6  KM1 d   1      21.833 -25.559   8.830  0.00  0.00    -0.033 A 
ATOM     22  C1  KM1 d   1      21.249 -26.043   7.669  0.00  0.00    -0.075 A 
ATOM     23  C2  KM1 d   1      21.367 -27.391   7.416  0.00  0.00    -0.081 A 
ATOM     24  H   KM1 d   1      20.718 -25.382   6.984  0.00  0.00     0.084 H 
ATOM     25  C3  KM1 d   1      22.057 -28.211   8.316  0.00  0.00    -0.062 A 
ATOM     26  H   KM1 d   1      20.924 -27.819   6.517  0.00  0.00     0.083 H 
ATOM     27  C4  KM1 d   1      22.635 -27.726   9.475  0.00  0.00     0.034 A 
ATOM     28  H   KM1 d   1      22.142 -29.275   8.095  0.00  0.00     0.086 H 
ATOM     29  C5  KM1 d   1      22.515 -26.375   9.724  0.00  0.00    -0.054 A 
ATOM     30 CL20 KM1 d   1      23.510 -28.809  10.629  0.00  0.00    -0.084 Cl
ATOM     31  H   KM1 d   1      22.956 -25.947  10.624  0.00  0.00     0.087 H 
ENDBRANCH  18  21
ENDBRANCH  17  18
ENDBRANCH   1  17
TORSDOF 3
