REMARK  18 active torsions:
REMARK  status: ('A' for Active; 'I' for Inactive)
REMARK    1  A    between atoms: O3_4  and  C3_3 
REMARK    2  A    between atoms: C1X_23  and  O3_4 
REMARK    3  A    between atoms: C10_11  and  C19_22 
REMARK    4  A    between atoms: C12_13  and  O12_14 
REMARK    5  A    between atoms: C13_15  and  C18_21 
REMARK    6  A    between atoms: C14_16  and  O14_17 
REMARK    7  A    between atoms: C17_20  and  C20_26 
REMARK    8  A    between atoms: C1Y_24  and  O4X_42 
REMARK    9  A    between atoms: O4Y_44  and  C1Z_25 
REMARK   10  A    between atoms: C3X_35  and  O3X_36 
REMARK   11  A    between atoms: C3Y_37  and  O3Y_38 
REMARK   12  A    between atoms: C3Z_39  and  O3Z_40 
REMARK   13  A    between atoms: O4X_42  and  C4X_41 
REMARK   14  A    between atoms: C4Y_43  and  O4Y_44 
REMARK   15  A    between atoms: C4Z_45  and  O4Z_46 
REMARK   16  A    between atoms: C5X_47  and  C6X_53 
REMARK   17  A    between atoms: C5Y_49  and  C6Y_54 
REMARK   18  A    between atoms: C5Z_51  and  C6Z_55 
ROOT
ATOM      1  C1  DGX d   1      25.488  18.997  -1.482  0.00  0.00    -0.055 C 
ATOM      2  C2  DGX d   1      25.504  19.436  -2.961  0.00  0.00    -0.040 C 
ATOM      3  C3  DGX d   1      26.586  20.494  -3.203  0.00  0.00     0.042 C 
ATOM      4  C4  DGX d   1      26.341  21.699  -2.270  0.00  0.00    -0.037 C 
ATOM      5  C5  DGX d   1      26.284  21.309  -0.768  0.00  0.00    -0.044 C 
ATOM      6  C6  DGX d   1      25.978  22.568   0.085  0.00  0.00    -0.060 C 
ATOM      7  C7  DGX d   1      24.533  23.070  -0.113  0.00  0.00    -0.058 C 
ATOM      8  C8  DGX d   1      23.500  21.950   0.149  0.00  0.00    -0.019 C 
ATOM      9  C9  DGX d   1      23.806  20.711  -0.739  0.00  0.00    -0.038 C 
ATOM     10  C10 DGX d   1      25.238  20.185  -0.519  0.00  0.00    -0.036 C 
ATOM     11  C11 DGX d   1      22.743  19.585  -0.568  0.00  0.00    -0.036 C 
ATOM     12  C12 DGX d   1      21.363  20.150  -0.911  0.00  0.00     0.046 C 
ATOM     13  C13 DGX d   1      20.974  21.303   0.060  0.00  0.00     0.021 C 
ATOM     14  C14 DGX d   1      22.046  22.437   0.000  0.00  0.00     0.072 C 
ATOM     15  C15 DGX d   1      21.739  23.145  -1.338  0.00  0.00    -0.035 C 
ATOM     16  C16 DGX d   1      20.200  23.185  -1.386  0.00  0.00    -0.054 C 
ATOM     17  C17 DGX d   1      19.702  21.964  -0.563  0.00  0.00    -0.018 C 
ATOM     18  H1  DGX d   1      26.459  18.542  -1.238  0.00  0.00     0.034 H 
ATOM     19  H2  DGX d   1      24.689  18.254  -1.342  0.00  0.00     0.034 H 
ATOM     20  H3  DGX d   1      24.522  19.858  -3.223  0.00  0.00     0.036 H 
ATOM     21  H4  DGX d   1      25.708  18.560  -3.595  0.00  0.00     0.036 H 
ATOM     22  H5  DGX d   1      26.538  20.832  -4.249  0.00  0.00     0.083 H 
ATOM     23  H6  DGX d   1      25.384  22.166  -2.546  0.00  0.00     0.037 H 
ATOM     24  H7  DGX d   1      27.157  22.423  -2.412  0.00  0.00     0.037 H 
ATOM     25  H8  DGX d   1      27.271  20.924  -0.473  0.00  0.00     0.041 H 
ATOM     26  H9  DGX d   1      26.674  23.369  -0.204  0.00  0.00     0.033 H 
ATOM     27  H10 DGX d   1      26.124  22.320   1.147  0.00  0.00     0.033 H 
ATOM     28  H11 DGX d   1      24.418  23.427  -1.147  0.00  0.00     0.033 H 
ATOM     29  H12 DGX d   1      24.345  23.899   0.585  0.00  0.00     0.033 H 
ATOM     30  H13 DGX d   1      23.622  21.636   1.196  0.00  0.00     0.045 H 
ATOM     31  H14 DGX d   1      23.747  21.047  -1.785  0.00  0.00     0.042 H 
ATOM     32  H15 DGX d   1      22.747  19.228   0.472  0.00  0.00     0.037 H 
ATOM     33  H16 DGX d   1      22.978  18.749  -1.244  0.00  0.00     0.037 H 
ATOM     34  H17 DGX d   1      21.406  20.563  -1.929  0.00  0.00     0.084 H 
ATOM     35  H20 DGX d   1      22.143  22.573  -2.186  0.00  0.00     0.037 H 
ATOM     36  H21 DGX d   1      22.158  24.162  -1.349  0.00  0.00     0.037 H 
ATOM     37  H22 DGX d   1      19.850  23.111  -2.426  0.00  0.00     0.034 H 
ATOM     38  H23 DGX d   1      19.830  24.120  -0.941  0.00  0.00     0.034 H 
ATOM     39  H24 DGX d   1      19.246  21.229  -1.242  0.00  0.00     0.048 H 
ENDROOT
BRANCH   3  40
ATOM     40  O3  DGX d   1      27.872  19.920  -2.954  0.00  0.00    -0.356 OA
BRANCH  40  41
ATOM     41  C1X DGX d   1      29.003  20.674  -3.418  0.00  0.00     0.134 C 
ATOM     42  C2X DGX d   1      30.280  20.007  -2.915  0.00  0.00     0.007 C 
ATOM     43  C3X DGX d   1      31.536  20.669  -3.517  0.00  0.00     0.067 C 
ATOM     44  H37 DGX d   1      30.265  18.945  -3.199  0.00  0.00     0.044 H 
ATOM     45  H38 DGX d   1      30.321  20.093  -1.819  0.00  0.00     0.044 H 
ATOM     46  C4X DGX d   1      31.453  20.875  -5.036  0.00  0.00     0.091 C 
ATOM     47  H43 DGX d   1      32.396  20.022  -3.292  0.00  0.00     0.087 H 
ATOM     48  C5X DGX d   1      30.095  21.476  -5.432  0.00  0.00     0.065 C 
ATOM     49  H49 DGX d   1      31.626  19.928  -5.569  0.00  0.00     0.091 H 
ATOM     50  O5X DGX d   1      29.037  20.710  -4.855  0.00  0.00    -0.354 OA
ATOM     51  H53 DGX d   1      30.038  22.506  -5.051  0.00  0.00     0.086 H 
ATOM     52  H31 DGX d   1      28.941  21.701  -3.029  0.00  0.00     0.129 H 
BRANCH  43  53
ATOM     53  O3X DGX d   1      31.764  21.965  -2.965  0.00  0.00    -0.393 OA
ATOM     54  H44 DGX d   1      32.543  22.342  -3.357  0.00  0.00     0.210 HD
ENDBRANCH  43  53
BRANCH  46  55
ATOM     55  O4X DGX d   1      32.456  21.848  -5.354  0.00  0.00    -0.351 OA
BRANCH  55  56
ATOM     56  C1Y DGX d   1      33.580  21.339  -6.077  0.00  0.00     0.134 C 
ATOM     57  C2Y DGX d   1      34.739  22.343  -6.005  0.00  0.00     0.007 C 
ATOM     58  C3Y DGX d   1      35.910  21.788  -6.832  0.00  0.00     0.067 C 
ATOM     59  H39 DGX d   1      35.052  22.475  -4.959  0.00  0.00     0.044 H 
ATOM     60  H40 DGX d   1      34.419  23.311  -6.417  0.00  0.00     0.044 H 
ATOM     61  C4Y DGX d   1      36.295  20.381  -6.311  0.00  0.00     0.091 C 
ATOM     62  H45 DGX d   1      36.779  22.453  -6.723  0.00  0.00     0.087 H 
ATOM     63  C5Y DGX d   1      35.056  19.465  -6.317  0.00  0.00     0.065 C 
ATOM     64  H50 DGX d   1      36.636  20.486  -5.271  0.00  0.00     0.091 H 
ATOM     65  O5Y DGX d   1      34.028  20.094  -5.534  0.00  0.00    -0.354 OA
ATOM     66  H54 DGX d   1      34.703  19.334  -7.350  0.00  0.00     0.086 H 
ATOM     67  H32 DGX d   1      33.289  21.190  -7.127  0.00  0.00     0.129 H 
BRANCH  58  68
ATOM     68  O3Y DGX d   1      35.520  21.759  -8.211  0.00  0.00    -0.393 OA
ATOM     69  H46 DGX d   1      36.236  21.418  -8.734  0.00  0.00     0.210 HD
ENDBRANCH  58  68
BRANCH  61  70
ATOM     70  O4Y DGX d   1      37.375  19.805  -7.069  0.00  0.00    -0.351 OA
BRANCH  70  71
ATOM     71  C1Z DGX d   1      38.670  19.795  -6.436  0.00  0.00     0.134 C 
ATOM     72  C2Z DGX d   1      39.706  19.974  -7.562  0.00  0.00     0.007 C 
ATOM     73  C3Z DGX d   1      41.084  20.350  -6.996  0.00  0.00     0.067 C 
ATOM     74  H41 DGX d   1      39.366  20.772  -8.238  0.00  0.00     0.044 H 
ATOM     75  H42 DGX d   1      39.794  19.031  -8.122  0.00  0.00     0.044 H 
ATOM     76  C4Z DGX d   1      40.964  21.598  -6.097  0.00  0.00     0.085 C 
ATOM     77  H47 DGX d   1      41.767  20.575  -7.828  0.00  0.00     0.087 H 
ATOM     78  C5Z DGX d   1      40.017  21.284  -4.922  0.00  0.00     0.065 C 
ATOM     79  H51 DGX d   1      40.537  22.422  -6.687  0.00  0.00     0.090 H 
ATOM     80  O5Z DGX d   1      38.744  20.828  -5.418  0.00  0.00    -0.354 OA
ATOM     81  H55 DGX d   1      40.465  20.497  -4.298  0.00  0.00     0.086 H 
ATOM     82  H33 DGX d   1      38.835  18.822  -5.950  0.00  0.00     0.129 H 
BRANCH  73  83
ATOM     83  O3Z DGX d   1      41.603  19.241  -6.251  0.00  0.00    -0.393 OA
ATOM     84  H48 DGX d   1      42.455  19.469  -5.899  0.00  0.00     0.210 HD
ENDBRANCH  73  83
BRANCH  76  85
ATOM     85  O4Z DGX d   1      42.257  22.002  -5.617  0.00  0.00    -0.390 OA
ATOM     86  H52 DGX d   1      42.642  21.295  -5.113  0.00  0.00     0.210 HD
ENDBRANCH  76  85
BRANCH  78  87
ATOM     87  C6Z DGX d   1      39.810  22.549  -4.075  0.00  0.00    -0.050 C 
ATOM     88  H62 DGX d   1      39.134  22.323  -3.237  0.00  0.00     0.031 H 
ATOM     89  H63 DGX d   1      39.368  23.340  -4.699  0.00  0.00     0.031 H 
ATOM     90  H64 DGX d   1      40.779  22.890  -3.682  0.00  0.00     0.031 H 
ENDBRANCH  78  87
ENDBRANCH  70  71
ENDBRANCH  61  70
BRANCH  63  91
ATOM     91  C6Y DGX d   1      35.400  18.094  -5.727  0.00  0.00    -0.050 C 
ATOM     92  H59 DGX d   1      34.505  17.454  -5.739  0.00  0.00     0.031 H 
ATOM     93  H60 DGX d   1      35.748  18.218  -4.691  0.00  0.00     0.031 H 
ATOM     94  H61 DGX d   1      36.194  17.625  -6.327  0.00  0.00     0.031 H 
ENDBRANCH  63  91
ENDBRANCH  55  56
ENDBRANCH  46  55
BRANCH  48  95
ATOM     95  C6X DGX d   1      29.951  21.505  -6.954  0.00  0.00    -0.050 C 
ATOM     96  H56 DGX d   1      28.976  21.937  -7.222  0.00  0.00     0.031 H 
ATOM     97  H57 DGX d   1      30.019  20.480  -7.348  0.00  0.00     0.031 H 
ATOM     98  H58 DGX d   1      30.755  22.118  -7.387  0.00  0.00     0.031 H 
ENDBRANCH  48  95
ENDBRANCH  40  41
ENDBRANCH   3  40
BRANCH  10  99
ATOM     99  C19 DGX d   1      25.420  19.617   0.902  0.00  0.00    -0.068 C 
ATOM    100  H28 DGX d   1      26.451  19.252   1.022  0.00  0.00     0.028 H 
ATOM    101  H29 DGX d   1      24.717  18.786   1.058  0.00  0.00     0.028 H 
ATOM    102  H30 DGX d   1      25.223  20.407   1.641  0.00  0.00     0.028 H 
ENDBRANCH  10  99
BRANCH  14 103
ATOM    103  O14 DGX d   1      21.800  23.424   1.006  0.00  0.00    -0.389 OA
ATOM    104  H19 DGX d   1      22.463  24.102   0.951  0.00  0.00     0.210 HD
ENDBRANCH  14 103
BRANCH  12 105
ATOM    105  O12 DGX d   1      20.377  19.109  -0.893  0.00  0.00    -0.395 OA
ATOM    106  H18 DGX d   1      20.346  18.719  -0.027  0.00  0.00     0.210 HD
ENDBRANCH  12 105
BRANCH  13 107
ATOM    107  C18 DGX d   1      20.770  20.770   1.486  0.00  0.00    -0.063 C 
ATOM    108  H25 DGX d   1      21.708  20.323   1.848  0.00  0.00     0.028 H 
ATOM    109  H26 DGX d   1      19.978  20.007   1.482  0.00  0.00     0.028 H 
ATOM    110  H27 DGX d   1      20.478  21.598   2.149  0.00  0.00     0.028 H 
ENDBRANCH  13 107
BRANCH  17 111
ATOM    111  C20 DGX d   1      18.612  22.429   0.385  0.00  0.00    -0.045 C 
ATOM    112  C21 DGX d   1      17.307  21.719   0.713  0.00  0.00     0.050 C 
ATOM    113  O21 DGX d   1      16.527  22.659   1.524  0.00  0.00    -0.314 OA
ATOM    114  H34 DGX d   1      17.505  20.798   1.281  0.00  0.00     0.082 H 
ATOM    115  H35 DGX d   1      16.765  21.470  -0.211  0.00  0.00     0.082 H 
ATOM    116  C23 DGX d   1      17.336  23.690   1.814  0.00  0.00     0.283 C 
ATOM    117  C22 DGX d   1      18.581  23.579   1.050  0.00  0.00    -0.006 C 
ATOM    118  O23 DGX d   1      17.077  24.610   2.575  0.00  0.00    -0.260 OA
ATOM    119  H36 DGX d   1      19.368  24.331   1.030  0.00  0.00     0.093 H 
ENDBRANCH  17 111
TORSDOF 18
