REMARK  10 active torsions:
REMARK  status: ('A' for Active; 'I' for Inactive)
REMARK    1  A    between atoms: CAK_11  and  C1_1 
REMARK       I    between atoms: CAU_19  and  NAA_4 
REMARK    2  A    between atoms: CAV_20  and  NAC_5 
REMARK    3  A    between atoms: CAM_13  and  CAN_14 
REMARK    4  A    between atoms: CAO_15  and  CAM_13 
REMARK    5  A    between atoms: CAN_14  and  NAR_17 
REMARK    6  A    between atoms: CAZ_23  and  CAO_15 
REMARK    7  A    between atoms: CAV_20  and  CAP_16 
REMARK       I    between atoms: CAW_21  and  NAS_18 
REMARK    8  A    between atoms: NAS_18  and  CAZ_23 
REMARK    9  A    between atoms: CAZ_23  and  CAU_19 
REMARK   10  A    between atoms: CAW_21  and  CAX_22 
ROOT
ATOM      1  CAZ YCL d   1     -23.729  15.633 -21.464  0.00  0.00     0.089 C 
ATOM      2  H   YCL d   1     -23.764  16.047 -20.456  0.00  0.00     0.087 H 
ENDROOT
BRANCH   1   3
ATOM      3  CAO YCL d   1     -24.525  14.322 -21.591  0.00  0.00    -0.036 C 
ATOM      4  H   YCL d   1     -25.105  14.259 -20.670  0.00  0.00     0.036 H 
ATOM      5  H   YCL d   1     -25.044  14.404 -22.546  0.00  0.00     0.036 H 
BRANCH   3   6
ATOM      6  CAM YCL d   1     -23.773  12.991 -21.669  0.00  0.00    -0.048 C 
ATOM      7  H   YCL d   1     -24.159  12.448 -22.532  0.00  0.00     0.035 H 
ATOM      8  H   YCL d   1     -22.710  13.220 -21.737  0.00  0.00     0.035 H 
BRANCH   6   9
ATOM      9  CAN YCL d   1     -23.973  12.098 -20.437  0.00  0.00    -0.006 C 
ATOM     10  H   YCL d   1     -24.807  12.453 -19.832  0.00  0.00     0.064 H 
ATOM     11  H   YCL d   1     -23.090  12.116 -19.798  0.00  0.00     0.064 H 
BRANCH   9  12
ATOM     12  NAR YCL d   1     -24.228  10.750 -20.931  0.00  0.00    -0.379 N 
ATOM     13  CAV YCL d   1     -24.004   9.552 -20.378  0.00  0.00     0.087 C 
ATOM     14  H   YCL d   1     -24.650  10.714 -21.859  0.00  0.00     0.160 HD
BRANCH  13  15
ATOM     15  NAC YCL d   1     -23.498   9.350 -19.169  0.00  0.00    -0.288 NA
ATOM     16  H   YCL d   1     -23.379   8.400 -18.818  0.00  0.00     0.188 HD
ENDBRANCH  13  15
BRANCH  13  17
ATOM     17  CAP YCL d   1     -24.380   8.337 -21.175  0.00  0.00    -0.022 C 
ATOM     18  H   YCL d   1     -23.497   7.717 -21.328  0.00  0.00     0.037 H 
ATOM     19  H   YCL d   1     -25.136   7.768 -20.633  0.00  0.00     0.037 H 
ATOM     20  H   YCL d   1     -24.779   8.647 -22.141  0.00  0.00     0.037 H 
ENDBRANCH  13  17
ENDBRANCH   9  12
ENDBRANCH   6   9
ENDBRANCH   3   6
ENDBRANCH   1   3
BRANCH   1  21
ATOM     21  NAS YCL d   1     -24.373  16.540 -22.432  0.00  0.00    -0.344 N 
ATOM     22  CAW YCL d   1     -24.287  17.879 -22.395  0.00  0.00     0.253 C 
ATOM     23  OAF YCL d   1     -23.630  18.470 -21.537  0.00  0.00    -0.268 OA
ATOM     24  H   YCL d   1     -24.922  16.120 -23.182  0.00  0.00     0.163 HD
BRANCH  22  25
ATOM     25  CAX YCL d   1     -24.972  18.715 -23.455  0.00  0.00     0.049 A 
ATOM     26  CAK YCL d   1     -25.893  19.728 -23.144  0.00  0.00     0.056 A 
ATOM     27  CAI YCL d   1     -26.460  20.486 -24.174  0.00  0.00    -0.065 A 
ATOM     28  CAH YCL d   1     -26.120  20.246 -25.511  0.00  0.00    -0.082 A 
ATOM     29  H   YCL d   1     -27.175  21.273 -23.933  0.00  0.00     0.085 H 
ATOM     30  CAJ YCL d   1     -25.201  19.250 -25.824  0.00  0.00    -0.082 A 
ATOM     31  H   YCL d   1     -26.575  20.839 -26.305  0.00  0.00     0.083 H 
ATOM     32  CAL YCL d   1     -24.632  18.491 -24.796  0.00  0.00    -0.067 A 
ATOM     33  H   YCL d   1     -24.926  19.062 -26.862  0.00  0.00     0.083 H 
ATOM     34  H   YCL d   1     -23.911  17.711 -25.042  0.00  0.00     0.085 H 
BRANCH  26  35
ATOM     35  C1  YCL d   1     -26.284  20.044 -21.723  0.00  0.00     0.210 C 
ATOM     36  O1  YCL d   1     -25.549  20.816 -21.065  0.00  0.00    -0.644 OA
ATOM     37  O2  YCL d   1     -27.316  19.538 -21.227  0.00  0.00    -0.644 OA
ENDBRANCH  26  35
ENDBRANCH  22  25
ENDBRANCH   1  21
BRANCH   1  38
ATOM     38  CAU YCL d   1     -22.236  15.449 -21.665  0.00  0.00     0.238 C 
ATOM     39  NAA YCL d   1     -21.790  15.623 -22.901  0.00  0.00    -0.368 N 
ATOM     40  H   YCL d   1     -20.797  15.510 -23.106  0.00  0.00     0.159 HD
ATOM     41  H   YCL d   1     -22.440  15.870 -23.648  0.00  0.00     0.159 HD
ATOM     42  OAE YCL d   1     -21.474  15.151 -20.748  0.00  0.00    -0.271 OA
ENDBRANCH   1  38
TORSDOF 10
