REMARK  10 active torsions:
REMARK  status: ('A' for Active; 'I' for Inactive)
REMARK    1  A    between atoms: CAK_11  and  C1_1 
REMARK       I    between atoms: CAU_19  and  NAA_4 
REMARK    2  A    between atoms: CAV_20  and  NAC_5 
REMARK    3  A    between atoms: CAM_13  and  CAN_14 
REMARK    4  A    between atoms: CAO_15  and  CAM_13 
REMARK    5  A    between atoms: CAN_14  and  NAR_17 
REMARK    6  A    between atoms: CAZ_23  and  CAO_15 
REMARK    7  A    between atoms: CAV_20  and  CAP_16 
REMARK       I    between atoms: CAW_21  and  NAS_18 
REMARK    8  A    between atoms: NAS_18  and  CAZ_23 
REMARK    9  A    between atoms: CAZ_23  and  CAU_19 
REMARK   10  A    between atoms: CAW_21  and  CAX_22 
ROOT
ATOM      1  CAZ YFF d   1     -23.759  15.460 -21.819  0.00  0.00     0.089 C 
ATOM      2  H   YFF d   1     -24.128  15.605 -20.804  0.00  0.00     0.087 H 
ENDROOT
BRANCH   1   3
ATOM      3  CAO YFF d   1     -24.138  14.102 -22.418  0.00  0.00    -0.036 C 
ATOM      4  H   YFF d   1     -25.143  13.870 -22.066  0.00  0.00     0.036 H 
ATOM      5  H   YFF d   1     -24.044  14.195 -23.500  0.00  0.00     0.036 H 
BRANCH   3   6
ATOM      6  CAM YFF d   1     -23.238  12.942 -21.992  0.00  0.00    -0.048 C 
ATOM      7  H   YFF d   1     -23.164  12.261 -22.840  0.00  0.00     0.035 H 
ATOM      8  H   YFF d   1     -22.283  13.368 -21.684  0.00  0.00     0.035 H 
BRANCH   6   9
ATOM      9  CAN YFF d   1     -23.779  12.142 -20.813  0.00  0.00    -0.006 C 
ATOM     10  H   YFF d   1     -24.676  12.595 -20.391  0.00  0.00     0.064 H 
ATOM     11  H   YFF d   1     -23.071  12.108 -19.985  0.00  0.00     0.064 H 
BRANCH   9  12
ATOM     12  NAR YFF d   1     -24.043  10.819 -21.355  0.00  0.00    -0.379 N 
ATOM     13  CAV YFF d   1     -23.967   9.633 -20.757  0.00  0.00     0.087 C 
ATOM     14  H   YFF d   1     -24.327  10.797 -22.334  0.00  0.00     0.160 HD
BRANCH  13  15
ATOM     15  NAC YFF d   1     -23.643   9.476 -19.482  0.00  0.00    -0.288 NA
ATOM     16  H   YFF d   1     -23.617   8.542 -19.074  0.00  0.00     0.188 HD
ENDBRANCH  13  15
BRANCH  13  17
ATOM     17  CAP YFF d   1     -24.290   8.414 -21.572  0.00  0.00    -0.022 C 
ATOM     18  H   YFF d   1     -23.427   7.748 -21.584  0.00  0.00     0.037 H 
ATOM     19  H   YFF d   1     -25.143   7.898 -21.130  0.00  0.00     0.037 H 
ATOM     20  H   YFF d   1     -24.534   8.714 -22.591  0.00  0.00     0.037 H 
ENDBRANCH  13  17
ENDBRANCH   9  12
ENDBRANCH   6   9
ENDBRANCH   3   6
ENDBRANCH   1   3
BRANCH   1  21
ATOM     21  NAS YFF d   1     -24.358  16.432 -22.735  0.00  0.00    -0.344 N 
ATOM     22  CAW YFF d   1     -24.254  17.760 -22.629  0.00  0.00     0.253 C 
ATOM     23  OAF YFF d   1     -23.625  18.306 -21.735  0.00  0.00    -0.268 OA
ATOM     24  H   YFF d   1     -24.899  16.066 -23.518  0.00  0.00     0.163 HD
BRANCH  22  25
ATOM     25  CAX YFF d   1     -24.938  18.601 -23.674  0.00  0.00     0.049 A 
ATOM     26  CAK YFF d   1     -25.884  19.573 -23.352  0.00  0.00     0.056 A 
ATOM     27  CAI YFF d   1     -26.482  20.322 -24.365  0.00  0.00    -0.065 A 
ATOM     28  CAH YFF d   1     -26.144  20.105 -25.699  0.00  0.00    -0.082 A 
ATOM     29  H   YFF d   1     -27.220  21.083 -24.111  0.00  0.00     0.085 H 
ATOM     30  CAJ YFF d   1     -25.202  19.134 -26.022  0.00  0.00    -0.082 A 
ATOM     31  H   YFF d   1     -26.616  20.694 -26.486  0.00  0.00     0.083 H 
ATOM     32  CAL YFF d   1     -24.604  18.387 -25.010  0.00  0.00    -0.067 A 
ATOM     33  H   YFF d   1     -24.933  18.958 -27.064  0.00  0.00     0.083 H 
ATOM     34  H   YFF d   1     -23.866  17.626 -25.266  0.00  0.00     0.085 H 
BRANCH  26  35
ATOM     35  C1  YFF d   1     -26.283  19.847 -21.930  0.00  0.00     0.210 C 
ATOM     36  O1  YFF d   1     -26.115  20.999 -21.473  0.00  0.00    -0.644 OA
ATOM     37  O2  YFF d   1     -26.775  18.928 -21.239  0.00  0.00    -0.644 OA
ENDBRANCH  26  35
ENDBRANCH  22  25
ENDBRANCH   1  21
BRANCH   1  38
ATOM     38  CAU YFF d   1     -22.264  15.597 -21.675  0.00  0.00     0.238 C 
ATOM     39  NAA YFF d   1     -21.549  15.777 -22.780  0.00  0.00    -0.368 N 
ATOM     40  H   YFF d   1     -20.535  15.865 -22.722  0.00  0.00     0.159 HD
ATOM     41  H   YFF d   1     -22.015  15.827 -23.686  0.00  0.00     0.159 HD
ATOM     42  OAE YFF d   1     -21.753  15.531 -20.571  0.00  0.00    -0.271 OA
ENDBRANCH   1  38
TORSDOF 10
