REMARK  4 active torsions:
REMARK  status: ('A' for Active; 'I' for Inactive)
REMARK    1  A    between atoms: C14_14  and  C15_15 
REMARK    2  A    between atoms: C18_18  and  N19_19 
REMARK    3  A    between atoms: C23_21  and  S24_22 
REMARK    4  A    between atoms: S24_22  and  C25_23 
ROOT
ATOM      1  C1  B2X d   1     -23.908  23.267 -22.989  0.00  0.00     0.044 C 
ATOM      2  O2  B2X d   1     -24.570  23.995 -24.091  0.00  0.00    -0.382 OA
ATOM      3  C3  B2X d   1     -25.538  23.072 -24.635  0.00  0.00     0.044 C 
ATOM      4  C4  B2X d   1     -26.546  22.634 -23.699  0.00  0.00    -0.023 A 
ATOM      5  C5  B2X d   1     -27.878  22.389 -24.070  0.00  0.00    -0.074 A 
ATOM      6  C6  B2X d   1     -28.834  22.050 -23.090  0.00  0.00    -0.082 A 
ATOM      7  C7  B2X d   1     -28.458  21.956 -21.748  0.00  0.00    -0.071 A 
ATOM      8  C8  B2X d   1     -27.132  22.198 -21.349  0.00  0.00    -0.009 A 
ATOM      9  C9  B2X d   1     -26.183  22.564 -22.336  0.00  0.00    -0.008 A 
ATOM     10  C10 B2X d   1     -24.850  22.850 -21.976  0.00  0.00    -0.021 A 
ATOM     11  C11 B2X d   1     -24.467  22.789 -20.643  0.00  0.00    -0.052 A 
ATOM     12  C12 B2X d   1     -25.382  22.413 -19.668  0.00  0.00     0.049 A 
ATOM     13 CL13 B2X d   1     -24.747  22.256 -18.045  0.00  0.00    -0.083 Cl
ATOM     14  C14 B2X d   1     -26.720  22.136 -19.986  0.00  0.00     0.045 A 
ATOM     15  H   B2X d   1     -23.182  23.935 -22.526  0.00  0.00     0.081 H 
ATOM     16  H   B2X d   1     -23.435  22.377 -23.403  0.00  0.00     0.081 H 
ATOM     17  H   B2X d   1     -24.989  22.184 -24.948  0.00  0.00     0.081 H 
ATOM     18  H   B2X d   1     -26.057  23.594 -25.439  0.00  0.00     0.081 H 
ATOM     19  H   B2X d   1     -28.174  22.461 -25.117  0.00  0.00     0.084 H 
ATOM     20  H   B2X d   1     -29.867  21.861 -23.380  0.00  0.00     0.083 H 
ATOM     21  H   B2X d   1     -29.204  21.691 -20.999  0.00  0.00     0.084 H 
ATOM     22  H   B2X d   1     -23.444  23.037 -20.360  0.00  0.00     0.087 H 
ENDROOT
BRANCH  14  23
ATOM     23  C15 B2X d   1     -27.626  21.748 -18.944  0.00  0.00     0.184 A 
ATOM     24  N16 B2X d   1     -28.254  20.559 -18.995  0.00  0.00    -0.201 NA
ATOM     25  C23 B2X d   1     -29.088  20.234 -17.988  0.00  0.00     0.208 A 
ATOM     26  N22 B2X d   1     -29.252  20.964 -16.911  0.00  0.00    -0.036 NA
ATOM     27  C18 B2X d   1     -28.648  22.158 -16.869  0.00  0.00     0.724 A 
ATOM     28  N17 B2X d   1     -27.841  22.545 -17.877  0.00  0.00    -0.042 NA
BRANCH  25  29
ATOM     29  S24 B2X d   1     -29.870  18.692 -18.000  0.00  0.00    -0.094 SA
BRANCH  29  30
ATOM     30  C25 B2X d   1     -29.755  18.180 -19.711  0.00  0.00    -0.027 C 
ATOM     31  H   B2X d   1     -30.264  18.909 -20.342  0.00  0.00     0.042 H 
ATOM     32  H   B2X d   1     -28.706  18.116 -20.000  0.00  0.00     0.042 H 
ATOM     33  H   B2X d   1     -30.226  17.204 -19.829  0.00  0.00     0.042 H 
ENDBRANCH  29  30
ENDBRANCH  25  29
BRANCH  27  34
ATOM     34  N19 B2X d   1     -28.804  22.963 -15.831  0.00  0.00    -0.231 N 
ATOM     35  H   B2X d   1     -28.318  23.859 -15.803  0.00  0.00     0.174 HD
ATOM     36  H   B2X d   1     -29.411  22.688 -15.059  0.00  0.00     0.174 HD
ENDBRANCH  27  34
ENDBRANCH  14  23
TORSDOF 4
