REMARK  10 active torsions:
REMARK  status: ('A' for Active; 'I' for Inactive)
REMARK    1  A    between atoms: N6_4  and  C13_11 
REMARK       I    between atoms: C27_20  and  N6_4 
REMARK    2  A    between atoms: C10_8  and  C14_12 
REMARK    3  A    between atoms: C15_13  and  C16_14 
REMARK    4  A    between atoms: C19_15  and  O3_38 
REMARK    5  A    between atoms: N7_34  and  C20_16 
REMARK    6  A    between atoms: O3_38  and  C21_17 
REMARK    7  A    between atoms: C24_19  and  C25_24 
REMARK    8  A    between atoms: C18_32  and  C27_20 
REMARK    9  A    between atoms: C31_22  and  N7_34 
REMARK       I    between atoms: C25_24  and  N3_25 
REMARK   10  A    between atoms: N3_25  and  C26_26 
ROOT
ATOM      1  C19 9NH d   1      16.436  -3.486  14.709  0.00  0.00     0.200 A 
ATOM      2  C20 9NH d   1      18.324  -2.382  14.054  0.00  0.00     0.729 A 
ATOM      3  N1  9NH d   1      18.670  -3.305  13.144  0.00  0.00    -0.074 NA
ATOM      4  C17 9NH d   1      17.893  -4.366  12.969  0.00  0.00     0.041 A 
ATOM      5  C18 9NH d   1      16.715  -4.475  13.766  0.00  0.00     0.103 A 
ATOM      6  N4  9NH d   1      17.233  -2.452  14.844  0.00  0.00    -0.037 NA
ATOM      7  H21 9NH d   1      18.146  -5.128  12.241  0.00  0.00     0.117 H 
ENDROOT
BRANCH   5   8
ATOM      8  C27 9NH d   1      15.814  -5.553  13.473  0.00  0.00     0.262 C 
ATOM      9  N6  9NH d   1      14.751  -5.729  14.280  0.00  0.00    -0.322 N 
ATOM     10  H6  9NH d   1      14.570  -5.087  15.025  0.00  0.00     0.169 HD
ATOM     11  O1  9NH d   1      16.015  -6.255  12.500  0.00  0.00    -0.267 OA
BRANCH   9  12
ATOM     12  C13 9NH d   1      13.926  -6.788  14.071  0.00  0.00     0.042 A 
ATOM     13  C12 9NH d   1      12.829  -6.619  13.190  0.00  0.00    -0.041 A 
ATOM     14  C24 9NH d   1      11.958  -7.751  12.984  0.00  0.00     0.034 A 
ATOM     15  H10 9NH d   1      12.651  -5.674  12.689  0.00  0.00     0.088 H 
ATOM     16  C23 9NH d   1      12.175  -9.051  13.658  0.00  0.00    -0.067 A 
ATOM     17  C22 9NH d   1      13.295  -9.212  14.553  0.00  0.00    -0.074 A 
ATOM     18  H19 9NH d   1      11.496  -9.877  13.480  0.00  0.00     0.085 H 
ATOM     19  C15 9NH d   1      14.154  -8.049  14.732  0.00  0.00    -0.035 A 
ATOM     20  H17 9NH d   1      13.487 -10.148  15.065  0.00  0.00     0.084 H 
BRANCH  14  21
ATOM     21  C25 9NH d   1      10.843  -7.534  12.017  0.00  0.00     0.256 C 
ATOM     22  N3  9NH d   1       9.916  -8.531  11.946  0.00  0.00    -0.320 N 
ATOM     23  H20 9NH d   1       9.919  -9.232  12.659  0.00  0.00     0.169 HD
ATOM     24  O2  9NH d   1      10.777  -6.532  11.311  0.00  0.00    -0.267 OA
BRANCH  22  25
ATOM     25  C26 9NH d   1       8.979  -8.624  10.948  0.00  0.00     0.074 A 
ATOM     26  C7  9NH d   1       7.606  -8.744  11.319  0.00  0.00    -0.054 A 
ATOM     27  C8  9NH d   1       6.561  -8.818  10.337  0.00  0.00    -0.080 A 
ATOM     28  H7  9NH d   1       7.345  -8.780  12.370  0.00  0.00     0.087 H 
ATOM     29  C9  9NH d   1       6.902  -8.770   8.942  0.00  0.00    -0.065 A 
ATOM     30  H8  9NH d   1       5.526  -8.909  10.645  0.00  0.00     0.083 H 
ATOM     31  C10 9NH d   1       8.274  -8.649   8.509  0.00  0.00     0.088 A 
ATOM     32  H9  9NH d   1       6.114  -8.826   8.200  0.00  0.00     0.084 H 
ATOM     33  C11 9NH d   1       9.281  -8.582   9.552  0.00  0.00     0.158 A 
ATOM     34  F4  9NH d   1      10.552  -8.469   9.227  0.00  0.00    -0.203 F 
BRANCH  31  35
ATOM     35  C14 9NH d   1       8.680  -8.581   7.025  0.00  0.00     0.420 C 
ATOM     36  F1  9NH d   1       7.623  -8.721   6.249  0.00  0.00    -0.166 F 
ATOM     37  F3  9NH d   1       9.502  -9.604   6.767  0.00  0.00    -0.166 F 
ATOM     38  F2  9NH d   1       9.290  -7.399   6.754  0.00  0.00    -0.166 F 
ENDBRANCH  31  35
ENDBRANCH  22  25
ENDBRANCH  14  21
BRANCH  19  39
ATOM     39  C16 9NH d   1      15.339  -8.158  15.640  0.00  0.00    -0.049 C 
ATOM     40  H11 9NH d   1      15.381  -9.171  16.068  0.00  0.00     0.033 H 
ATOM     41  H12 9NH d   1      15.248  -7.421  16.451  0.00  0.00     0.033 H 
ATOM     42  H13 9NH d   1      16.258  -7.963  15.068  0.00  0.00     0.033 H 
ENDBRANCH  19  39
ENDBRANCH   9  12
ENDBRANCH   5   8
BRANCH   1  43
ATOM     43  O3  9NH d   1      15.369  -3.576  15.537  0.00  0.00    -0.338 OA
BRANCH  43  44
ATOM     44  C21 9NH d   1      15.213  -2.522  16.489  0.00  0.00     0.012 C 
ATOM     45  H14 9NH d   1      14.316  -2.708  17.099  0.00  0.00     0.067 H 
ATOM     46  H15 9NH d   1      15.104  -1.563  15.960  0.00  0.00     0.067 H 
ATOM     47  H16 9NH d   1      16.098  -2.483  17.141  0.00  0.00     0.067 H 
ENDBRANCH  43  44
ENDBRANCH   1  43
BRANCH   2  48
ATOM     48  N7  9NH d   1      19.122  -1.301  14.084  0.00  0.00    -0.188 N 
ATOM     49  H22 9NH d   1      19.868  -1.279  13.374  0.00  0.00     0.184 HD
BRANCH  48  50
ATOM     50  C31 9NH d   1      19.078  -0.221  14.933  0.00  0.00     0.049 A 
ATOM     51  C28 9NH d   1      17.856   0.306  15.574  0.00  0.00    -0.054 A 
ATOM     52  C2  9NH d   1      17.938   1.407  16.456  0.00  0.00    -0.055 A 
ATOM     53  H23 9NH d   1      16.895  -0.152  15.368  0.00  0.00     0.087 H 
ATOM     54  C29 9NH d   1      19.267   1.949  16.661  0.00  0.00     0.030 A 
ATOM     55  H3  9NH d   1      17.064   1.819  16.947  0.00  0.00     0.087 H 
ATOM     56  C30 9NH d   1      20.492   1.452  16.036  0.00  0.00    -0.055 A 
ATOM     57  N5  9NH d   1      19.362   3.012  17.491  0.00  0.00    -0.378 N 
ATOM     58  C5  9NH d   1      20.385   0.338  15.148  0.00  0.00    -0.054 A 
ATOM     59  H18 9NH d   1      21.451   1.914  16.240  0.00  0.00     0.087 H 
ATOM     60  H24 9NH d   1      21.259  -0.071  14.654  0.00  0.00     0.087 H 
ATOM     61  C4  9NH d   1      20.092   4.215  17.013  0.00  0.00     0.018 C 
ATOM     62  C6  9NH d   1      18.752   2.965  18.843  0.00  0.00     0.018 C 
ATOM     63  C3  9NH d   1      20.913   4.810  18.149  0.00  0.00     0.096 C 
ATOM     64  H27 9NH d   1      20.763   3.931  16.189  0.00  0.00     0.066 H 
ATOM     65  H28 9NH d   1      19.368   4.963  16.656  0.00  0.00     0.066 H 
ATOM     66  N2  9NH d   1      19.979   4.922  19.312  0.00  0.00    -0.072 N 
ATOM     67  H4  9NH d   1      21.757   4.150  18.398  0.00  0.00     0.078 H 
ATOM     68  H5  9NH d   1      21.294   5.803  17.867  0.00  0.00     0.078 H 
ATOM     69  C1  9NH d   1      19.758   3.541  19.820  0.00  0.00     0.096 C 
ATOM     70  H25 9NH d   1      20.389   5.495  20.032  0.00  0.00     0.277 HD
ATOM     71  H26 9NH d   1      19.105   5.327  19.017  0.00  0.00     0.277 HD
ATOM     72  H1  9NH d   1      19.350   3.558  20.841  0.00  0.00     0.078 H 
ATOM     73  H2  9NH d   1      20.694   2.963  19.808  0.00  0.00     0.078 H 
ATOM     74  H29 9NH d   1      17.829   3.563  18.859  0.00  0.00     0.066 H 
ATOM     75  H30 9NH d   1      18.520   1.925  19.114  0.00  0.00     0.066 H 
ENDBRANCH  48  50
ENDBRANCH   2  48
TORSDOF 10
