REMARK  10 active torsions:
REMARK  status: ('A' for Active; 'I' for Inactive)
REMARK    1  A    between atoms: O6_8  and  P1_1 
REMARK    2  A    between atoms: P2_5  and  O6_8 
REMARK    3  A    between atoms: P2_5  and  O7_9 
REMARK    4  A    between atoms: O7_9  and  C1_10 
REMARK    5  A    between atoms: C1_10  and  C2_11 
REMARK    6  A    between atoms: C5_17  and  N1_18 
REMARK    7  A    between atoms: C8_22  and  N3_23 
REMARK    8  A    between atoms: C12_29  and  N6_34 
REMARK    9  A    between atoms: C14_31  and  N7_35 
REMARK   10  A    between atoms: C16_33  and  N8_36 
ROOT
ATOM      1  C2  12D d   1      27.906   4.331  31.914  0.00  0.00     0.089 C 
ATOM      2  O8  12D d   1      28.436   5.514  31.301  0.00  0.00    -0.353 OA
ATOM      3  C3  12D d   1      26.736   4.762  32.778  0.00  0.00     0.098 C 
ATOM      4  O9  12D d   1      27.049   4.755  34.167  0.00  0.00    -0.337 OA
ATOM      5  C4  12D d   1      26.447   6.201  32.413  0.00  0.00     0.112 C 
ATOM      6  O10 12D d   1      26.255   6.872  33.647  0.00  0.00    -0.335 OA
ATOM      7  C5  12D d   1      27.714   6.685  31.725  0.00  0.00     0.140 C 
ATOM      8  C11 12D d   1      26.554   5.978  34.733  0.00  0.00     0.247 A 
ATOM      9  C12 12D d   1      27.639   6.616  35.594  0.00  0.00     0.147 A 
ATOM     10  C13 12D d   1      27.390   7.006  36.904  0.00  0.00    -0.018 A 
ATOM     11  C14 12D d   1      26.156   6.815  37.506  0.00  0.00     0.103 A 
ATOM     12  C15 12D d   1      25.120   6.226  36.804  0.00  0.00    -0.038 A 
ATOM     13  C16 12D d   1      25.247   5.787  35.492  0.00  0.00     0.152 A 
ATOM     14  H3  12D d   1      28.678   3.834  32.520  0.00  0.00     0.090 H 
ATOM     15  H4  12D d   1      25.866   4.117  32.584  0.00  0.00     0.091 H 
ATOM     16  H5  12D d   1      25.568   6.304  31.759  0.00  0.00     0.094 H 
ATOM     17  H6  12D d   1      28.325   7.209  32.475  0.00  0.00     0.122 H 
ATOM     18  H11 12D d   1      28.189   7.476  37.475  0.00  0.00     0.090 H 
ATOM     19  H12 12D d   1      24.160   6.101  37.303  0.00  0.00     0.084 H 
ATOM     20  H13 12D d   1      25.592   4.797  35.824  0.00  0.00     0.098 H 
ENDROOT
BRANCH   9  21
ATOM     21  N6  12D d   1      28.898   6.863  35.133  0.00  0.00    -0.114 N 
ATOM     22  O11 12D d   1      29.296   6.529  33.850  0.00  0.00    -0.532 OA
ATOM     23  O12 12D d   1      29.848   7.472  35.946  0.00  0.00    -0.532 OA
ENDBRANCH   9  21
BRANCH  13  24
ATOM     24  N8  12D d   1      24.115   5.234  34.957  0.00  0.00    -0.141 N 
ATOM     25  O15 12D d   1      24.031   4.737  33.658  0.00  0.00    -0.536 OA
ATOM     26  O16 12D d   1      22.971   5.140  35.750  0.00  0.00    -0.536 OA
ENDBRANCH  13  24
BRANCH   1  27
ATOM     27  C1  12D d   1      27.376   3.377  30.851  0.00  0.00     0.058 C 
ATOM     28  H1  12D d   1      28.112   3.285  30.038  0.00  0.00     0.079 H 
ATOM     29  H2  12D d   1      27.199   2.388  31.299  0.00  0.00     0.079 H 
BRANCH  27  30
ATOM     30  O7  12D d   1      26.150   3.894  30.331  0.00  0.00    -0.287 OA
BRANCH  30  31
ATOM     31  P2  12D d   1      25.410   3.250  29.056  0.00  0.00     0.418 P 
ATOM     32  O4  12D d   1      26.471   2.885  28.037  0.00  0.00    -0.624 OA
ATOM     33  O5  12D d   1      24.328   4.210  28.658  0.00  0.00    -0.624 OA
BRANCH  31  34
ATOM     34  O6  12D d   1      24.771   1.918  29.705  0.00  0.00    -0.173 OA
BRANCH  34  35
ATOM     35  P1  12D d   1      23.561   1.027  29.143  0.00  0.00     0.431 P 
ATOM     36  O1  12D d   1      23.428   1.344  27.672  0.00  0.00    -0.616 OA
ATOM     37  O2  12D d   1      24.018  -0.383  29.425  0.00  0.00    -0.616 OA
ATOM     38  O3  12D d   1      22.340   1.387  29.952  0.00  0.00    -0.616 OA
ENDBRANCH  34  35
ENDBRANCH  31  34
ENDBRANCH  30  31
ENDBRANCH  27  30
ENDBRANCH   1  27
BRANCH   7  39
ATOM     39  N1  12D d   1      27.474   7.653  30.619  0.00  0.00    -0.294 N 
ATOM     40  C6  12D d   1      26.670   7.502  29.552  0.00  0.00     0.071 A 
ATOM     41  N2  12D d   1      26.740   8.614  28.787  0.00  0.00    -0.236 NA
ATOM     42  H7  12D d   1      26.061   6.625  29.339  0.00  0.00     0.144 H 
ATOM     43  C7  12D d   1      27.589   9.467  29.385  0.00  0.00     0.149 A 
ATOM     44  C8  12D d   1      28.044  10.740  29.067  0.00  0.00     0.155 A 
ATOM     45  C10 12D d   1      28.054   8.856  30.540  0.00  0.00     0.167 A 
ATOM     46  N4  12D d   1      28.926  11.341  29.901  0.00  0.00    -0.222 NA
ATOM     47  C9  12D d   1      29.360  10.745  31.025  0.00  0.00     0.091 A 
ATOM     48  N5  12D d   1      28.939   9.508  31.342  0.00  0.00    -0.222 NA
ATOM     49  H10 12D d   1      30.052  11.264  31.678  0.00  0.00     0.146 H 
BRANCH  44  50
ATOM     50  N3  12D d   1      27.609  11.361  27.939  0.00  0.00    -0.382 N 
ATOM     51  H8  12D d   1      27.949  12.305  27.707  0.00  0.00     0.157 HD
ATOM     52  H9  12D d   1      26.939  10.887  27.316  0.00  0.00     0.157 HD
ENDBRANCH  44  50
ENDBRANCH   7  39
BRANCH  11  53
ATOM     53  N7  12D d   1      25.967   7.218  38.787  0.00  0.00    -0.116 N 
ATOM     54  O13 12D d   1      24.738   7.038  39.418  0.00  0.00    -0.532 OA
ATOM     55  O14 12D d   1      27.014   7.817  39.480  0.00  0.00    -0.532 OA
ENDBRANCH  11  53
TORSDOF 10
