REMARK  16 active torsions:
REMARK  status: ('A' for Active; 'I' for Inactive)
REMARK    1  A    between atoms: PA_1  and  O5B_4 
REMARK    2  A    between atoms: PA_1  and  O3_23 
REMARK    3  A    between atoms: O5B_4  and  C5B_5 
REMARK    4  A    between atoms: C5B_5  and  C4B_6 
REMARK    5  A    between atoms: C3B_8  and  O3B_9 
REMARK    6  A    between atoms: C2B_10  and  O2B_11 
REMARK    7  A    between atoms: C1B_12  and  N9A_13 
REMARK    8  A    between atoms: C6A_17  and  N6A_18 
REMARK    9  A    between atoms: O3_23  and  PN_24 
REMARK   10  A    between atoms: PN_24  and  O5D_27 
REMARK   11  A    between atoms: O5D_27  and  C5D_28 
REMARK   12  A    between atoms: C5D_28  and  C4D_29 
REMARK   13  A    between atoms: C3D_31  and  O3D_32 
REMARK   14  A    between atoms: C2D_33  and  O2D_34 
REMARK   15  A    between atoms: C1D_35  and  N1N_36 
REMARK   16  A    between atoms: C3N_38  and  C7N_39 
REMARK       I    between atoms: C7N_39  and  N7N_41 
ROOT
ATOM      1  O3  NON d   1       3.966  -6.300  93.175  0.00  0.00    -0.180 OA
ENDROOT
BRANCH   1   2
ATOM      2  PA  NON d   1       3.762  -5.372  94.475  0.00  0.00     0.417 P 
ATOM      3  O1A NON d   1       2.287  -5.201  94.726  0.00  0.00    -0.624 OA
ATOM      4  O2A NON d   1       4.636  -5.849  95.604  0.00  0.00    -0.624 OA
BRANCH   2   5
ATOM      5  O5B NON d   1       4.293  -3.929  93.993  0.00  0.00    -0.287 OA
BRANCH   5   6
ATOM      6  C5B NON d   1       3.422  -3.221  93.091  0.00  0.00     0.058 C 
ATOM      7  H   NON d   1       3.123  -2.288  93.568  0.00  0.00     0.079 H 
ATOM      8  H   NON d   1       2.566  -3.860  92.871  0.00  0.00     0.079 H 
BRANCH   6   9
ATOM      9  C4B NON d   1       4.123  -2.880  91.762  0.00  0.00     0.089 C 
ATOM     10  O4B NON d   1       4.641  -1.533  91.714  0.00  0.00    -0.353 OA
ATOM     11  C1B NON d   1       5.529  -1.584  90.598  0.00  0.00     0.139 C 
ATOM     12  C2B NON d   1       6.313  -2.883  90.779  0.00  0.00     0.105 C 
ATOM     13  H   NON d   1       4.991  -1.587  89.650  0.00  0.00     0.122 H 
ATOM     14  C3B NON d   1       5.289  -3.821  91.398  0.00  0.00     0.091 C 
ATOM     15  H   NON d   1       7.212  -2.760  91.383  0.00  0.00     0.093 H 
ATOM     16  H   NON d   1       5.644  -4.394  92.254  0.00  0.00     0.091 H 
ATOM     17  H   NON d   1       3.318  -3.004  91.038  0.00  0.00     0.090 H 
BRANCH  11  18
ATOM     18  N9A NON d   1       6.373  -0.375  90.468  0.00  0.00    -0.294 N 
ATOM     19  C8A NON d   1       6.238   0.564  89.531  0.00  0.00     0.071 A 
ATOM     20  N7A NON d   1       7.160   1.532  89.726  0.00  0.00    -0.236 NA
ATOM     21  H   NON d   1       5.498   0.552  88.731  0.00  0.00     0.144 H 
ATOM     22  C5A NON d   1       7.871   1.187  90.820  0.00  0.00     0.149 A 
ATOM     23  C6A NON d   1       8.929   1.765  91.506  0.00  0.00     0.155 A 
ATOM     24  C4A NON d   1       7.353  -0.010  91.289  0.00  0.00     0.167 A 
ATOM     25  N1A NON d   1       9.419   1.136  92.598  0.00  0.00    -0.222 NA
ATOM     26  C2A NON d   1       8.906  -0.022  93.025  0.00  0.00     0.091 A 
ATOM     27  N3A NON d   1       7.887  -0.601  92.385  0.00  0.00    -0.222 NA
ATOM     28  H   NON d   1       9.326  -0.501  93.909  0.00  0.00     0.146 H 
BRANCH  23  29
ATOM     29  N6A NON d   1       9.453   2.940  91.076  0.00  0.00    -0.382 N 
ATOM     30  H   NON d   1       9.069   3.397  90.249  0.00  0.00     0.157 HD
ATOM     31  H   NON d   1      10.231   3.366  91.579  0.00  0.00     0.157 HD
ENDBRANCH  23  29
ENDBRANCH  11  18
BRANCH  12  32
ATOM     32  O2B NON d   1       6.739  -3.391  89.512  0.00  0.00    -0.388 OA
ATOM     33  H   NON d   1       5.982  -3.463  88.927  0.00  0.00     0.210 HD
ENDBRANCH  12  32
BRANCH  14  34
ATOM     34  O3B NON d   1       4.876  -4.723  90.363  0.00  0.00    -0.390 OA
ATOM     35  H   NON d   1       5.604  -5.307  90.139  0.00  0.00     0.210 HD
ENDBRANCH  14  34
ENDBRANCH   6   9
ENDBRANCH   5   6
ENDBRANCH   2   5
ENDBRANCH   1   2
BRANCH   1  36
ATOM     36  PN  NON d   1       5.214  -7.302  92.989  0.00  0.00     0.417 P 
ATOM     37  O1N NON d   1       6.291  -7.004  94.004  0.00  0.00    -0.624 OA
ATOM     38  O2N NON d   1       5.561  -7.382  91.523  0.00  0.00    -0.624 OA
BRANCH  36  39
ATOM     39  O5D NON d   1       4.514  -8.690  93.400  0.00  0.00    -0.287 OA
BRANCH  39  40
ATOM     40  C5D NON d   1       4.364  -8.931  94.797  0.00  0.00     0.058 C 
ATOM     41  H   NON d   1       3.458  -8.433  95.142  0.00  0.00     0.079 H 
ATOM     42  H   NON d   1       5.244  -8.547  95.314  0.00  0.00     0.079 H 
BRANCH  40  43
ATOM     43  C4D NON d   1       4.241 -10.418  95.085  0.00  0.00     0.089 C 
ATOM     44  O4D NON d   1       4.831 -11.198  94.047  0.00  0.00    -0.353 OA
ATOM     45  C1D NON d   1       5.678 -12.220  94.579  0.00  0.00     0.136 C 
ATOM     46  C2D NON d   1       5.800 -11.966  96.073  0.00  0.00     0.105 C 
ATOM     47  H   NON d   1       5.279 -13.219  94.405  0.00  0.00     0.122 H 
ATOM     48  C3D NON d   1       4.994 -10.716  96.364  0.00  0.00     0.091 C 
ATOM     49  H   NON d   1       6.840 -11.840  96.374  0.00  0.00     0.093 H 
ATOM     50  H   NON d   1       5.651  -9.902  96.670  0.00  0.00     0.091 H 
ATOM     51  H   NON d   1       3.183 -10.668  95.162  0.00  0.00     0.090 H 
BRANCH  45  52
ATOM     52  N1N NON d   1       6.989 -12.114  93.926  0.00  0.00    -0.336 N 
ATOM     53  C2N NON d   1       7.153 -11.230  92.930  0.00  0.00    -0.003 A 
ATOM     54  C3N NON d   1       8.374 -11.099  92.272  0.00  0.00     0.047 A 
ATOM     55  H   NON d   1       6.314 -10.602  92.630  0.00  0.00     0.113 H 
ATOM     56  C4N NON d   1       9.436 -11.911  92.648  0.00  0.00    -0.065 A 
ATOM     57  C5N NON d   1       9.244 -12.826  93.677  0.00  0.00    -0.067 A 
ATOM     58  H   NON d   1      10.401 -11.833  92.147  0.00  0.00     0.085 H 
ATOM     59  C6N NON d   1       7.999 -12.915  94.295  0.00  0.00    -0.018 A 
ATOM     60  H   NON d   1      10.063 -13.470  93.998  0.00  0.00     0.085 H 
ATOM     61  H   NON d   1       7.844 -13.645  95.089  0.00  0.00     0.111 H 
BRANCH  54  62
ATOM     62  C7N NON d   1       8.533 -10.101  91.158  0.00  0.00     0.250 C 
ATOM     63  O7N NON d   1       9.472 -10.211  90.389  0.00  0.00    -0.268 OA
ATOM     64  N7N NON d   1       7.634  -9.130  91.020  0.00  0.00    -0.366 N 
ATOM     65  H   NON d   1       7.722  -8.458  90.258  0.00  0.00     0.159 HD
ATOM     66  H   NON d   1       6.856  -9.058  91.676  0.00  0.00     0.159 HD
ENDBRANCH  54  62
ENDBRANCH  45  52
BRANCH  46  67
ATOM     67  O2D NON d   1       5.263 -13.081  96.798  0.00  0.00    -0.388 OA
ATOM     68  H   NON d   1       5.781 -13.866  96.606  0.00  0.00     0.210 HD
ENDBRANCH  46  67
BRANCH  48  69
ATOM     69  O3D NON d   1       4.069 -10.904  97.439  0.00  0.00    -0.390 OA
ATOM     70  H   NON d   1       3.487 -11.640  97.234  0.00  0.00     0.210 HD
ENDBRANCH  48  69
ENDBRANCH  40  43
ENDBRANCH  39  40
ENDBRANCH  36  39
ENDBRANCH   1  36
TORSDOF 16
