REMARK  16 active torsions:
REMARK  status: ('A' for Active; 'I' for Inactive)
REMARK    1  A    between atoms: PA_1  and  O5B_4 
REMARK    2  A    between atoms: PA_1  and  O3_23 
REMARK    3  A    between atoms: O5B_4  and  C5B_5 
REMARK    4  A    between atoms: C5B_5  and  C4B_6 
REMARK    5  A    between atoms: C3B_8  and  O3B_9 
REMARK    6  A    between atoms: C2B_10  and  O2B_11 
REMARK    7  A    between atoms: C1B_12  and  N9A_13 
REMARK    8  A    between atoms: C6A_17  and  N6A_18 
REMARK    9  A    between atoms: O3_23  and  PN_24 
REMARK   10  A    between atoms: PN_24  and  O5D_27 
REMARK   11  A    between atoms: O5D_27  and  C5D_28 
REMARK   12  A    between atoms: C5D_28  and  C4D_29 
REMARK   13  A    between atoms: C3D_31  and  O3D_32 
REMARK   14  A    between atoms: C2D_33  and  O2D_34 
REMARK   15  A    between atoms: C1D_35  and  N1N_36 
REMARK   16  A    between atoms: C3N_38  and  C7N_39 
REMARK       I    between atoms: C7N_39  and  N7N_41 
ROOT
ATOM      1  O3  NON d   1       3.596  -6.410  93.637  0.00  0.00    -0.180 OA
ENDROOT
BRANCH   1   2
ATOM      2  PA  NON d   1       3.592  -5.349  94.852  0.00  0.00     0.417 P 
ATOM      3  O1A NON d   1       2.167  -5.060  95.254  0.00  0.00    -0.624 OA
ATOM      4  O2A NON d   1       4.577  -5.815  95.899  0.00  0.00    -0.624 OA
BRANCH   2   5
ATOM      5  O5B NON d   1       4.138  -3.996  94.188  0.00  0.00    -0.287 OA
BRANCH   5   6
ATOM      6  C5B NON d   1       3.255  -3.287  93.345  0.00  0.00     0.058 C 
ATOM      7  H   NON d   1       2.981  -2.365  93.857  0.00  0.00     0.079 H 
ATOM      8  H   NON d   1       2.404  -3.937  93.139  0.00  0.00     0.079 H 
BRANCH   6   9
ATOM      9  C4B NON d   1       3.872  -2.904  92.011  0.00  0.00     0.089 C 
ATOM     10  O4B NON d   1       4.375  -1.566  91.967  0.00  0.00    -0.353 OA
ATOM     11  C1B NON d   1       5.294  -1.580  90.878  0.00  0.00     0.139 C 
ATOM     12  C2B NON d   1       6.069  -2.877  91.035  0.00  0.00     0.105 C 
ATOM     13  H   NON d   1       4.753  -1.541  89.933  0.00  0.00     0.122 H 
ATOM     14  C3B NON d   1       5.000  -3.808  91.545  0.00  0.00     0.091 C 
ATOM     15  H   NON d   1       6.943  -2.782  91.679  0.00  0.00     0.093 H 
ATOM     16  H   NON d   1       5.342  -4.463  92.347  0.00  0.00     0.091 H 
ATOM     17  H   NON d   1       3.019  -3.013  91.341  0.00  0.00     0.090 H 
BRANCH  11  18
ATOM     18  N9A NON d   1       6.148  -0.374  90.733  0.00  0.00    -0.294 N 
ATOM     19  C8A NON d   1       6.012   0.547  89.766  0.00  0.00     0.071 A 
ATOM     20  N7A NON d   1       6.944   1.507  89.935  0.00  0.00    -0.236 NA
ATOM     21  H   NON d   1       5.267   0.523  88.971  0.00  0.00     0.144 H 
ATOM     22  C5A NON d   1       7.662   1.180  91.028  0.00  0.00     0.149 A 
ATOM     23  C6A NON d   1       8.732   1.776  91.674  0.00  0.00     0.155 A 
ATOM     24  C4A NON d   1       7.147   0.000  91.533  0.00  0.00     0.167 A 
ATOM     25  N1A NON d   1       9.244   1.182  92.777  0.00  0.00    -0.222 NA
ATOM     26  C2A NON d   1       8.730   0.035  93.242  0.00  0.00     0.091 A 
ATOM     27  N3A NON d   1       7.698  -0.560  92.634  0.00  0.00    -0.222 NA
ATOM     28  H   NON d   1       9.161  -0.422  94.133  0.00  0.00     0.146 H 
BRANCH  23  29
ATOM     29  N6A NON d   1       9.247   2.938  91.199  0.00  0.00    -0.382 N 
ATOM     30  H   NON d   1       8.846   3.371  90.367  0.00  0.00     0.157 HD
ATOM     31  H   NON d   1      10.035   3.378  91.674  0.00  0.00     0.157 HD
ENDBRANCH  23  29
ENDBRANCH  11  18
BRANCH  12  32
ATOM     32  O2B NON d   1       6.567  -3.349  89.782  0.00  0.00    -0.388 OA
ATOM     33  H   NON d   1       5.848  -3.385  89.147  0.00  0.00     0.210 HD
ENDBRANCH  12  32
BRANCH  14  34
ATOM     34  O3B NON d   1       4.561  -4.601  90.450  0.00  0.00    -0.390 OA
ATOM     35  H   NON d   1       5.278  -5.170  90.160  0.00  0.00     0.210 HD
ENDBRANCH  14  34
ENDBRANCH   6   9
ENDBRANCH   5   6
ENDBRANCH   2   5
ENDBRANCH   1   2
BRANCH   1  36
ATOM     36  PN  NON d   1       4.832  -7.408  93.343  0.00  0.00     0.417 P 
ATOM     37  O1N NON d   1       6.142  -6.711  93.611  0.00  0.00    -0.624 OA
ATOM     38  O2N NON d   1       4.584  -8.051  92.006  0.00  0.00    -0.624 OA
BRANCH  36  39
ATOM     39  O5D NON d   1       4.607  -8.511  94.490  0.00  0.00    -0.287 OA
BRANCH  39  40
ATOM     40  C5D NON d   1       3.420  -9.298  94.494  0.00  0.00     0.058 C 
ATOM     41  H   NON d   1       3.073  -9.426  93.469  0.00  0.00     0.079 H 
ATOM     42  H   NON d   1       2.658  -8.793  95.088  0.00  0.00     0.079 H 
BRANCH  40  43
ATOM     43  C4D NON d   1       3.699 -10.664  95.100  0.00  0.00     0.089 C 
ATOM     44  O4D NON d   1       4.473 -11.436  94.184  0.00  0.00    -0.353 OA
ATOM     45  C1D NON d   1       5.405 -12.264  94.877  0.00  0.00     0.136 C 
ATOM     46  C2D NON d   1       5.446 -11.764  96.312  0.00  0.00     0.105 C 
ATOM     47  H   NON d   1       5.123 -13.317  94.859  0.00  0.00     0.122 H 
ATOM     48  C3D NON d   1       4.502 -10.583  96.383  0.00  0.00     0.091 C 
ATOM     49  H   NON d   1       6.455 -11.482  96.615  0.00  0.00     0.093 H 
ATOM     50  H   NON d   1       5.029  -9.634  96.481  0.00  0.00     0.091 H 
ATOM     51  H   NON d   1       2.728 -11.112  95.312  0.00  0.00     0.090 H 
BRANCH  45  52
ATOM     52  N1N NON d   1       6.716 -12.138  94.229  0.00  0.00    -0.336 N 
ATOM     53  C2N NON d   1       6.870 -11.282  93.206  0.00  0.00    -0.003 A 
ATOM     54  C3N NON d   1       8.098 -11.148  92.560  0.00  0.00     0.047 A 
ATOM     55  H   NON d   1       6.022 -10.683  92.876  0.00  0.00     0.113 H 
ATOM     56  C4N NON d   1       9.173 -11.925  92.974  0.00  0.00    -0.065 A 
ATOM     57  C5N NON d   1       8.988 -12.810  94.030  0.00  0.00    -0.067 A 
ATOM     58  H   NON d   1      10.142 -11.842  92.481  0.00  0.00     0.085 H 
ATOM     59  C6N NON d   1       7.738 -12.906  94.636  0.00  0.00    -0.018 A 
ATOM     60  H   NON d   1       9.816 -13.425  94.382  0.00  0.00     0.085 H 
ATOM     61  H   NON d   1       7.588 -13.614  95.451  0.00  0.00     0.111 H 
BRANCH  54  62
ATOM     62  C7N NON d   1       8.253 -10.182  91.416  0.00  0.00     0.250 C 
ATOM     63  O7N NON d   1       9.157 -10.336  90.613  0.00  0.00    -0.268 OA
ATOM     64  N7N NON d   1       7.384  -9.184  91.291  0.00  0.00    -0.366 N 
ATOM     65  H   NON d   1       7.467  -8.530  90.513  0.00  0.00     0.159 HD
ATOM     66  H   NON d   1       6.634  -9.072  91.974  0.00  0.00     0.159 HD
ENDBRANCH  54  62
ENDBRANCH  45  52
BRANCH  46  67
ATOM     67  O2D NON d   1       4.969 -12.804  97.174  0.00  0.00    -0.388 OA
ATOM     68  H   NON d   1       4.929 -12.477  98.076  0.00  0.00     0.210 HD
ENDBRANCH  46  67
BRANCH  48  69
ATOM     69  O3D NON d   1       3.650 -10.683  97.527  0.00  0.00    -0.390 OA
ATOM     70  H   NON d   1       3.185 -11.523  97.506  0.00  0.00     0.210 HD
ENDBRANCH  48  69
ENDBRANCH  40  43
ENDBRANCH  39  40
ENDBRANCH  36  39
ENDBRANCH   1  36
TORSDOF 16
