REMARK  8 active torsions:
REMARK  status: ('A' for Active; 'I' for Inactive)
REMARK    1  A    between atoms: C1_1  and  O17_11 
REMARK    2  A    between atoms: C13_10  and  C42_26 
REMARK    3  A    between atoms: O17_11  and  C18_12 
REMARK    4  A    between atoms: C27_19  and  O32_22 
REMARK    5  A    between atoms: C28_20  and  O37_24 
REMARK    6  A    between atoms: O32_22  and  C33_23 
REMARK    7  A    between atoms: O37_24  and  C38_25 
REMARK       I    between atoms: C42_26  and  N43_27 
REMARK    8  A    between atoms: N43_27  and  C44_28 
ROOT
ATOM      1  C1  900 d   1      38.164  30.898  14.408  0.00  0.00     0.076 A 
ATOM      2  C2  900 d   1      36.789  30.968  14.022  0.00  0.00    -0.040 A 
ATOM      3  C3  900 d   1      36.229  32.187  13.517  0.00  0.00    -0.022 A 
ATOM      4  C4  900 d   1      37.058  33.386  13.392  0.00  0.00    -0.010 A 
ATOM      5  C5  900 d   1      38.452  33.289  13.811  0.00  0.00    -0.069 A 
ATOM      6  C6  900 d   1      38.981  32.069  14.313  0.00  0.00    -0.049 A 
ATOM      7  C10 900 d   1      34.862  32.213  13.134  0.00  0.00    -0.072 A 
ATOM      8  C11 900 d   1      34.285  33.402  12.611  0.00  0.00    -0.081 A 
ATOM      9  C12 900 d   1      35.069  34.578  12.451  0.00  0.00    -0.067 A 
ATOM     10  C13 900 d   1      36.457  34.610  12.823  0.00  0.00     0.043 A 
ATOM     11  H1  900 d   1      36.162  30.088  14.112  0.00  0.00     0.089 H 
ATOM     12  H2  900 d   1      39.093  34.160  13.739  0.00  0.00     0.085 H 
ATOM     13  H3  900 d   1      40.017  32.025  14.628  0.00  0.00     0.087 H 
ATOM     14  H4  900 d   1      34.255  31.321  13.241  0.00  0.00     0.084 H 
ATOM     15  H5  900 d   1      33.238  33.413  12.332  0.00  0.00     0.083 H 
ATOM     16  H6  900 d   1      34.610  35.469  12.040  0.00  0.00     0.085 H 
ENDROOT
BRANCH   1  17
ATOM     17  O17 900 d   1      38.646  29.654  14.849  0.00  0.00    -0.310 OA
BRANCH  17  18
ATOM     18  C18 900 d   1      39.301  28.899  13.841  0.00  0.00     0.090 A 
ATOM     19  C19 900 d   1      40.094  27.788  14.235  0.00  0.00     0.029 A 
ATOM     20  C20 900 d   1      40.801  26.973  13.297  0.00  0.00     0.072 A 
ATOM     21  C26 900 d   1      40.209  27.499  15.589  0.00  0.00    -0.033 A 
ATOM     22  N21 900 d   1      40.663  27.281  11.961  0.00  0.00    -0.260 NA
ATOM     23  C29 900 d   1      41.593  25.880  13.769  0.00  0.00    -0.019 A 
ATOM     24  C22 900 d   1      39.898  28.341  11.574  0.00  0.00     0.005 A 
ATOM     25  C23 900 d   1      39.205  29.168  12.484  0.00  0.00    -0.032 A 
ATOM     26  H7  900 d   1      39.818  28.559  10.515  0.00  0.00     0.114 H 
ATOM     27  H8  900 d   1      38.608  30.000  12.128  0.00  0.00     0.090 H 
ATOM     28  C28 900 d   1      41.696  25.614  15.163  0.00  0.00     0.103 A 
ATOM     29  H10 900 d   1      42.118  25.250  13.060  0.00  0.00     0.091 H 
ATOM     30  C27 900 d   1      40.974  26.431  16.054  0.00  0.00     0.102 A 
ATOM     31  H9  900 d   1      39.688  28.123  16.306  0.00  0.00     0.089 H 
BRANCH  28  32
ATOM     32  O37 900 d   1      42.465  24.567  15.707  0.00  0.00    -0.353 OA
BRANCH  32  33
ATOM     33  C38 900 d   1      43.711  24.960  16.300  0.00  0.00     0.010 C 
ATOM     34  H14 900 d   1      44.227  24.071  16.691  0.00  0.00     0.066 H 
ATOM     35  H15 900 d   1      43.520  25.664  17.123  0.00  0.00     0.066 H 
ATOM     36  H16 900 d   1      44.341  25.446  15.541  0.00  0.00     0.066 H 
ENDBRANCH  32  33
ENDBRANCH  28  32
BRANCH  30  37
ATOM     37  O32 900 d   1      40.948  26.287  17.444  0.00  0.00    -0.353 OA
BRANCH  37  38
ATOM     38  C33 900 d   1      41.972  26.880  18.198  0.00  0.00     0.010 C 
ATOM     39  H11 900 d   1      41.806  26.675  19.266  0.00  0.00     0.066 H 
ATOM     40  H12 900 d   1      41.970  27.967  18.028  0.00  0.00     0.066 H 
ATOM     41  H13 900 d   1      42.942  26.463  17.891  0.00  0.00     0.066 H 
ENDBRANCH  37  38
ENDBRANCH  30  37
ENDBRANCH  17  18
ENDBRANCH   1  17
BRANCH  10  42
ATOM     42  C42 900 d   1      37.243  35.854  12.590  0.00  0.00     0.257 C 
ATOM     43  N43 900 d   1      36.556  37.023  12.453  0.00  0.00    -0.323 N 
ATOM     44  H17 900 d   1      35.562  36.983  12.549  0.00  0.00     0.169 HD
ATOM     45  O55 900 d   1      38.451  35.819  12.466  0.00  0.00    -0.267 OA
BRANCH  43  46
ATOM     46  C44 900 d   1      37.119  38.265  12.191  0.00  0.00     0.035 A 
ATOM     47  C45 900 d   1      36.821  39.375  13.002  0.00  0.00    -0.056 A 
ATOM     48  C46 900 d   1      37.404  40.630  12.727  0.00  0.00    -0.060 A 
ATOM     49  H18 900 d   1      36.142  39.266  13.840  0.00  0.00     0.087 H 
ATOM     50  C47 900 d   1      38.301  40.766  11.616  0.00  0.00     0.034 A 
ATOM     51  H19 900 d   1      37.175  41.486  13.351  0.00  0.00     0.086 H 
ATOM     52  C48 900 d   1      38.622  39.682  10.780  0.00  0.00    -0.060 A 
ATOM     53 CL54 900 d   1      39.014  42.298  11.295  0.00  0.00    -0.084 Cl
ATOM     54  C49 900 d   1      38.030  38.425  11.066  0.00  0.00    -0.056 A 
ATOM     55  H20 900 d   1      39.300  39.803   9.943  0.00  0.00     0.086 H 
ATOM     56  H21 900 d   1      38.259  37.571  10.438  0.00  0.00     0.087 H 
ENDBRANCH  43  46
ENDBRANCH  10  42
TORSDOF 8
