REMARK  8 active torsions:
REMARK  status: ('A' for Active; 'I' for Inactive)
REMARK    1  A    between atoms: C1_1  and  O17_11 
REMARK    2  A    between atoms: C13_10  and  C42_26 
REMARK    3  A    between atoms: O17_11  and  C18_12 
REMARK    4  A    between atoms: C27_19  and  O32_22 
REMARK    5  A    between atoms: C28_20  and  O33_23 
REMARK    6  A    between atoms: O32_22  and  C38_25 
REMARK    7  A    between atoms: O33_23  and  C34_24 
REMARK       I    between atoms: C42_26  and  N43_27 
REMARK    8  A    between atoms: N43_27  and  C44_28 
ROOT
ATOM      1  C1  887 d   1       9.663  -0.974  57.790  0.00  0.00     0.076 A 
ATOM      2  C2  887 d   1       8.280  -0.980  57.403  0.00  0.00    -0.040 A 
ATOM      3  C3  887 d   1       7.646   0.247  57.008  0.00  0.00    -0.022 A 
ATOM      4  C4  887 d   1       8.393   1.506  57.002  0.00  0.00    -0.010 A 
ATOM      5  C5  887 d   1       9.794   1.462  57.404  0.00  0.00    -0.069 A 
ATOM      6  C6  887 d   1      10.405   0.247  57.790  0.00  0.00    -0.049 A 
ATOM      7  C10 887 d   1       6.279   0.226  56.628  0.00  0.00    -0.072 A 
ATOM      8  C11 887 d   1       5.638   1.431  56.239  0.00  0.00    -0.081 A 
ATOM      9  C12 887 d   1       6.343   2.662  56.220  0.00  0.00    -0.067 A 
ATOM     10  C13 887 d   1       7.713   2.742  56.588  0.00  0.00     0.043 A 
ATOM     11  H1  887 d   1       7.717  -1.906  57.409  0.00  0.00     0.089 H 
ATOM     12  H2  887 d   1      10.377   2.376  57.407  0.00  0.00     0.085 H 
ATOM     13  H3  887 d   1      11.447   0.242  58.089  0.00  0.00     0.087 H 
ATOM     14  H4  887 d   1       5.726  -0.707  56.635  0.00  0.00     0.084 H 
ATOM     15  H5  887 d   1       4.593   1.411  55.952  0.00  0.00     0.083 H 
ATOM     16  H6  887 d   1       5.824   3.564  55.917  0.00  0.00     0.085 H 
ENDROOT
BRANCH   1  17
ATOM     17  O17 887 d   1      10.310  -2.149  58.188  0.00  0.00    -0.310 OA
BRANCH  17  18
ATOM     18  C18 887 d   1      10.985  -2.967  57.249  0.00  0.00     0.090 A 
ATOM     19  C19 887 d   1      11.812  -4.019  57.766  0.00  0.00     0.029 A 
ATOM     20  C20 887 d   1      12.522  -4.893  56.869  0.00  0.00     0.072 A 
ATOM     21  C26 887 d   1      11.953  -4.200  59.178  0.00  0.00    -0.033 A 
ATOM     22  N21 887 d   1      12.378  -4.702  55.500  0.00  0.00    -0.260 NA
ATOM     23  C29 887 d   1      13.334  -5.921  57.402  0.00  0.00    -0.019 A 
ATOM     24  C22 887 d   1      11.596  -3.700  54.988  0.00  0.00     0.005 A 
ATOM     25  C23 887 d   1      10.878  -2.811  55.821  0.00  0.00    -0.032 A 
ATOM     26  H7  887 d   1      11.526  -3.585  53.912  0.00  0.00     0.114 H 
ATOM     27  H8  887 d   1      10.260  -2.029  55.394  0.00  0.00     0.090 H 
ATOM     28  C28 887 d   1      13.488  -6.115  58.818  0.00  0.00     0.103 A 
ATOM     29  H10 887 d   1      13.857  -6.583  56.721  0.00  0.00     0.091 H 
ATOM     30  C27 887 d   1      12.781  -5.243  59.716  0.00  0.00     0.102 A 
ATOM     31  H9  887 d   1      11.425  -3.538  59.855  0.00  0.00     0.089 H 
BRANCH  28  32
ATOM     32  O33 887 d   1      14.300  -7.133  59.379  0.00  0.00    -0.353 OA
BRANCH  32  33
ATOM     33  C34 887 d   1      14.721  -8.217  58.547  0.00  0.00     0.010 C 
ATOM     34  H11 887 d   1      15.339  -8.912  59.135  0.00  0.00     0.066 H 
ATOM     35  H12 887 d   1      15.310  -7.825  57.705  0.00  0.00     0.066 H 
ATOM     36  H13 887 d   1      13.838  -8.748  58.162  0.00  0.00     0.066 H 
ENDBRANCH  32  33
ENDBRANCH  28  32
BRANCH  30  37
ATOM     37  O32 887 d   1      12.841  -5.340  61.145  0.00  0.00    -0.353 OA
BRANCH  37  38
ATOM     38  C38 887 d   1      12.953  -4.159  61.942  0.00  0.00     0.010 C 
ATOM     39  H14 887 d   1      12.985  -4.436  63.006  0.00  0.00     0.066 H 
ATOM     40  H15 887 d   1      12.085  -3.509  61.758  0.00  0.00     0.066 H 
ATOM     41  H16 887 d   1      13.876  -3.623  61.675  0.00  0.00     0.066 H 
ENDBRANCH  37  38
ENDBRANCH  30  37
ENDBRANCH  17  18
ENDBRANCH   1  17
BRANCH  10  42
ATOM     42  C42 887 d   1       8.382   4.067  56.532  0.00  0.00     0.252 C 
ATOM     43  N43 887 d   1       7.577   5.157  56.812  0.00  0.00    -0.352 N 
ATOM     44  H17 887 d   1       6.614   5.001  57.030  0.00  0.00     0.163 HD
ATOM     45  O45 887 d   1       9.572   4.207  56.247  0.00  0.00    -0.268 OA
BRANCH  43  46
ATOM     46  C44 887 d   1       8.077   6.513  56.801  0.00  0.00     0.012 A 
ATOM     47  C46 887 d   1       8.055   6.851  55.330  0.00  0.00    -0.044 A 
ATOM     48  C47 887 d   1       7.293   7.645  56.338  0.00  0.00    -0.044 A 
ATOM     49  H19 887 d   1       7.525   6.201  54.618  0.00  0.00     0.036 H 
ATOM     50  H20 887 d   1       8.945   7.277  54.844  0.00  0.00     0.036 H 
ATOM     51  H21 887 d   1       7.615   8.668  56.583  0.00  0.00     0.036 H 
ATOM     52  H22 887 d   1       6.194   7.592  56.357  0.00  0.00     0.036 H 
ATOM     53  H18 887 d   1       8.910   6.675  57.501  0.00  0.00     0.072 H 
ENDBRANCH  43  46
ENDBRANCH  10  42
TORSDOF 8
