REMARK  28 active torsions:
REMARK  status: ('A' for Active; 'I' for Inactive)
REMARK    1  A    between atoms: N_1  and  CA_2 
REMARK    2  A    between atoms: CA_2  and  C_3 
REMARK    3  A    between atoms: CA_2  and  CB_5 
REMARK       I    between atoms: C_3  and  N_6 
REMARK    4  A    between atoms: N_6  and  CA_7 
REMARK    5  A    between atoms: CA_7  and  C_8 
REMARK    6  A    between atoms: CA_7  and  CB_10 
REMARK       I    between atoms: C_8  and  N_11 
REMARK    7  A    between atoms: N_11  and  CA_12 
REMARK    8  A    between atoms: CA_12  and  CB_13 
REMARK    9  A    between atoms: CA_12  and  C_20 
REMARK   10  A    between atoms: CB_13  and  CG_14 
REMARK   11  A    between atoms: CG_14  and  CD_15 
REMARK   12  A    between atoms: CD_15  and  CE_16 
REMARK   13  A    between atoms: CE_16  and  NZ_17 
REMARK   14  A    between atoms: NZ_17  and  CH1_18 
REMARK   15  A    between atoms: NZ_17  and  CH2_19 
REMARK       I    between atoms: C_20  and  N_22 
REMARK   16  A    between atoms: N_22  and  CA_23 
REMARK   17  A    between atoms: CA_23  and  C_24 
REMARK   18  A    between atoms: CA_23  and  CB_26 
REMARK       I    between atoms: C_24  and  N_28 
REMARK   19  A    between atoms: CB_26  and  OG_27 
REMARK   20  A    between atoms: N_28  and  CA_29 
REMARK   21  A    between atoms: CA_29  and  C_30 
REMARK   22  A    between atoms: CA_29  and  CB_32 
REMARK       I    between atoms: C_30  and  N_35 
REMARK   23  A    between atoms: CB_32  and  OG1_33 
REMARK   24  A    between atoms: CB_32  and  CG2_34 
REMARK   25  A    between atoms: N_35  and  CA_36 
REMARK   26  A    between atoms: CA_36  and  C_37 
REMARK       I    between atoms: C_37  and  N_39 
REMARK   27  A    between atoms: N_39  and  CA_40 
REMARK   28  A    between atoms: CA_40  and  C_41 
ROOT
ATOM      1  CA  MLY d   1     -24.625  -5.221  11.993  0.00  0.00     0.089 C 
ATOM      2  H14 MLY d   1     -25.198  -4.649  12.738  0.00  0.00     0.087 H 
ENDROOT
BRANCH   1   3
ATOM      3  N   MLY d   1     -25.396  -5.450  10.784  0.00  0.00    -0.346 N 
ATOM      4  C   ARG d   1     -26.282  -4.573  10.318  0.00  0.00     0.240 C 
ATOM      5  O   ARG d   1     -26.586  -3.531  10.906  0.00  0.00    -0.271 OA
ATOM      6  H13 MLY d   1     -25.255  -6.302  10.280  0.00  0.00     0.163 HD
BRANCH   4   7
ATOM      7  CA  ARG d   1     -26.942  -4.956   8.994  0.00  0.00     0.086 C 
ATOM      8  H9  ARG d   1     -26.564  -5.951   8.715  0.00  0.00     0.086 H 
BRANCH   7   9
ATOM      9  N   ARG d   1     -28.394  -5.049   9.074  0.00  0.00    -0.346 N 
ATOM     10  C   ALA d   1     -29.066  -5.874   8.274  0.00  0.00     0.248 C 
ATOM     11  O   ALA d   1     -28.505  -6.589   7.427  0.00  0.00    -0.271 OA
ATOM     12  H8  ARG d   1     -28.890  -4.488   9.736  0.00  0.00     0.163 HD
BRANCH  10  13
ATOM     13  CA  ALA d   1     -30.592  -5.890   8.453  0.00  0.00     0.172 C 
ATOM     14  H4  ALA d   1     -30.869  -5.017   9.062  0.00  0.00     0.098 H 
BRANCH  13  15
ATOM     15  N   ALA d   1     -31.310  -5.792   7.179  0.00  0.00    -0.067 N 
ATOM     16  H1  ALA d   1     -32.303  -5.807   7.351  0.00  0.00     0.275 HD
ATOM     17  H2  ALA d   1     -31.059  -6.572   6.591  0.00  0.00     0.275 HD
ATOM     18  H3  ALA d   1     -31.061  -4.930   6.719  0.00  0.00     0.275 HD
ENDBRANCH  13  15
BRANCH  13  19
ATOM     19  CB  ALA d   1     -31.020  -7.163   9.209  0.00  0.00    -0.042 C 
ATOM     20  H5  ALA d   1     -30.474  -7.224  10.162  0.00  0.00     0.030 H 
ATOM     21  H6  ALA d   1     -30.790  -8.048   8.597  0.00  0.00     0.030 H 
ATOM     22  H7  ALA d   1     -32.101  -7.126   9.407  0.00  0.00     0.030 H 
ENDBRANCH  13  19
ENDBRANCH  10  13
ENDBRANCH   7   9
BRANCH   7  23
ATOM     23  CB  ARG d   1     -26.531  -3.961   7.886  0.00  0.00    -0.049 C 
ATOM     24  H10 ARG d   1     -25.434  -3.900   7.836  0.00  0.00     0.030 H 
ATOM     25  H11 ARG d   1     -26.943  -2.967   8.114  0.00  0.00     0.030 H 
ATOM     26  H12 ARG d   1     -26.923  -4.307   6.918  0.00  0.00     0.030 H 
ENDBRANCH   7  23
ENDBRANCH   4   7
ENDBRANCH   1   3
BRANCH   1  27
ATOM     27  CB  MLY d   1     -24.185  -6.567  12.585  0.00  0.00    -0.038 C 
ATOM     28  H15 MLY d   1     -24.939  -6.884  13.321  0.00  0.00     0.036 H 
ATOM     29  H16 MLY d   1     -23.218  -6.424  13.089  0.00  0.00     0.036 H 
BRANCH  27  30
ATOM     30  CG  MLY d   1     -24.026  -7.686  11.542  0.00  0.00    -0.061 C 
ATOM     31  H17 MLY d   1     -23.451  -7.293  10.691  0.00  0.00     0.033 H 
ATOM     32  H18 MLY d   1     -25.026  -7.990  11.200  0.00  0.00     0.033 H 
BRANCH  30  33
ATOM     33  CD  MLY d   1     -23.304  -8.916  12.090  0.00  0.00    -0.042 C 
ATOM     34  H19 MLY d   1     -23.848  -9.288  12.971  0.00  0.00     0.035 H 
ATOM     35  H20 MLY d   1     -22.282  -8.632  12.383  0.00  0.00     0.035 H 
BRANCH  33  36
ATOM     36  CE  MLY d   1     -23.232 -10.026  11.043  0.00  0.00     0.083 C 
ATOM     37  H21 MLY d   1     -23.159  -9.563  10.048  0.00  0.00     0.075 H 
ATOM     38  H22 MLY d   1     -24.154 -10.623  11.103  0.00  0.00     0.075 H 
BRANCH  36  39
ATOM     39  NZ  MLY d   1     -22.086 -10.922  11.224  0.00  0.00    -0.079 N 
ATOM     40  H23 MLY d   1     -22.035 -11.277  12.166  0.00  0.00     0.278 HD
BRANCH  39  41
ATOM     41  CH1 MLY d   1     -22.230 -11.992  10.243  0.00  0.00     0.066 C 
ATOM     42  H24 MLY d   1     -21.389 -12.694  10.340  0.00  0.00     0.068 H 
ATOM     43  H25 MLY d   1     -22.234 -11.563   9.230  0.00  0.00     0.068 H 
ATOM     44  H26 MLY d   1     -23.175 -12.526  10.419  0.00  0.00     0.068 H 
ENDBRANCH  39  41
BRANCH  39  45
ATOM     45  CH2 MLY d   1     -20.875 -10.183  10.855  0.00  0.00     0.066 C 
ATOM     46  H27 MLY d   1     -20.717  -9.359  11.566  0.00  0.00     0.068 H 
ATOM     47  H28 MLY d   1     -20.990  -9.774   9.840  0.00  0.00     0.068 H 
ATOM     48  H29 MLY d   1     -20.009 -10.861  10.882  0.00  0.00     0.068 H 
ENDBRANCH  39  45
ENDBRANCH  36  39
ENDBRANCH  33  36
ENDBRANCH  30  33
ENDBRANCH  27  30
ENDBRANCH   1  27
BRANCH   1  49
ATOM     49  C   MLY d   1     -23.412  -4.423  11.485  0.00  0.00     0.241 C 
ATOM     50  O   MLY d   1     -22.983  -4.607  10.342  0.00  0.00    -0.271 OA
ATOM     51  N   SER d   1     -22.870  -3.525  12.305  0.00  0.00    -0.344 N 
ATOM     52  H30 SER d   1     -23.256  -3.394  13.218  0.00  0.00     0.163 HD
BRANCH  51  53
ATOM     53  CA  SER d   1     -21.714  -2.725  11.887  0.00  0.00     0.109 C 
ATOM     54  H31 SER d   1     -21.428  -3.047  10.875  0.00  0.00     0.090 H 
BRANCH  53  55
ATOM     55  C   SER d   1     -20.507  -2.913  12.801  0.00  0.00     0.243 C 
ATOM     56  O   SER d   1     -20.650  -3.212  13.992  0.00  0.00    -0.271 OA
ATOM     57  N   THR d   1     -19.320  -2.730  12.230  0.00  0.00    -0.344 N 
ATOM     58  H35 THR d   1     -19.282  -2.501  11.257  0.00  0.00     0.163 HD
BRANCH  57  59
ATOM     59  CA  THR d   1     -18.077  -2.852  12.973  0.00  0.00     0.113 C 
ATOM     60  H36 THR d   1     -18.251  -3.499  13.845  0.00  0.00     0.091 H 
BRANCH  59  61
ATOM     61  C   THR d   1     -17.604  -1.491  13.442  0.00  0.00     0.243 C 
ATOM     62  O   THR d   1     -16.405  -1.290  13.668  0.00  0.00    -0.271 OA
ATOM     63  N   GLY d   1     -18.535  -0.548  13.579  0.00  0.00    -0.350 N 
ATOM     64  H42 GLY d   1     -19.494  -0.748  13.376  0.00  0.00     0.163 HD
BRANCH  63  65
ATOM     65  CA  GLY d   1     -18.139   0.769  14.026  0.00  0.00     0.069 C 
ATOM     66  H43 GLY d   1     -17.933   1.389  13.141  0.00  0.00     0.078 H 
ATOM     67  H44 GLY d   1     -17.223   0.671  14.627  0.00  0.00     0.078 H 
BRANCH  65  68
ATOM     68  C   GLY d   1     -19.187   1.466  14.864  0.00  0.00     0.235 C 
ATOM     69  O   GLY d   1     -19.364   2.673  14.724  0.00  0.00    -0.272 OA
ATOM     70  N   GLY d   1     -19.864   0.707  15.727  0.00  0.00    -0.350 N 
ATOM     71  H45 GLY d   1     -19.641  -0.266  15.795  0.00  0.00     0.163 HD
BRANCH  70  72
ATOM     72  CA  GLY d   1     -20.920   1.252  16.575  0.00  0.00     0.075 C 
ATOM     73  H46 GLY d   1     -21.345   0.418  17.152  0.00  0.00     0.080 H 
ATOM     74  H47 GLY d   1     -21.692   1.672  15.914  0.00  0.00     0.080 H 
BRANCH  72  75
ATOM     75  C   GLY d   1     -20.522   2.341  17.566  0.00  0.00     0.191 C 
ATOM     76  O   GLY d   1     -20.875   2.232  18.770  0.00  0.00    -0.647 OA
ATOM     77  O   GLY d   1     -19.849   3.336  17.185  0.00  0.00    -0.647 OA
ENDBRANCH  72  75
ENDBRANCH  70  72
ENDBRANCH  65  68
ENDBRANCH  63  65
ENDBRANCH  59  61
BRANCH  59  78
ATOM     78  CB  THR d   1     -16.971  -3.453  12.118  0.00  0.00     0.060 C 
ATOM     79  H37 THR d   1     -16.005  -3.290  12.618  0.00  0.00     0.086 H 
BRANCH  78  80
ATOM     80  OG1 THR d   1     -16.949  -2.810  10.840  0.00  0.00    -0.393 OA
ATOM     81  H38 THR d   1     -16.258  -3.187  10.309  0.00  0.00     0.210 HD
ENDBRANCH  78  80
BRANCH  78  82
ATOM     82  CG2 THR d   1     -17.182  -4.918  11.944  0.00  0.00    -0.050 C 
ATOM     83  H39 THR d   1     -16.374  -5.334  11.324  0.00  0.00     0.031 H 
ATOM     84  H40 THR d   1     -18.149  -5.093  11.451  0.00  0.00     0.031 H 
ATOM     85  H41 THR d   1     -17.178  -5.409  12.929  0.00  0.00     0.031 H 
ENDBRANCH  78  82
ENDBRANCH  59  78
ENDBRANCH  57  59
ENDBRANCH  53  55
BRANCH  53  86
ATOM     86  CB  SER d   1     -22.090  -1.233  11.838  0.00  0.00     0.044 C 
ATOM     87  H32 SER d   1     -22.516  -0.941  12.809  0.00  0.00     0.077 H 
ATOM     88  H33 SER d   1     -22.840  -1.081  11.048  0.00  0.00     0.077 H 
BRANCH  86  89
ATOM     89  OG  SER d   1     -20.962  -0.412  11.566  0.00  0.00    -0.398 OA
ATOM     90  H34 SER d   1     -20.591  -0.654  10.726  0.00  0.00     0.209 HD
ENDBRANCH  86  89
ENDBRANCH  53  86
ENDBRANCH  51  53
ENDBRANCH   1  49
TORSDOF 28
