REMARK  5 active torsions:
REMARK  status: ('A' for Active; 'I' for Inactive)
REMARK    1  A    between atoms: O5'_1  and  C5'_2 
REMARK    2  A    between atoms: C5'_2  and  C4'_3 
REMARK    3  A    between atoms: C3'_5  and  O3'_6 
REMARK    4  A    between atoms: C2'_7  and  O2'_8 
REMARK    5  A    between atoms: C1'_9  and  C9_10 
ROOT
ATOM      1  C4' IMH d   1      23.368  21.300   8.148  0.00  0.00     0.149 C 
ATOM      2  N4' IMH d   1      22.782  22.448   7.426  0.00  0.00    -0.055 N 
ATOM      3  C3' IMH d   1      22.197  20.358   8.433  0.00  0.00     0.092 C 
ATOM      4  C2' IMH d   1      21.172  20.624   7.318  0.00  0.00     0.094 C 
ATOM      5  C1' IMH d   1      21.551  21.991   6.730  0.00  0.00     0.158 C 
ATOM      6  H4  IMH d   1      23.807  21.641   9.097  0.00  0.00     0.091 H 
ATOM      7  H5  IMH d   1      23.444  22.798   6.751  0.00  0.00     0.278 HD
ATOM      8  H6  IMH d   1      22.551  23.179   8.081  0.00  0.00     0.278 HD
ATOM      9  H7  IMH d   1      22.521  19.307   8.422  0.00  0.00     0.090 H 
ATOM     10  H9  IMH d   1      21.232  19.841   6.548  0.00  0.00     0.090 H 
ATOM     11  H11 IMH d   1      20.735  22.709   6.899  0.00  0.00     0.096 H 
ENDROOT
BRANCH   5  12
ATOM     12  C9  IMH d   1      21.819  21.870   5.217  0.00  0.00     0.022 A 
ATOM     13  C8  IMH d   1      23.023  21.846   4.651  0.00  0.00    -0.012 A 
ATOM     14  N7  IMH d   1      22.875  21.736   3.332  0.00  0.00    -0.359 N 
ATOM     15  H12 IMH d   1      23.973  21.906   5.179  0.00  0.00     0.112 H 
ATOM     16  C5  IMH d   1      21.577  21.700   3.038  0.00  0.00     0.130 A 
ATOM     17  H13 IMH d   1      23.643  21.687   2.648  0.00  0.00     0.165 HD
ATOM     18  C6  IMH d   1      20.898  21.595   1.834  0.00  0.00     0.275 A 
ATOM     19  C4  IMH d   1      20.857  21.786   4.224  0.00  0.00     0.100 A 
ATOM     20  O6  IMH d   1      21.524  21.518   0.779  0.00  0.00    -0.266 OA
ATOM     21  N1  IMH d   1      19.498  21.578   1.849  0.00  0.00    -0.316 N 
ATOM     22  C2  IMH d   1      18.832  21.669   3.087  0.00  0.00     0.067 A 
ATOM     23  H14 IMH d   1      18.980  21.503   0.997  0.00  0.00     0.170 HD
ATOM     24  N3  IMH d   1      19.514  21.760   4.221  0.00  0.00    -0.241 NA
ATOM     25  H15 IMH d   1      17.743  21.665   3.113  0.00  0.00     0.143 H 
ENDBRANCH   5  12
BRANCH   4  26
ATOM     26  O2' IMH d   1      19.830  20.674   7.851  0.00  0.00    -0.390 OA
ATOM     27  H10 IMH d   1      19.771  21.372   8.493  0.00  0.00     0.210 HD
ENDBRANCH   4  26
BRANCH   1  28
ATOM     28  C5' IMH d   1      24.472  20.621   7.316  0.00  0.00     0.046 C 
ATOM     29  H2  IMH d   1      24.977  19.862   7.932  0.00  0.00     0.077 H 
ATOM     30  H3  IMH d   1      24.020  20.139   6.437  0.00  0.00     0.077 H 
BRANCH  28  31
ATOM     31  O5' IMH d   1      25.428  21.593   6.884  0.00  0.00    -0.399 OA
ATOM     32  H1  IMH d   1      25.820  22.009   7.643  0.00  0.00     0.209 HD
ENDBRANCH  28  31
ENDBRANCH   1  28
BRANCH   3  33
ATOM     33  O3' IMH d   1      21.642  20.691   9.716  0.00  0.00    -0.391 OA
ATOM     34  H8  IMH d   1      20.913  20.112   9.904  0.00  0.00     0.210 HD
ENDBRANCH   3  33
TORSDOF 5
