REMARK  1 active torsions:
REMARK  status: ('A' for Active; 'I' for Inactive)
REMARK    1  A    between atoms: C6_6  and  C7_7 
ROOT
ATOM      1  C7  RW1 d   1     -29.682  16.582 -15.230  0.00  0.00    -0.007 A 
ATOM      2  C8  RW1 d   1     -30.378  15.835 -16.172  0.00  0.00    -0.071 A 
ATOM      3  C12 RW1 d   1     -28.467  16.131 -14.730  0.00  0.00    -0.071 A 
ATOM      4  C11 RW1 d   1     -27.940  14.925 -15.176  0.00  0.00    -0.082 A 
ATOM      5  C10 RW1 d   1     -28.637  14.177 -16.119  0.00  0.00    -0.083 A 
ATOM      6  C9  RW1 d   1     -29.854  14.626 -16.616  0.00  0.00    -0.082 A 
ATOM      7  H4  RW1 d   1     -31.325  16.193 -16.559  0.00  0.00     0.084 H 
ATOM      8  H5  RW1 d   1     -27.931  16.719 -13.993  0.00  0.00     0.084 H 
ATOM      9  H6  RW1 d   1     -26.991  14.569 -14.791  0.00  0.00     0.083 H 
ATOM     10  H7  RW1 d   1     -28.227  13.236 -16.469  0.00  0.00     0.083 H 
ATOM     11  H8  RW1 d   1     -30.393  14.036 -17.348  0.00  0.00     0.083 H 
ENDROOT
BRANCH   1  12
ATOM     12  C6  RW1 d   1     -30.190  17.803 -14.803  0.00  0.00     0.069 A 
ATOM     13  C5  RW1 d   1     -29.874  18.264 -13.533  0.00  0.00    -0.037 A 
ATOM     14  C4  RW1 d   1     -30.441  19.461 -13.120  0.00  0.00     0.006 A 
ATOM     15  H3  RW1 d   1     -29.206  17.707 -12.885  0.00  0.00     0.089 H 
ATOM     16  N3  RW1 d   1     -31.242  20.124 -13.934  0.00  0.00    -0.254 NA
ATOM     17  H2  RW1 d   1     -30.227  19.851 -12.132  0.00  0.00     0.114 H 
ATOM     18  C2  RW1 d   1     -31.523  19.658 -15.138  0.00  0.00     0.086 A 
ATOM     19  N1  RW1 d   1     -31.015  18.520 -15.577  0.00  0.00    -0.241 NA
ATOM     20  H1  RW1 d   1     -32.187  20.224 -15.782  0.00  0.00     0.146 H 
ENDBRANCH   1  12
TORSDOF 1
