REMARK  6 active torsions:
REMARK  status: ('A' for Active; 'I' for Inactive)
REMARK    1  A    between atoms: N1_1  and  C1'_9 
REMARK    2  A    between atoms: C2'_10  and  O2'_11 
REMARK    3  A    between atoms: C3'_12  and  O3'_14 
REMARK    4  A    between atoms: C4'_13  and  C5'_16 
REMARK    5  A    between atoms: C5'_16  and  O5'_17 
REMARK    6  A    between atoms: O5'_17  and  P_18 
ROOT
ATOM      1  C1' NON d   1      24.987  10.245  14.062  0.00  0.00     0.141 C 
ATOM      2  C2' NON d   1      25.458   9.706  15.390  0.00  0.00     0.105 C 
ATOM      3  C3' NON d   1      26.971   9.955  15.268  0.00  0.00     0.091 C 
ATOM      4  C4' NON d   1      27.199   9.657  13.797  0.00  0.00     0.089 C 
ATOM      5  O4' NON d   1      26.056  10.101  13.139  0.00  0.00    -0.353 OA
ATOM      6  H4  NON d   1      24.851  11.321  14.243  0.00  0.00     0.123 H 
ATOM      7  H5  NON d   1      25.239   8.635  15.512  0.00  0.00     0.093 H 
ATOM      8  H7  NON d   1      27.552   9.290  15.924  0.00  0.00     0.091 H 
ATOM      9  H8  NON d   1      28.037  10.284  13.458  0.00  0.00     0.090 H 
ENDROOT
BRANCH   1  10
ATOM     10  N1  NON d   1      23.779   9.850  13.406  0.00  0.00    -0.280 N 
ATOM     11  C2  NON d   1      23.739   8.575  12.992  0.00  0.00     0.331 A 
ATOM     12  N3  NON d   1      22.689   8.167  12.305  0.00  0.00    -0.275 N 
ATOM     13  O2  NON d   1      24.601   7.734  13.241  0.00  0.00    -0.246 OA
ATOM     14  C4  NON d   1      21.700   8.962  11.943  0.00  0.00     0.250 A 
ATOM     15  H1  NON d   1      22.640   7.203  12.044  0.00  0.00     0.173 HD
ATOM     16  C5  NON d   1      21.715  10.299  12.343  0.00  0.00    -0.002 A 
ATOM     17  O4  NON d   1      20.828   8.463  11.281  0.00  0.00    -0.268 OA
ATOM     18  C6  NON d   1      22.794  10.757  13.077  0.00  0.00    -0.008 A 
ATOM     19  H2  NON d   1      20.895  10.967  12.083  0.00  0.00     0.094 H 
ATOM     20  H3  NON d   1      22.863  11.799  13.385  0.00  0.00     0.112 H 
ENDBRANCH   1  10
BRANCH   2  21
ATOM     21  O2' NON d   1      24.840  10.423  16.393  0.00  0.00    -0.388 OA
ATOM     22  H6  NON d   1      23.898  10.325  16.317  0.00  0.00     0.210 HD
ENDBRANCH   2  21
BRANCH   3  23
ATOM     23  O3' NON d   1      27.291  11.314  15.534  0.00  0.00    -0.390 OA
ATOM     24  H9  NON d   1      28.202  11.472  15.317  0.00  0.00     0.210 HD
ENDBRANCH   3  23
BRANCH   4  25
ATOM     25  C5' NON d   1      27.619   8.202  13.494  0.00  0.00     0.059 C 
ATOM     26  H10 NON d   1      27.537   8.039  12.409  0.00  0.00     0.079 H 
ATOM     27  H11 NON d   1      26.927   7.528  14.019  0.00  0.00     0.079 H 
BRANCH  25  28
ATOM     28  O5' NON d   1      28.919   7.882  13.885  0.00  0.00    -0.280 OA
BRANCH  28  29
ATOM     29  P   NON d   1      29.609   6.439  13.856  0.00  0.00     0.422 P 
ATOM     30  O1P NON d   1      30.428   6.497  14.993  0.00  0.00    -0.617 OA
ATOM     31  O2P NON d   1      28.545   5.527  13.922  0.00  0.00    -0.617 OA
ATOM     32  O3P NON d   1      30.380   6.369  12.730  0.00  0.00    -0.617 OA
ENDBRANCH  28  29
ENDBRANCH  25  28
ENDBRANCH   4  25
TORSDOF 6
