REMARK  11 active torsions:
REMARK  status: ('A' for Active; 'I' for Inactive)
REMARK    1  A    between atoms: PG_1  and  N3B_5 
REMARK    2  A    between atoms: N3B_5  and  PB_6 
REMARK    3  A    between atoms: PB_6  and  O3A_9 
REMARK    4  A    between atoms: O3A_9  and  PA_10 
REMARK    5  A    between atoms: PA_10  and  O5'_13 
REMARK    6  A    between atoms: O5'_13  and  C5'_14 
REMARK    7  A    between atoms: C5'_14  and  C4'_15 
REMARK    8  A    between atoms: C3'_17  and  O3'_18 
REMARK    9  A    between atoms: C2'_19  and  O2'_20 
REMARK   10  A    between atoms: C1'_21  and  N9_22 
REMARK   11  A    between atoms: C2_29  and  N2_30 
ROOT
ATOM      1  C4' GNP d   1       0.864  48.465  43.060  0.00  0.00     0.089 C 
ATOM      2  O4' GNP d   1       1.786  48.237  44.147  0.00  0.00    -0.353 OA
ATOM      3  C3' GNP d   1      -0.356  47.590  43.323  0.00  0.00     0.091 C 
ATOM      4  C2' GNP d   1      -0.321  47.287  44.772  0.00  0.00     0.105 C 
ATOM      5  C1' GNP d   1       1.197  47.321  45.052  0.00  0.00     0.139 C 
ATOM      6  H4  GNP d   1       1.303  48.180  42.093  0.00  0.00     0.090 H 
ATOM      7  H5  GNP d   1      -1.292  48.071  43.002  0.00  0.00     0.091 H 
ATOM      8  H7  GNP d   1      -0.865  48.044  45.356  0.00  0.00     0.093 H 
ATOM      9  H9  GNP d   1       1.603  46.310  44.901  0.00  0.00     0.122 H 
ENDROOT
BRANCH   1  10
ATOM     10  C5' GNP d   1       0.648  49.940  43.092  0.00  0.00     0.058 C 
ATOM     11  H2  GNP d   1       1.603  50.442  43.307  0.00  0.00     0.079 H 
ATOM     12  H3  GNP d   1       0.272  50.273  42.113  0.00  0.00     0.079 H 
BRANCH  10  13
ATOM     13  O5' GNP d   1      -0.304  50.282  44.105  0.00  0.00    -0.287 OA
BRANCH  13  14
ATOM     14  PA  GNP d   1      -1.053  51.631  43.910  0.00  0.00     0.417 P 
ATOM     15  O1A GNP d   1      -1.691  51.848  45.241  0.00  0.00    -0.624 OA
ATOM     16  O2A GNP d   1      -1.842  51.673  42.665  0.00  0.00    -0.624 OA
BRANCH  14  17
ATOM     17  O3A GNP d   1       0.176  52.658  43.659  0.00  0.00    -0.186 OA
BRANCH  17  18
ATOM     18  PB  GNP d   1      -0.106  54.198  43.285  0.00  0.00     0.379 P 
ATOM     19  O1B GNP d   1       0.998  54.900  43.941  0.00  0.00    -0.629 OA
ATOM     20  O2B GNP d   1      -1.469  54.576  43.803  0.00  0.00    -0.629 OA
BRANCH  18  21
ATOM     21  N3B GNP d   1      -0.087  54.175  41.639  0.00  0.00    -0.218 N 
ATOM     22  H1  GNP d   1       0.345  53.400  41.178  0.00  0.00     0.179 HD
BRANCH  21  23
ATOM     23  PG  GNP d   1      -0.769  55.409  40.687  0.00  0.00     0.381 P 
ATOM     24  O1G GNP d   1      -1.011  54.739  39.363  0.00  0.00    -0.622 OA
ATOM     25  O2G GNP d   1      -2.151  55.740  41.240  0.00  0.00    -0.622 OA
ATOM     26  O3G GNP d   1       0.193  56.540  40.618  0.00  0.00    -0.622 OA
ENDBRANCH  21  23
ENDBRANCH  18  21
ENDBRANCH  17  18
ENDBRANCH  14  17
ENDBRANCH  13  14
ENDBRANCH  10  13
ENDBRANCH   1  10
BRANCH   3  27
ATOM     27  O3' GNP d   1      -0.149  46.321  42.703  0.00  0.00    -0.390 OA
ATOM     28  H6  GNP d   1      -0.904  45.766  42.860  0.00  0.00     0.210 HD
ENDBRANCH   3  27
BRANCH   5  29
ATOM     29  N9  GNP d   1       1.578  47.791  46.362  0.00  0.00    -0.295 N 
ATOM     30  C8  GNP d   1       1.370  49.036  46.916  0.00  0.00     0.071 A 
ATOM     31  N7  GNP d   1       1.833  49.156  48.132  0.00  0.00    -0.234 NA
ATOM     32  H10 GNP d   1       0.866  49.845  46.389  0.00  0.00     0.144 H 
ATOM     33  C5  GNP d   1       2.412  47.906  48.346  0.00  0.00     0.171 A 
ATOM     34  C6  GNP d   1       3.095  47.453  49.493  0.00  0.00     0.292 A 
ATOM     35  C4  GNP d   1       2.257  47.064  47.295  0.00  0.00     0.161 A 
ATOM     36  O6  GNP d   1       3.345  48.036  50.568  0.00  0.00    -0.265 OA
ATOM     37  N1  GNP d   1       3.482  46.118  49.296  0.00  0.00    -0.154 N 
ATOM     38  C2  GNP d   1       3.288  45.343  48.197  0.00  0.00     0.680 A 
ATOM     39  H11 GNP d   1       3.960  45.683  50.059  0.00  0.00     0.187 HD
ATOM     40  N3  GNP d   1       2.678  45.790  47.121  0.00  0.00    -0.174 N 
ATOM     41  H14 GNP d   1       2.539  45.242  46.260  0.00  0.00     0.186 HD
BRANCH  38  42
ATOM     42  N2  GNP d   1       3.768  44.088  48.249  0.00  0.00    -0.234 N 
ATOM     43  H12 GNP d   1       3.649  43.457  47.444  0.00  0.00     0.174 HD
ATOM     44  H13 GNP d   1       4.255  43.758  49.094  0.00  0.00     0.174 HD
ENDBRANCH  38  42
ENDBRANCH   5  29
BRANCH   4  45
ATOM     45  O2' GNP d   1      -0.835  46.000  45.057  0.00  0.00    -0.388 OA
ATOM     46  H8  GNP d   1      -0.316  45.346  44.604  0.00  0.00     0.210 HD
ENDBRANCH   4  45
TORSDOF 11
