REMARK  5 active torsions:
REMARK  status: ('A' for Active; 'I' for Inactive)
REMARK    1  A    between atoms: C21_8  and  N22_9 
REMARK    2  A    between atoms: N22_9  and  C23_10 
REMARK    3  A    between atoms: C26_13  and  O27_14 
REMARK    4  A    between atoms: O27_14  and  C28_15 
REMARK    5  A    between atoms: C28_15  and  C29_16 
ROOT
ATOM      1  C23 FMM d   1     -38.157  50.566  15.528  0.00  0.00     0.035 A 
ATOM      2  C24 FMM d   1     -36.988  49.807  15.543  0.00  0.00    -0.054 A 
ATOM      3  C25 FMM d   1     -35.746  50.442  15.529  0.00  0.00    -0.047 A 
ATOM      4  C26 FMM d   1     -35.663  51.838  15.507  0.00  0.00     0.091 A 
ATOM      5  C36 FMM d   1     -36.827  52.595  15.493  0.00  0.00     0.069 A 
ATOM      6 CL3  FMM d   1     -36.732  54.390  15.460  0.00  0.00    -0.081 Cl
ATOM      7  C38 FMM d   1     -38.070  51.961  15.508  0.00  0.00    -0.034 A 
ATOM      8  H6  FMM d   1     -37.044  48.725  15.566  0.00  0.00     0.087 H 
ATOM      9  H7  FMM d   1     -34.839  49.849  15.535  0.00  0.00     0.087 H 
ATOM     10  H14 FMM d   1     -38.976  52.556  15.504  0.00  0.00     0.089 H 
ENDROOT
BRANCH   1  11
ATOM     11  N22 FMM d   1     -39.409  49.924  15.549  0.00  0.00    -0.340 N 
ATOM     12  H5  FMM d   1     -39.678  49.412  16.401  0.00  0.00     0.167 HD
BRANCH  11  13
ATOM     13  C21 FMM d   1     -40.288  49.941  14.504  0.00  0.00     0.142 A 
ATOM     14  N20 FMM d   1     -39.996  50.598  13.352  0.00  0.00    -0.224 NA
ATOM     15  C19 FMM d   1     -40.859  50.619  12.322  0.00  0.00     0.089 A 
ATOM     16  N18 FMM d   1     -42.042  49.988  12.397  0.00  0.00    -0.241 NA
ATOM     17  H4  FMM d   1     -40.596  51.154  11.416  0.00  0.00     0.146 H 
ATOM     18  C17 FMM d   1     -42.392  49.315  13.518  0.00  0.00     0.072 A 
ATOM     19  C16 FMM d   1     -43.624  48.664  13.586  0.00  0.00    -0.054 A 
ATOM     20  C39 FMM d   1     -41.514  49.277  14.605  0.00  0.00     0.039 A 
ATOM     21  C15 FMM d   1     -43.982  47.969  14.741  0.00  0.00    -0.081 A 
ATOM     22  H3  FMM d   1     -44.303  48.698  12.742  0.00  0.00     0.087 H 
ATOM     23  C14 FMM d   1     -43.107  47.930  15.828  0.00  0.00    -0.082 A 
ATOM     24  H2  FMM d   1     -44.938  47.460  14.794  0.00  0.00     0.083 H 
ATOM     25  C40 FMM d   1     -41.875  48.582  15.763  0.00  0.00    -0.067 A 
ATOM     26  H1  FMM d   1     -43.386  47.391  16.726  0.00  0.00     0.083 H 
ATOM     27  H15 FMM d   1     -41.199  48.550  16.610  0.00  0.00     0.085 H 
ENDBRANCH  11  13
ENDBRANCH   1  11
BRANCH   4  28
ATOM     28  O27 FMM d   1     -34.446  52.478  15.485  0.00  0.00    -0.345 OA
BRANCH  28  29
ATOM     29  C28 FMM d   1     -33.419  52.222  16.444  0.00  0.00     0.050 C 
ATOM     30  H8  FMM d   1     -33.715  51.372  17.076  0.00  0.00     0.082 H 
ATOM     31  H9  FMM d   1     -33.277  53.114  17.072  0.00  0.00     0.082 H 
BRANCH  29  32
ATOM     32  C29 FMM d   1     -32.119  51.893  15.740  0.00  0.00    -0.031 A 
ATOM     33  C30 FMM d   1     -31.875  52.343  14.440  0.00  0.00    -0.075 A 
ATOM     34  C31 FMM d   1     -30.675  52.034  13.801  0.00  0.00    -0.080 A 
ATOM     35  H10 FMM d   1     -32.623  52.936  13.925  0.00  0.00     0.084 H 
ATOM     36  C32 FMM d   1     -29.712  51.273  14.462  0.00  0.00    -0.046 A 
ATOM     37  H11 FMM d   1     -30.491  52.385  12.792  0.00  0.00     0.083 H 
ATOM     38  C33 FMM d   1     -29.953  50.823  15.759  0.00  0.00     0.117 A 
ATOM     39  H12 FMM d   1     -28.778  51.032  13.968  0.00  0.00     0.088 H 
ATOM     40  F34 FMM d   1     -29.024  50.090  16.396  0.00  0.00    -0.206 F 
ATOM     41  C35 FMM d   1     -31.152  51.134  16.398  0.00  0.00    -0.038 A 
ATOM     42  H13 FMM d   1     -31.333  50.785  17.408  0.00  0.00     0.089 H 
ENDBRANCH  29  32
ENDBRANCH  28  29
ENDBRANCH   4  28
TORSDOF 5
