REMARK  23 active torsions:
REMARK  status: ('A' for Active; 'I' for Inactive)
REMARK    1  A    between atoms: C2_2  and  C1_1 
REMARK    2  A    between atoms: C1_1  and  C7_3 
REMARK       I    between atoms: N16_26  and  C2_2 
REMARK    3  A    between atoms: C4_23  and  C12_8 
REMARK    4  A    between atoms: C17_27  and  C20_12 
REMARK    5  A    between atoms: C20_12  and  SG2_30 
REMARK    6  A    between atoms: SG2_30  and  C22_13 
REMARK    7  A    between atoms: C22_13  and  C23_31 
REMARK    8  A    between atoms: C30_17  and  N29_16 
REMARK       I    between atoms: N29_16  and  C18_28 
REMARK    9  A    between atoms: C30_17  and  C31_18 
REMARK   10  A    between atoms: C38_38  and  C30_17 
REMARK   11  A    between atoms: C31_18  and  C32_19 
REMARK   12  A    between atoms: C32_19  and  C33_20 
REMARK   13  A    between atoms: C33_20  and  N34_35 
REMARK       I    between atoms: N34_35  and  C35_21 
REMARK       I    between atoms: C35_21  and  N36_36 
REMARK   14  A    between atoms: C17_27  and  N16_26 
REMARK   15  A    between atoms: C18_28  and  C17_27 
REMARK       I    between atoms: N40_40  and  C38_38 
REMARK   16  A    between atoms: C41_41  and  N40_40 
REMARK   17  A    between atoms: C42_42  and  C41_41 
REMARK   18  A    between atoms: C41_41  and  C44_44 
REMARK       I    between atoms: N60_60  and  C42_42 
REMARK   19  A    between atoms: C44_44  and  C45_45 
REMARK   20  A    between atoms: C50_50  and  O51_51 
REMARK   21  A    between atoms: C58_58  and  C52_52 
REMARK   22  A    between atoms: C59_59  and  C58_58 
REMARK   23  A    between atoms: C59_59  and  N60_60 
ROOT
ATOM      1  C30 OPT d   1     -16.239   7.256   8.224  0.00  0.00     0.092 C 
ATOM      2  H21 OPT d   1     -17.227   7.716   8.073  0.00  0.00     0.088 H 
ENDROOT
BRANCH   1   3
ATOM      3  N29 OPT d   1     -16.337   5.916   7.818  0.00  0.00    -0.346 N 
ATOM      4  C18 OPT d   1     -16.810   5.470   6.434  0.00  0.00     0.241 C 
ATOM      5  O19 OPT d   1     -17.154   6.298   5.533  0.00  0.00    -0.271 OA
ATOM      6  H20 OPT d   1     -16.081   5.208   8.476  0.00  0.00     0.163 HD
BRANCH   4   7
ATOM      7  C17 OPT d   1     -16.807   3.985   6.320  0.00  0.00     0.097 C 
ATOM      8  H29 OPT d   1     -17.092   3.518   7.274  0.00  0.00     0.088 H 
BRANCH   7   9
ATOM      9  C20 OPT d   1     -15.522   3.336   5.770  0.00  0.00     0.004 C 
ATOM     10  H14 OPT d   1     -14.682   3.631   6.417  0.00  0.00     0.052 H 
ATOM     11  H15 OPT d   1     -15.352   3.717   4.752  0.00  0.00     0.052 H 
BRANCH   9  12
ATOM     12  SG2 OPT d   1     -15.575   1.571   5.700  0.00  0.00    -0.162 SA
BRANCH  12  13
ATOM     13  C22 OPT d   1     -14.337   0.943   4.647  0.00  0.00     0.001 C 
ATOM     14  H16 OPT d   1     -14.525  -0.140   4.609  0.00  0.00     0.056 H 
ATOM     15  H17 OPT d   1     -13.393   1.133   5.179  0.00  0.00     0.056 H 
BRANCH  13  16
ATOM     16  C23 OPT d   1     -14.048   1.348   3.170  0.00  0.00    -0.049 A 
ATOM     17  C24 OPT d   1     -14.941   0.971   2.136  0.00  0.00    -0.076 A 
ATOM     18  C26 OPT d   1     -14.682   1.345   0.776  0.00  0.00    -0.082 A 
ATOM     19  H18 OPT d   1     -15.828   0.395   2.375  0.00  0.00     0.084 H 
ATOM     20  C28 OPT d   1     -13.514   2.107   0.441  0.00  0.00    -0.083 A 
ATOM     21  H31 OPT d   1     -15.374   1.050  -0.004  0.00  0.00     0.083 H 
ATOM     22  C27 OPT d   1     -12.593   2.503   1.473  0.00  0.00    -0.082 A 
ATOM     23  H32 OPT d   1     -13.325   2.385  -0.590  0.00  0.00     0.083 H 
ATOM     24  C25 OPT d   1     -12.855   2.129   2.826  0.00  0.00    -0.076 A 
ATOM     25  H19 OPT d   1     -11.709   3.080   1.226  0.00  0.00     0.083 H 
ATOM     26  H30 OPT d   1     -12.165   2.425   3.607  0.00  0.00     0.084 H 
ENDBRANCH  13  16
ENDBRANCH  12  13
ENDBRANCH   9  12
ENDBRANCH   7   9
BRANCH   7  27
ATOM     27  N16 OPT d   1     -17.791   3.788   5.254  0.00  0.00    -0.347 N 
ATOM     28  C2  OPT d   1     -18.843   2.660   5.405  0.00  0.00     0.222 C 
ATOM     29  O3  OPT d   1     -18.950   1.865   6.367  0.00  0.00    -0.273 OA
ATOM     30  H28 OPT d   1     -17.784   4.372   4.442  0.00  0.00     0.163 HD
BRANCH  28  31
ATOM     31  C1  OPT d   1     -19.777   2.543   4.296  0.00  0.00     0.033 C 
ATOM     32  H1  OPT d   1     -19.365   3.176   3.497  0.00  0.00     0.054 H 
ATOM     33  H2  OPT d   1     -20.720   2.977   4.659  0.00  0.00     0.054 H 
BRANCH  31  34
ATOM     34  C7  OPT d   1     -20.160   1.251   3.628  0.00  0.00    -0.049 A 
ATOM     35  C8  OPT d   1     -19.143   0.674   2.716  0.00  0.00    -0.076 A 
ATOM     36  C9  OPT d   1     -19.419  -0.577   2.043  0.00  0.00    -0.076 A 
ATOM     37  H3  OPT d   1     -18.201   1.185   2.555  0.00  0.00     0.084 H 
ATOM     38  C4  OPT d   1     -20.728  -1.321   2.245  0.00  0.00    -0.050 A 
ATOM     39  H4  OPT d   1     -18.672  -0.994   1.377  0.00  0.00     0.084 H 
ATOM     40  C5  OPT d   1     -21.788  -0.731   3.186  0.00  0.00    -0.076 A 
ATOM     41  C6  OPT d   1     -21.507   0.546   3.875  0.00  0.00    -0.076 A 
ATOM     42  H26 OPT d   1     -22.730  -1.244   3.343  0.00  0.00     0.084 H 
ATOM     43  H27 OPT d   1     -22.239   0.981   4.545  0.00  0.00     0.084 H 
BRANCH  38  44
ATOM     44  C12 OPT d   1     -20.938  -2.604   1.519  0.00  0.00    -0.013 A 
ATOM     45  C11 OPT d   1     -21.285  -3.864   2.318  0.00  0.00    -0.098 A 
ATOM     46  C13 OPT d   1     -21.481  -5.129   1.571  0.00  0.00    -0.106 A 
ATOM     47  H7  OPT d   1     -21.385  -3.831   3.402  0.00  0.00     0.077 H 
ATOM     48  C10 OPT d   1     -21.349  -5.219   0.038  0.00  0.00    -0.050 A 
ATOM     49  H9  OPT d   1     -21.728  -6.032   2.128  0.00  0.00     0.076 H 
ATOM     50  C15 OPT d   1     -21.010  -3.968  -0.736  0.00  0.00    -0.061 A 
ATOM     51  H5  OPT d   1     -22.311  -5.588  -0.348  0.00  0.00     0.038 H 
ATOM     52  H6  OPT d   1     -20.561  -5.956  -0.176  0.00  0.00     0.038 H 
ATOM     53  C14 OPT d   1     -20.803  -2.663  -0.014  0.00  0.00    -0.055 A 
ATOM     54  H12 OPT d   1     -21.829  -3.807  -1.452  0.00  0.00     0.033 H 
ATOM     55  H13 OPT d   1     -20.080  -4.177  -1.284  0.00  0.00     0.033 H 
ATOM     56  H10 OPT d   1     -19.785  -2.323  -0.257  0.00  0.00     0.034 H 
ATOM     57  H11 OPT d   1     -21.535  -1.952  -0.425  0.00  0.00     0.034 H 
ATOM     58  H8  OPT d   1     -22.008  -2.373   1.413  0.00  0.00     0.053 H 
ENDBRANCH  38  44
ENDBRANCH  31  34
ENDBRANCH  28  31
ENDBRANCH   7  27
ENDBRANCH   4   7
ENDBRANCH   1   3
BRANCH   1  59
ATOM     59  C31 OPT d   1     -15.092   8.089   7.439  0.00  0.00    -0.021 C 
ATOM     60  H22 OPT d   1     -14.882   8.983   8.045  0.00  0.00     0.042 H 
ATOM     61  H23 OPT d   1     -15.527   8.393   6.476  0.00  0.00     0.042 H 
BRANCH  59  62
ATOM     62  C32 OPT d   1     -13.688   7.421   7.113  0.00  0.00    -0.085 C 
ATOM     63  H24 OPT d   1     -13.536   6.405   6.752  0.00  0.00     0.079 H 
BRANCH  62  64
ATOM     64  C33 OPT d   1     -12.625   8.409   7.382  0.00  0.00    -0.009 C 
ATOM     65  H25 OPT d   1     -12.922   9.383   7.769  0.00  0.00     0.111 H 
BRANCH  64  66
ATOM     66  N34 OPT d   1     -11.276   8.181   7.176  0.00  0.00    -0.203 N 
ATOM     67  C35 OPT d   1     -10.188   7.742   7.924  0.00  0.00     0.669 C 
ATOM     68  N36 OPT d   1     -10.094   7.768   9.285  0.00  0.00    -0.235 N 
ATOM     69  N37 OPT d   1      -9.078   7.238   7.316  0.00  0.00    -0.235 N 
ATOM     70  H34 OPT d   1      -9.243   7.419   9.749  0.00  0.00     0.174 HD
ATOM     71  H35 OPT d   1     -10.874   8.137   9.848  0.00  0.00     0.174 HD
ATOM     72  H36 OPT d   1      -9.039   7.171   6.289  0.00  0.00     0.174 HD
ATOM     73  H37 OPT d   1      -8.278   6.924   7.883  0.00  0.00     0.174 HD
ATOM     74  H33 OPT d   1     -11.003   8.394   6.206  0.00  0.00     0.183 HD
ENDBRANCH  64  66
ENDBRANCH  62  64
ENDBRANCH  59  62
ENDBRANCH   1  59
BRANCH   1  75
ATOM     75  C38 OPT d   1     -15.783   7.485   9.585  0.00  0.00     0.241 C 
ATOM     76  O39 OPT d   1     -16.119   8.587  10.086  0.00  0.00    -0.271 OA
ATOM     77  N40 OPT d   1     -15.058   6.559  10.160  0.00  0.00    -0.346 N 
ATOM     78  H38 OPT d   1     -14.844   5.702   9.691  0.00  0.00     0.163 HD
BRANCH  77  79
ATOM     79  C41 OPT d   1     -14.602   6.810  11.434  0.00  0.00     0.093 C 
ATOM     80  H39 OPT d   1     -15.370   7.370  11.988  0.00  0.00     0.088 H 
BRANCH  79  81
ATOM     81  C42 OPT d   1     -13.294   7.673  11.311  0.00  0.00     0.240 C 
ATOM     82  O43 OPT d   1     -12.380   7.244  10.565  0.00  0.00    -0.271 OA
ATOM     83  N60 OPT d   1     -13.381   8.887  12.178  0.00  0.00    -0.359 N 
ATOM     84  H56 OPT d   1     -14.193   9.095  12.724  0.00  0.00     0.162 HD
BRANCH  83  85
ATOM     85  C59 OPT d   1     -12.121   9.809  12.176  0.00  0.00    -0.001 C 
ATOM     86  H54 OPT d   1     -11.917  10.198  13.184  0.00  0.00     0.064 H 
ATOM     87  H55 OPT d   1     -11.238   9.267  11.807  0.00  0.00     0.064 H 
BRANCH  85  88
ATOM     88  C58 OPT d   1     -12.495  10.905  11.251  0.00  0.00    -0.026 C 
ATOM     89  H52 OPT d   1     -11.578  11.496  11.108  0.00  0.00     0.042 H 
ATOM     90  H53 OPT d   1     -12.765  10.413  10.305  0.00  0.00     0.042 H 
BRANCH  88  91
ATOM     91  C52 OPT d   1     -13.578  11.903  11.506  0.00  0.00    -0.057 A 
ATOM     92  C53 OPT d   1     -13.710  12.580  12.873  0.00  0.00    -0.077 A 
ATOM     93  C54 OPT d   1     -14.794  13.559  13.080  0.00  0.00    -0.082 A 
ATOM     94  H47 OPT d   1     -13.019  12.344  13.674  0.00  0.00     0.084 H 
ATOM     95  C55 OPT d   1     -15.732  13.868  11.969  0.00  0.00    -0.083 A 
ATOM     96  H48 OPT d   1     -14.906  14.051  14.039  0.00  0.00     0.083 H 
ATOM     97  C56 OPT d   1     -15.598  13.209  10.652  0.00  0.00    -0.082 A 
ATOM     98  H49 OPT d   1     -16.527  14.588  12.127  0.00  0.00     0.083 H 
ATOM     99  C57 OPT d   1     -14.528  12.229  10.409  0.00  0.00    -0.077 A 
ATOM    100  H50 OPT d   1     -16.295  13.450   9.858  0.00  0.00     0.083 H 
ATOM    101  H51 OPT d   1     -14.433  11.750   9.441  0.00  0.00     0.084 H 
ENDBRANCH  88  91
ENDBRANCH  85  88
ENDBRANCH  83  85
ENDBRANCH  79  81
BRANCH  79 102
ATOM    102  C44 OPT d   1     -14.253   5.469  12.240  0.00  0.00    -0.014 C 
ATOM    103  H40 OPT d   1     -13.495   4.901  11.680  0.00  0.00     0.043 H 
ATOM    104  H41 OPT d   1     -15.166   4.863  12.340  0.00  0.00     0.043 H 
BRANCH 102 105
ATOM    105  C45 OPT d   1     -13.698   5.791  13.663  0.00  0.00    -0.056 A 
ATOM    106  C46 OPT d   1     -14.620   5.929  14.806  0.00  0.00    -0.074 A 
ATOM    107  C48 OPT d   1     -14.090   6.238  16.120  0.00  0.00    -0.051 A 
ATOM    108  H42 OPT d   1     -15.687   5.800  14.665  0.00  0.00     0.084 H 
ATOM    109  C50 OPT d   1     -12.637   6.413  16.300  0.00  0.00     0.065 A 
ATOM    110  H44 OPT d   1     -14.759   6.340  16.966  0.00  0.00     0.087 H 
ATOM    111  C49 OPT d   1     -11.707   6.279  15.185  0.00  0.00    -0.051 A 
ATOM    112  C47 OPT d   1     -12.218   5.971  13.876  0.00  0.00    -0.074 A 
ATOM    113  H45 OPT d   1     -10.642   6.410  15.341  0.00  0.00     0.087 H 
ATOM    114  H43 OPT d   1     -11.536   5.868  13.040  0.00  0.00     0.084 H 
BRANCH 109 115
ATOM    115  O51 OPT d   1     -12.145   6.704  17.512  0.00  0.00    -0.361 OA
ATOM    116  H46 OPT d   1     -11.688   7.536  17.476  0.00  0.00     0.217 HD
ENDBRANCH 109 115
ENDBRANCH 102 105
ENDBRANCH  79 102
ENDBRANCH  77  79
ENDBRANCH   1  75
TORSDOF 23
