REMARK  6 active torsions:
REMARK  status: ('A' for Active; 'I' for Inactive)
REMARK    1  A    between atoms: C5_3  and  N1_1 
REMARK    2  A    between atoms: C4_2  and  C5_3 
REMARK    3  A    between atoms: O6_10  and  C4_2 
REMARK    4  A    between atoms: C6_4  and  C7_5 
REMARK    5  A    between atoms: C15_8  and  C6_4 
REMARK    6  A    between atoms: C7_5  and  O6_10 
ROOT
ATOM      1  C10 LLG d   1      12.398   9.294  -2.608  0.00  0.00    -0.082 A 
ATOM      2  C13 LLG d   1      11.214  10.463  -4.983  0.00  0.00    -0.025 A 
ATOM      3  C15 LLG d   1       9.302   8.859  -4.897  0.00  0.00    -0.038 C 
ATOM      4  C17 LLG d   1       9.410  10.612  -6.684  0.00  0.00    -0.082 C 
ATOM      5  C16 LLG d   1       8.725   9.487  -6.014  0.00  0.00    -0.075 C 
ATOM      6  C18 LLG d   1      10.636  11.061  -6.204  0.00  0.00    -0.072 C 
ATOM      7  C14 LLG d   1      10.532   9.443  -4.282  0.00  0.00    -0.019 A 
ATOM      8  C9  LLG d   1      11.181   8.803  -3.110  0.00  0.00    -0.072 A 
ATOM      9  C11 LLG d   1      13.061  10.418  -3.306  0.00  0.00    -0.082 A 
ATOM     10  C12 LLG d   1      12.496  10.991  -4.449  0.00  0.00    -0.072 A 
ATOM     11  H10 LLG d   1      12.845   8.856  -1.723  0.00  0.00     0.083 H 
ATOM     12  H11 LLG d   1       8.958  11.086  -7.548  0.00  0.00     0.083 H 
ATOM     13  H12 LLG d   1       7.768   9.143  -6.388  0.00  0.00     0.084 H 
ATOM     14  H13 LLG d   1      11.167  11.849  -6.726  0.00  0.00     0.084 H 
ATOM     15  H14 LLG d   1      10.711   7.948  -2.637  0.00  0.00     0.084 H 
ATOM     16  H15 LLG d   1      14.000  10.803  -2.925  0.00  0.00     0.083 H 
ATOM     17  H16 LLG d   1      12.992  11.818  -4.944  0.00  0.00     0.084 H 
ENDROOT
BRANCH   3  18
ATOM     18  C6  LLG d   1       8.556   7.754  -4.118  0.00  0.00     0.040 C 
ATOM     19  H8  LLG d   1       7.696   7.416  -4.715  0.00  0.00     0.055 H 
ATOM     20  H9  LLG d   1       9.242   6.910  -3.953  0.00  0.00     0.055 H 
BRANCH  18  21
ATOM     21  C7  LLG d   1       8.053   8.252  -2.768  0.00  0.00     0.263 C 
ATOM     22  O8  LLG d   1       7.975   9.452  -2.581  0.00  0.00    -0.265 OA
BRANCH  21  23
ATOM     23  O6  LLG d   1       7.693   7.425  -1.770  0.00  0.00    -0.320 OA
BRANCH  23  24
ATOM     24  C4  LLG d   1       7.189   7.965  -0.542  0.00  0.00     0.051 C 
ATOM     25  H4  LLG d   1       7.803   7.641   0.311  0.00  0.00     0.077 H 
ATOM     26  H5  LLG d   1       7.161   9.064  -0.578  0.00  0.00     0.077 H 
BRANCH  24  27
ATOM     27  C5  LLG d   1       5.779   7.385  -0.452  0.00  0.00     0.100 C 
ATOM     28  H6  LLG d   1       5.169   7.942   0.275  0.00  0.00     0.078 H 
ATOM     29  H7  LLG d   1       5.283   7.399  -1.434  0.00  0.00     0.078 H 
BRANCH  27  30
ATOM     30  N1  LLG d   1       6.010   6.010   0.000  0.00  0.00    -0.077 N 
ATOM     31  H1  LLG d   1       5.126   5.534   0.092  0.00  0.00     0.274 HD
ATOM     32  H2  LLG d   1       6.479   6.024   0.892  0.00  0.00     0.274 HD
ATOM     33  H3  LLG d   1       6.583   5.527  -0.673  0.00  0.00     0.274 HD
ENDBRANCH  27  30
ENDBRANCH  24  27
ENDBRANCH  23  24
ENDBRANCH  21  23
ENDBRANCH  18  21
ENDBRANCH   3  18
TORSDOF 6
