REMARK  11 active torsions:
REMARK  status: ('A' for Active; 'I' for Inactive)
REMARK    1  A    between atoms: C13_1  and  C3_17 
REMARK    2  A    between atoms: C14_25  and  C13_1 
REMARK    3  A    between atoms: C16_4  and  O15_26 
REMARK    4  A    between atoms: C22_8  and  C20_6 
REMARK    5  A    between atoms: C23_9  and  C22_8 
REMARK    6  A    between atoms: C24_10  and  C34_13 
REMARK    7  A    between atoms: C34_13  and  C35_35 
REMARK    8  A    between atoms: C2_16  and  C1_15 
REMARK    9  A    between atoms: C5_19  and  C7_21 
REMARK   10  A    between atoms: O15_26  and  C14_25 
REMARK   11  A    between atoms: N26_28  and  C28_30 
ROOT
ATOM      1  C18 ZAA d   1      54.603  29.483   5.967  0.00  0.00    -0.080 A 
ATOM      2  C17 ZAA d   1      54.927  28.134   5.848  0.00  0.00    -0.051 A 
ATOM      3  C16 ZAA d   1      56.223  27.689   6.118  0.00  0.00     0.069 A 
ATOM      4  C19 ZAA d   1      55.581  30.398   6.367  0.00  0.00    -0.076 A 
ATOM      5  C20 ZAA d   1      56.894  30.013   6.645  0.00  0.00    -0.050 A 
ATOM      6  C21 ZAA d   1      57.154  28.649   6.509  0.00  0.00    -0.044 A 
ATOM      7  H3  ZAA d   1      53.596  29.822   5.750  0.00  0.00     0.083 H 
ATOM      8  H4  ZAA d   1      54.167  27.424   5.543  0.00  0.00     0.087 H 
ATOM      9  H5  ZAA d   1      55.311  31.443   6.465  0.00  0.00     0.084 H 
ATOM     10  H6  ZAA d   1      58.160  28.309   6.725  0.00  0.00     0.088 H 
ENDROOT
BRANCH   3  11
ATOM     11  O15 ZAA d   1      56.673  26.441   6.043  0.00  0.00    -0.351 OA
BRANCH  11  12
ATOM     12  C14 ZAA d   1      55.801  25.424   5.506  0.00  0.00     0.031 C 
ATOM     13  H20 ZAA d   1      54.905  25.358   6.141  0.00  0.00     0.075 H 
ATOM     14  H21 ZAA d   1      55.508  25.715   4.486  0.00  0.00     0.075 H 
BRANCH  12  15
ATOM     15  C13 ZAA d   1      56.457  24.059   5.451  0.00  0.00    -0.002 C 
ATOM     16  H1  ZAA d   1      56.851  23.812   6.448  0.00  0.00     0.045 H 
ATOM     17  H2  ZAA d   1      55.704  23.312   5.159  0.00  0.00     0.045 H 
BRANCH  15  18
ATOM     18  C3  ZAA d   1      57.599  24.027   4.446  0.00  0.00     0.068 A 
ATOM     19  C2  ZAA d   1      58.990  24.113   4.559  0.00  0.00     0.076 A 
ATOM     20  O6  ZAA d   1      59.484  24.019   3.357  0.00  0.00    -0.294 OA
ATOM     21  C5  ZAA d   1      58.559  23.880   2.452  0.00  0.00     0.180 A 
ATOM     22  N4  ZAA d   1      57.381  23.872   3.114  0.00  0.00    -0.226 NA
BRANCH  19  23
ATOM     23  C1  ZAA d   1      59.898  24.301   5.760  0.00  0.00    -0.029 C 
ATOM     24  H14 ZAA d   1      60.947  24.317   5.428  0.00  0.00     0.036 H 
ATOM     25  H15 ZAA d   1      59.749  23.470   6.466  0.00  0.00     0.036 H 
ATOM     26  H16 ZAA d   1      59.656  25.252   6.257  0.00  0.00     0.036 H 
ENDBRANCH  19  23
BRANCH  21  27
ATOM     27  C7  ZAA d   1      58.560  23.701   0.969  0.00  0.00     0.017 A 
ATOM     28  C12 ZAA d   1      57.325  23.666   0.302  0.00  0.00    -0.069 A 
ATOM     29  C11 ZAA d   1      57.296  23.469  -1.083  0.00  0.00    -0.082 A 
ATOM     30  H10 ZAA d   1      56.401  23.791   0.856  0.00  0.00     0.085 H 
ATOM     31  C10 ZAA d   1      58.515  23.307  -1.780  0.00  0.00    -0.083 A 
ATOM     32  H9  ZAA d   1      56.352  23.441  -1.614  0.00  0.00     0.083 H 
ATOM     33  C9  ZAA d   1      59.742  23.328  -1.108  0.00  0.00    -0.082 A 
ATOM     34  H19 ZAA d   1      58.499  23.164  -2.854  0.00  0.00     0.083 H 
ATOM     35  C8  ZAA d   1      59.774  23.527   0.276  0.00  0.00    -0.069 A 
ATOM     36  H18 ZAA d   1      60.666  23.190  -1.659  0.00  0.00     0.083 H 
ATOM     37  H17 ZAA d   1      60.719  23.547   0.807  0.00  0.00     0.085 H 
ENDBRANCH  21  27
ENDBRANCH  15  18
ENDBRANCH  12  15
ENDBRANCH  11  12
ENDBRANCH   3  11
BRANCH   5  38
ATOM     38  C22 ZAA d   1      58.015  30.963   7.074  0.00  0.00     0.003 C 
ATOM     39  H7  ZAA d   1      58.385  30.665   8.066  0.00  0.00     0.049 H 
ATOM     40  H8  ZAA d   1      57.624  31.990   7.122  0.00  0.00     0.049 H 
BRANCH  38  41
ATOM     41  C23 ZAA d   1      59.147  30.907   6.082  0.00  0.00     0.088 A 
ATOM     42  C24 ZAA d   1      59.335  31.531   4.846  0.00  0.00     0.093 A 
ATOM     43  N25 ZAA d   1      60.507  31.088   4.375  0.00  0.00    -0.152 NA
ATOM     44  N26 ZAA d   1      61.084  30.248   5.229  0.00  0.00    -0.150 N 
ATOM     45  N27 ZAA d   1      60.244  30.144   6.241  0.00  0.00    -0.152 NA
BRANCH  42  46
ATOM     46  C34 ZAA d   1      58.523  32.504   4.022  0.00  0.00     0.059 C 
ATOM     47  H11 ZAA d   1      57.493  32.129   3.933  0.00  0.00     0.058 H 
ATOM     48  H12 ZAA d   1      58.970  32.589   3.021  0.00  0.00     0.058 H 
BRANCH  46  49
ATOM     49  C35 ZAA d   1      58.498  33.869   4.670  0.00  0.00     0.178 C 
ATOM     50  O36 ZAA d   1      57.633  34.682   4.383  0.00  0.00    -0.648 OA
ATOM     51  O37 ZAA d   1      59.414  34.246   5.571  0.00  0.00    -0.648 OA
ENDBRANCH  46  49
ENDBRANCH  42  46
BRANCH  44  52
ATOM     52  C28 ZAA d   1      62.228  29.541   5.119  0.00  0.00     0.079 A 
ATOM     53  C33 ZAA d   1      62.400  28.465   5.984  0.00  0.00    -0.053 A 
ATOM     54  C32 ZAA d   1      63.551  27.690   5.868  0.00  0.00    -0.081 A 
ATOM     55  H13 ZAA d   1      61.652  28.234   6.734  0.00  0.00     0.087 H 
ATOM     56  C31 ZAA d   1      64.496  27.979   4.880  0.00  0.00    -0.083 A 
ATOM     57  H25 ZAA d   1      63.714  26.860   6.546  0.00  0.00     0.083 H 
ATOM     58  C30 ZAA d   1      64.295  29.047   4.007  0.00  0.00    -0.081 A 
ATOM     59  H24 ZAA d   1      65.389  27.370   4.792  0.00  0.00     0.083 H 
ATOM     60  C29 ZAA d   1      63.151  29.835   4.109  0.00  0.00    -0.053 A 
ATOM     61  H23 ZAA d   1      65.034  29.266   3.244  0.00  0.00     0.083 H 
ATOM     62  H22 ZAA d   1      62.980  30.656   3.422  0.00  0.00     0.087 H 
ENDBRANCH  44  52
ENDBRANCH  38  41
ENDBRANCH   5  38
TORSDOF 11
