REMARK  15 active torsions:
REMARK  status: ('A' for Active; 'I' for Inactive)
REMARK    1  A    between atoms: C1_1  and  C2_4 
REMARK    2  A    between atoms: C2_4  and  C3_5 
REMARK    3  A    between atoms: C3_5  and  O3_6 
REMARK    4  A    between atoms: C3_5  and  C4_7 
REMARK       I    between atoms: C4_7  and  N1_9 
REMARK    5  A    between atoms: N1_9  and  C6_10 
REMARK    6  A    between atoms: C6_10  and  C7_11 
REMARK    7  A    between atoms: C6_10  and  C11_15 
REMARK    8  A    between atoms: C7_11  and  C8_12 
REMARK    9  A    between atoms: C8_12  and  C9_13 
REMARK   10  A    between atoms: C8_12  and  C10_14 
REMARK       I    between atoms: C11_15  and  N2_17 
REMARK   11  A    between atoms: N2_17  and  C12_18 
REMARK   12  A    between atoms: C12_18  and  C13_19 
REMARK   13  A    between atoms: C13_19  and  C14_20 
REMARK   14  A    between atoms: C14_20  and  C15_21 
REMARK   15  A    between atoms: C15_21  and  N3_22 
REMARK       I    between atoms: N3_22  and  C16_23 
REMARK       I    between atoms: C16_23  and  N4_24 
ROOT
ATOM      1  C6  E64 d   1      -2.903  -4.576  23.138  0.00  0.00     0.089 C 
ATOM      2  H6  E64 d   1      -2.885  -4.404  24.224  0.00  0.00     0.087 H 
ENDROOT
BRANCH   1   3
ATOM      3  N1  E64 d   1      -2.164  -5.793  22.835  0.00  0.00    -0.346 N 
ATOM      4  C4  E64 d   1      -1.832  -6.702  23.750  0.00  0.00     0.247 C 
ATOM      5  O4  E64 d   1      -2.074  -6.603  24.962  0.00  0.00    -0.271 OA
ATOM      6  H5  E64 d   1      -1.890  -5.956  21.887  0.00  0.00     0.163 HD
BRANCH   4   7
ATOM      7  C3  E64 d   1      -1.096  -7.899  23.180  0.00  0.00     0.121 C 
ATOM      8  H3  E64 d   1      -0.890  -8.505  24.075  0.00  0.00     0.098 H 
BRANCH   7   9
ATOM      9  C2  E64 d   1       0.312  -7.473  22.765  0.00  0.00     0.048 C 
ATOM     10  H1  E64 d   1       0.233  -6.776  21.918  0.00  0.00     0.053 H 
ATOM     11  H2  E64 d   1       0.790  -6.964  23.615  0.00  0.00     0.053 H 
BRANCH   9  12
ATOM     12  C1  E64 d   1       1.174  -8.632  22.353  0.00  0.00     0.175 C 
ATOM     13  O1  E64 d   1       1.782  -8.514  21.208  0.00  0.00    -0.648 OA
ATOM     14  O2  E64 d   1       1.286  -9.622  23.069  0.00  0.00    -0.648 OA
ENDBRANCH   9  12
ENDBRANCH   7   9
BRANCH   7  15
ATOM     15  O3  E64 d   1      -1.867  -8.831  22.413  0.00  0.00    -0.386 OA
ATOM     16  H4  E64 d   1      -2.709  -8.965  22.833  0.00  0.00     0.210 HD
ENDBRANCH   7  15
ENDBRANCH   4   7
ENDBRANCH   1   3
BRANCH   1  17
ATOM     17  C7  E64 d   1      -2.252  -3.385  22.429  0.00  0.00    -0.035 C 
ATOM     18  H7  E64 d   1      -3.024  -2.929  21.792  0.00  0.00     0.037 H 
ATOM     19  H8  E64 d   1      -1.446  -3.788  21.797  0.00  0.00     0.037 H 
BRANCH  17  20
ATOM     20  C8  E64 d   1      -1.642  -2.260  23.269  0.00  0.00    -0.059 C 
ATOM     21  H9  E64 d   1      -0.623  -2.058  22.909  0.00  0.00     0.038 H 
BRANCH  20  22
ATOM     22  C9  E64 d   1      -2.482  -1.009  23.095  0.00  0.00    -0.073 C 
ATOM     23  H10 E64 d   1      -2.053  -0.193  23.695  0.00  0.00     0.028 H 
ATOM     24  H11 E64 d   1      -3.511  -1.208  23.430  0.00  0.00     0.028 H 
ATOM     25  H12 E64 d   1      -2.492  -0.719  22.034  0.00  0.00     0.028 H 
ENDBRANCH  20  22
BRANCH  20  26
ATOM     26  C10 E64 d   1      -1.566  -2.664  24.732  0.00  0.00    -0.073 C 
ATOM     27  H13 E64 d   1      -0.953  -3.572  24.830  0.00  0.00     0.028 H 
ATOM     28  H14 E64 d   1      -2.579  -2.864  25.110  0.00  0.00     0.028 H 
ATOM     29  H15 E64 d   1      -1.111  -1.849  25.314  0.00  0.00     0.028 H 
ENDBRANCH  20  26
ENDBRANCH  17  20
ENDBRANCH   1  17
BRANCH   1  30
ATOM     30  C11 E64 d   1      -4.354  -4.719  22.677  0.00  0.00     0.240 C 
ATOM     31  O5  E64 d   1      -4.959  -3.765  22.176  0.00  0.00    -0.271 OA
ATOM     32  N2  E64 d   1      -4.904  -5.916  22.855  0.00  0.00    -0.359 N 
ATOM     33  H16 E64 d   1      -4.310  -6.668  23.141  0.00  0.00     0.162 HD
BRANCH  32  34
ATOM     34  C12 E64 d   1      -6.319  -6.197  22.659  0.00  0.00    -0.005 C 
ATOM     35  H17 E64 d   1      -6.474  -6.518  21.618  0.00  0.00     0.064 H 
ATOM     36  H18 E64 d   1      -6.891  -5.277  22.848  0.00  0.00     0.064 H 
BRANCH  34  37
ATOM     37  C13 E64 d   1      -6.829  -7.284  23.583  0.00  0.00    -0.049 C 
ATOM     38  H19 E64 d   1      -7.604  -6.862  24.240  0.00  0.00     0.035 H 
ATOM     39  H20 E64 d   1      -5.994  -7.657  24.194  0.00  0.00     0.035 H 
BRANCH  37  40
ATOM     40  C14 E64 d   1      -7.425  -8.446  22.790  0.00  0.00    -0.048 C 
ATOM     41  H21 E64 d   1      -8.127  -8.993  23.436  0.00  0.00     0.035 H 
ATOM     42  H22 E64 d   1      -6.612  -9.118  22.480  0.00  0.00     0.035 H 
BRANCH  40  43
ATOM     43  C15 E64 d   1      -8.172  -7.967  21.543  0.00  0.00     0.009 C 
ATOM     44  H23 E64 d   1      -7.730  -7.016  21.211  0.00  0.00     0.064 H 
ATOM     45  H24 E64 d   1      -9.229  -7.809  21.805  0.00  0.00     0.064 H 
BRANCH  43  46
ATOM     46  N3  E64 d   1      -8.101  -8.927  20.439  0.00  0.00    -0.227 N 
ATOM     47  C16 E64 d   1      -9.123  -9.689  20.046  0.00  0.00     0.665 C 
ATOM     48  N4  E64 d   1      -9.994  -9.939  21.023  0.00  0.00    -0.235 N 
ATOM     49  N5  E64 d   1      -9.335 -10.198  18.827  0.00  0.00    -0.235 N 
ATOM     50  H26 E64 d   1     -10.825 -10.518  20.836  0.00  0.00     0.174 HD
ATOM     51  H27 E64 d   1      -9.836  -9.553  21.965  0.00  0.00     0.174 HD
ATOM     52  H28 E64 d   1      -8.666 -10.009  18.067  0.00  0.00     0.174 HD
ATOM     53  H29 E64 d   1     -10.167 -10.779  18.649  0.00  0.00     0.174 HD
ATOM     54  H25 E64 d   1      -7.207  -9.019  19.935  0.00  0.00     0.177 HD
ENDBRANCH  43  46
ENDBRANCH  40  43
ENDBRANCH  37  40
ENDBRANCH  34  37
ENDBRANCH  32  34
ENDBRANCH   1  30
TORSDOF 15
