REMARK  6 active torsions:
REMARK  status: ('A' for Active; 'I' for Inactive)
REMARK    1  A    between atoms: N1_1  and  C1'_9 
REMARK    2  A    between atoms: C5'_11  and  C6'_12 
REMARK    3  A    between atoms: C6'_12  and  O6'_13 
REMARK    4  A    between atoms: C4'_14  and  O4'_15 
REMARK    5  A    between atoms: C3'_16  and  O3'_17 
REMARK    6  A    between atoms: C2'_18  and  O2'_19 
ROOT
ATOM      1  C1' CJB d   1      33.326  22.902  27.818  0.00  0.00     0.141 C 
ATOM      2  O5' CJB d   1      33.312  21.481  28.106  0.00  0.00    -0.353 OA
ATOM      3  C5' CJB d   1      32.236  20.851  27.361  0.00  0.00     0.088 C 
ATOM      4  C4' CJB d   1      32.409  21.004  25.827  0.00  0.00     0.089 C 
ATOM      5  C3' CJB d   1      32.649  22.466  25.417  0.00  0.00     0.091 C 
ATOM      6  C2' CJB d   1      33.699  23.126  26.335  0.00  0.00     0.105 C 
ATOM      7  H4  CJB d   1      32.308  23.293  27.963  0.00  0.00     0.123 H 
ATOM      8  H5  CJB d   1      31.290  21.341  27.636  0.00  0.00     0.090 H 
ATOM      9  H9  CJB d   1      33.285  20.413  25.519  0.00  0.00     0.091 H 
ATOM     10  H11 CJB d   1      31.703  23.020  25.505  0.00  0.00     0.091 H 
ATOM     11  H13 CJB d   1      34.670  22.645  26.146  0.00  0.00     0.093 H 
ENDROOT
BRANCH   1  12
ATOM     12  N1  CJB d   1      34.211  23.606  28.783  0.00  0.00    -0.280 N 
ATOM     13  C2  CJB d   1      33.617  24.261  29.863  0.00  0.00     0.331 A 
ATOM     14  O2  CJB d   1      32.389  24.257  29.995  0.00  0.00    -0.246 OA
ATOM     15  N3  CJB d   1      34.434  24.932  30.780  0.00  0.00    -0.275 N 
ATOM     16  C4  CJB d   1      35.825  24.944  30.624  0.00  0.00     0.250 A 
ATOM     17  H1  CJB d   1      34.019  25.408  31.555  0.00  0.00     0.173 HD
ATOM     18  O4  CJB d   1      36.502  25.548  31.448  0.00  0.00    -0.268 OA
ATOM     19  C5  CJB d   1      36.430  24.278  29.556  0.00  0.00    -0.002 A 
ATOM     20  C6  CJB d   1      35.615  23.610  28.638  0.00  0.00    -0.008 A 
ATOM     21  H2  CJB d   1      37.513  24.279  29.441  0.00  0.00     0.094 H 
ATOM     22  H3  CJB d   1      36.070  23.085  27.799  0.00  0.00     0.112 H 
ENDBRANCH   1  12
BRANCH   6  23
ATOM     23  O2' CJB d   1      33.833  24.527  26.052  0.00  0.00    -0.388 OA
ATOM     24  H14 CJB d   1      34.105  24.642  25.149  0.00  0.00     0.210 HD
ENDBRANCH   6  23
BRANCH   3  25
ATOM     25  C6' CJB d   1      32.166  19.384  27.802  0.00  0.00     0.043 C 
ATOM     26  H6  CJB d   1      31.246  18.927  27.408  0.00  0.00     0.078 H 
ATOM     27  H7  CJB d   1      32.160  19.333  28.901  0.00  0.00     0.078 H 
BRANCH  25  28
ATOM     28  O6' CJB d   1      33.299  18.675  27.301  0.00  0.00    -0.398 OA
ATOM     29  H8  CJB d   1      34.094  19.069  27.642  0.00  0.00     0.209 HD
ENDBRANCH  25  28
ENDBRANCH   3  25
BRANCH   5  30
ATOM     30  O3' CJB d   1      33.094  22.516  24.062  0.00  0.00    -0.390 OA
ATOM     31  H12 CJB d   1      33.242  23.420  23.811  0.00  0.00     0.210 HD
ENDBRANCH   5  30
BRANCH   4  32
ATOM     32  O4' CJB d   1      31.251  20.490  25.155  0.00  0.00    -0.390 OA
ATOM     33  H10 CJB d   1      30.483  20.974  25.435  0.00  0.00     0.210 HD
ENDBRANCH   4  32
TORSDOF 6
