REMARK  13 active torsions:
REMARK  status: ('A' for Active; 'I' for Inactive)
REMARK    1  A    between atoms: C28_1  and  N6_2 
REMARK    2  A    between atoms: N6_2  and  C29_3 
REMARK    3  A    between atoms: N6_2  and  C27_4 
REMARK    4  A    between atoms: C27_4  and  C26_5 
REMARK    5  A    between atoms: C26_5  and  C25_6 
REMARK    6  A    between atoms: C25_6  and  C20_7 
REMARK    7  A    between atoms: C22_10  and  C24_11 
REMARK    8  A    between atoms: C18_16  and  N5_17 
REMARK       I    between atoms: N5_17  and  C17_18 
REMARK    9  A    between atoms: C17_18  and  C12_20 
REMARK   10  A    between atoms: C15_24  and  C16_25 
REMARK   11  A    between atoms: C10_26  and  N4_27 
REMARK   12  A    between atoms: N4_27  and  C9_28 
REMARK   13  A    between atoms: C5_33  and  C3_34 
ROOT
ATOM      1  N5  RAJ d   1      35.463  33.686  13.489  0.00  0.00    -0.323 N 
ATOM      2  C17 RAJ d   1      35.481  33.421  12.155  0.00  0.00     0.256 C 
ATOM      3  O1  RAJ d   1      34.774  33.991  11.327  0.00  0.00    -0.267 OA
ATOM      4  H17 RAJ d   1      36.138  33.227  14.067  0.00  0.00     0.169 HD
ENDROOT
BRANCH   2   5
ATOM      5  C12 RAJ d   1      36.417  32.376  11.751  0.00  0.00     0.034 A 
ATOM      6  C11 RAJ d   1      36.540  32.132  10.336  0.00  0.00    -0.041 A 
ATOM      7  C10 RAJ d   1      37.440  31.075   9.969  0.00  0.00     0.040 A 
ATOM      8  H18 RAJ d   1      35.991  32.707   9.599  0.00  0.00     0.088 H 
ATOM      9  C15 RAJ d   1      38.147  30.338  10.970  0.00  0.00    -0.035 A 
ATOM     10  C14 RAJ d   1      38.025  30.584  12.370  0.00  0.00    -0.074 A 
ATOM     11  C13 RAJ d   1      37.127  31.641  12.762  0.00  0.00    -0.067 A 
ATOM     12  H20 RAJ d   1      38.579  30.006  13.101  0.00  0.00     0.084 H 
ATOM     13  H19 RAJ d   1      36.988  31.880  13.810  0.00  0.00     0.085 H 
BRANCH   7  14
ATOM     14  N4  RAJ d   1      37.631  30.757   8.653  0.00  0.00    -0.340 N 
ATOM     15  H24 RAJ d   1      37.093  29.967   8.270  0.00  0.00     0.167 HD
BRANCH  14  16
ATOM     16  C9  RAJ d   1      38.486  31.412   7.807  0.00  0.00     0.140 A 
ATOM     17  N3  RAJ d   1      39.313  32.392   8.364  0.00  0.00    -0.242 NA
ATOM     18  C8  RAJ d   1      40.234  33.176   7.700  0.00  0.00     0.004 A 
ATOM     19  C7  RAJ d   1      40.343  32.947   6.288  0.00  0.00    -0.065 A 
ATOM     20  H25 RAJ d   1      40.837  33.917   8.212  0.00  0.00     0.114 H 
ATOM     21  C6  RAJ d   1      39.510  31.945   5.673  0.00  0.00    -0.066 A 
ATOM     22  H26 RAJ d   1      41.043  33.520   5.691  0.00  0.00     0.085 H 
ATOM     23  C5  RAJ d   1      38.535  31.121   6.392  0.00  0.00     0.039 A 
ATOM     24  H27 RAJ d   1      39.612  31.790   4.605  0.00  0.00     0.085 H 
BRANCH  23  25
ATOM     25  C3  RAJ d   1      37.660  30.088   5.708  0.00  0.00     0.073 A 
ATOM     26  C2  RAJ d   1      37.712  29.789   4.276  0.00  0.00    -0.037 A 
ATOM     27  C1  RAJ d   1      36.800  28.788   3.830  0.00  0.00     0.006 A 
ATOM     28  H28 RAJ d   1      38.395  30.293   3.602  0.00  0.00     0.089 H 
ATOM     29  N2  RAJ d   1      35.933  28.154   4.695  0.00  0.00    -0.254 NA
ATOM     30  H29 RAJ d   1      36.788  28.517   2.780  0.00  0.00     0.114 H 
ATOM     31  C4  RAJ d   1      35.862  28.412   6.034  0.00  0.00     0.086 A 
ATOM     32  N1  RAJ d   1      36.722  29.365   6.507  0.00  0.00    -0.241 NA
ATOM     33  H30 RAJ d   1      35.166  27.893   6.683  0.00  0.00     0.146 H 
ENDBRANCH  23  25
ENDBRANCH  14  16
ENDBRANCH   7  14
BRANCH   9  34
ATOM     34  C16 RAJ d   1      39.062  29.238  10.524  0.00  0.00    -0.049 C 
ATOM     35  H21 RAJ d   1      39.529  28.770  11.403  0.00  0.00     0.033 H 
ATOM     36  H22 RAJ d   1      39.844  29.654   9.872  0.00  0.00     0.033 H 
ATOM     37  H23 RAJ d   1      38.485  28.483   9.970  0.00  0.00     0.033 H 
ENDBRANCH   9  34
ENDBRANCH   2   5
BRANCH   1  38
ATOM     38  C18 RAJ d   1      34.572  34.549  14.096  0.00  0.00     0.036 A 
ATOM     39  C19 RAJ d   1      34.974  35.259  15.270  0.00  0.00    -0.051 A 
ATOM     40  C20 RAJ d   1      34.063  36.155  15.932  0.00  0.00    -0.055 A 
ATOM     41  H14 RAJ d   1      35.974  35.121  15.665  0.00  0.00     0.087 H 
ATOM     42  C21 RAJ d   1      32.731  36.335  15.406  0.00  0.00    -0.062 A 
ATOM     43  C22 RAJ d   1      32.291  35.630  14.217  0.00  0.00     0.050 A 
ATOM     44  H15 RAJ d   1      32.047  37.009  15.909  0.00  0.00     0.085 H 
ATOM     45  C23 RAJ d   1      33.246  34.747  13.593  0.00  0.00    -0.043 A 
ATOM     46  H16 RAJ d   1      32.946  34.208  12.702  0.00  0.00     0.088 H 
BRANCH  40  47
ATOM     47  C25 RAJ d   1      34.472  36.941  17.169  0.00  0.00    -0.039 C 
ATOM     48  H12 RAJ d   1      33.836  37.835  17.247  0.00  0.00     0.040 H 
ATOM     49  H13 RAJ d   1      34.325  36.307  18.056  0.00  0.00     0.040 H 
BRANCH  47  50
ATOM     50  C26 RAJ d   1      35.928  37.379  17.115  0.00  0.00    -0.039 C 
ATOM     51  H10 RAJ d   1      36.216  37.786  18.095  0.00  0.00     0.035 H 
ATOM     52  H11 RAJ d   1      36.556  36.506  16.882  0.00  0.00     0.035 H 
BRANCH  50  53
ATOM     53  C27 RAJ d   1      36.147  38.442  16.055  0.00  0.00     0.083 C 
ATOM     54  H8  RAJ d   1      35.787  38.071  15.084  0.00  0.00     0.075 H 
ATOM     55  H9  RAJ d   1      35.593  39.352  16.328  0.00  0.00     0.075 H 
BRANCH  53  56
ATOM     56  N6  RAJ d   1      37.590  38.753  15.960  0.00  0.00    -0.079 N 
ATOM     57  H4  RAJ d   1      37.986  38.761  16.887  0.00  0.00     0.278 HD
BRANCH  56  58
ATOM     58  C28 RAJ d   1      37.730  40.088  15.362  0.00  0.00     0.066 C 
ATOM     59  H1  RAJ d   1      38.797  40.343  15.280  0.00  0.00     0.068 H 
ATOM     60  H2  RAJ d   1      37.223  40.829  15.997  0.00  0.00     0.068 H 
ATOM     61  H3  RAJ d   1      37.275  40.091  14.361  0.00  0.00     0.068 H 
ENDBRANCH  56  58
BRANCH  56  62
ATOM     62  C29 RAJ d   1      38.307  37.750  15.151  0.00  0.00     0.066 C 
ATOM     63  H5  RAJ d   1      38.193  36.758  15.611  0.00  0.00     0.068 H 
ATOM     64  H6  RAJ d   1      39.374  38.011  15.104  0.00  0.00     0.068 H 
ATOM     65  H7  RAJ d   1      37.889  37.733  14.134  0.00  0.00     0.068 H 
ENDBRANCH  56  62
ENDBRANCH  53  56
ENDBRANCH  50  53
ENDBRANCH  47  50
ENDBRANCH  40  47
BRANCH  43  66
ATOM     66  C24 RAJ d   1      30.860  35.816  13.623  0.00  0.00     0.417 C 
ATOM     67  F2  RAJ d   1      30.763  36.992  13.044  0.00  0.00    -0.166 F 
ATOM     68  F3  RAJ d   1      29.952  35.720  14.560  0.00  0.00    -0.166 F 
ATOM     69  F1  RAJ d   1      30.561  34.930  12.711  0.00  0.00    -0.166 F 
ENDBRANCH  43  66
ENDBRANCH   1  38
TORSDOF 13
