REMARK  7 active torsions:
REMARK  status: ('A' for Active; 'I' for Inactive)
REMARK    1  A    between atoms: C2_2  and  C1_1 
REMARK    2  A    between atoms: C5_5  and  C6_6 
REMARK    3  A    between atoms: C7_7  and  N1_30 
REMARK    4  A    between atoms: N5_34  and  C10_10 
REMARK    5  A    between atoms: C13_13  and  N5_34 
REMARK    6  A    between atoms: C17_17  and  C29_29 
REMARK    7  A    between atoms: C19_19  and  N3_32 
REMARK       I    between atoms: C29_29  and  N7_36 
ROOT
ATOM      1  C13 IXH d   1       6.629  27.498   8.558  0.00  0.00     0.728 A 
ATOM      2  C14 IXH d   1       7.876  25.536   8.508  0.00  0.00     0.038 A 
ATOM      3  C15 IXH d   1       7.586  25.315   7.160  0.00  0.00     0.080 A 
ATOM      4  C16 IXH d   1       8.099  24.145   6.406  0.00  0.00     0.204 A 
ATOM      5  C17 IXH d   1       7.715  24.020   4.953  0.00  0.00     0.098 A 
ATOM      6  C18 IXH d   1       6.925  25.002   4.445  0.00  0.00     0.006 A 
ATOM      7  C28 IXH d   1       6.771  26.282   6.543  0.00  0.00     0.169 A 
ATOM      8  N2  IXH d   1       7.410  26.609   9.213  0.00  0.00    -0.074 NA
ATOM      9  N3  IXH d   1       6.428  26.128   5.134  0.00  0.00    -0.304 N 
ATOM     10  N4  IXH d   1       6.309  27.351   7.253  0.00  0.00    -0.043 NA
ATOM     11  O1  IXH d   1       8.812  23.317   6.972  0.00  0.00    -0.286 OA
ATOM     12  H17 IXH d   1       8.504  24.818   9.022  0.00  0.00     0.117 H 
ATOM     13  H18 IXH d   1       6.646  24.910   3.396  0.00  0.00     0.114 H 
ENDROOT
BRANCH   1  14
ATOM     14  N5  IXH d   1       6.086  28.603   9.181  0.00  0.00    -0.188 N 
ATOM     15  H28 IXH d   1       6.422  28.714  10.148  0.00  0.00     0.184 HD
BRANCH  14  16
ATOM     16  C10 IXH d   1       5.183  29.612   8.807  0.00  0.00     0.049 A 
ATOM     17  C9  IXH d   1       4.732  29.866   7.477  0.00  0.00    -0.055 A 
ATOM     18  C8  IXH d   1       3.795  30.908   7.195  0.00  0.00    -0.060 A 
ATOM     19  H14 IXH d   1       5.108  29.256   6.664  0.00  0.00     0.087 H 
ATOM     20  C7  IXH d   1       3.260  31.742   8.236  0.00  0.00     0.010 A 
ATOM     21  H13 IXH d   1       3.480  31.073   6.171  0.00  0.00     0.086 H 
ATOM     22  C12 IXH d   1       3.723  31.465   9.561  0.00  0.00    -0.060 A 
ATOM     23  C11 IXH d   1       4.657  30.429   9.837  0.00  0.00    -0.055 A 
ATOM     24  H16 IXH d   1       3.349  32.065  10.383  0.00  0.00     0.086 H 
ATOM     25  H15 IXH d   1       4.974  30.261  10.860  0.00  0.00     0.087 H 
BRANCH  20  26
ATOM     26  N1  IXH d   1       2.328  32.786   8.030  0.00  0.00    -0.280 NA
ATOM     27  C3  IXH d   1       1.455  32.654   6.831  0.00  0.00     0.010 C 
ATOM     28  C2  IXH d   1       0.343  33.746   6.897  0.00  0.00     0.110 C 
ATOM     29  H5  IXH d   1       2.055  32.792   5.920  0.00  0.00     0.059 H 
ATOM     30  H6  IXH d   1       0.993  31.656   6.818  0.00  0.00     0.059 H 
ATOM     31  N6  IXH d   1       0.940  35.125   6.974  0.00  0.00    -0.065 N 
ATOM     32  H4  IXH d   1      -0.259  33.573   7.801  0.00  0.00     0.085 H 
ATOM     33  C5  IXH d   1       1.842  35.210   8.172  0.00  0.00     0.110 C 
ATOM     34  H29 IXH d   1       0.203  35.807   7.059  0.00  0.00     0.278 HD
ATOM     35  H30 IXH d   1       1.472  35.308   6.138  0.00  0.00     0.278 HD
ATOM     36  C4  IXH d   1       2.960  34.130   8.116  0.00  0.00     0.010 C 
ATOM     37  H9  IXH d   1       1.240  35.038   9.077  0.00  0.00     0.085 H 
ATOM     38  H7  IXH d   1       3.577  34.190   9.024  0.00  0.00     0.059 H 
ATOM     39  H8  IXH d   1       3.592  34.298   7.231  0.00  0.00     0.059 H 
BRANCH  28  40
ATOM     40  C1  IXH d   1      -0.569  33.661   5.679  0.00  0.00    -0.048 C 
ATOM     41  H1  IXH d   1      -1.008  32.654   5.619  0.00  0.00     0.030 H 
ATOM     42  H2  IXH d   1       0.015  33.861   4.769  0.00  0.00     0.030 H 
ATOM     43  H3  IXH d   1      -1.373  34.406   5.770  0.00  0.00     0.030 H 
ENDBRANCH  28  40
BRANCH  33  44
ATOM     44  C6  IXH d   1       2.449  36.610   8.246  0.00  0.00    -0.048 C 
ATOM     45  H10 IXH d   1       1.643  37.358   8.285  0.00  0.00     0.030 H 
ATOM     46  H11 IXH d   1       3.071  36.787   7.356  0.00  0.00     0.030 H 
ATOM     47  H12 IXH d   1       3.070  36.693   9.150  0.00  0.00     0.030 H 
ENDBRANCH  33  44
ENDBRANCH  20  26
ENDBRANCH  14  16
ENDBRANCH   1  14
BRANCH   9  48
ATOM     48  C19 IXH d   1       5.620  27.093   4.441  0.00  0.00     0.041 A 
ATOM     49  C20 IXH d   1       4.213  27.246   4.698  0.00  0.00    -0.056 A 
ATOM     50  C21 IXH d   1       3.435  28.224   3.997  0.00  0.00    -0.074 A 
ATOM     51  H19 IXH d   1       3.733  26.611   5.434  0.00  0.00     0.087 H 
ATOM     52  C22 IXH d   1       4.069  29.040   3.039  0.00  0.00    -0.052 A 
ATOM     53  H20 IXH d   1       2.376  28.334   4.200  0.00  0.00     0.084 H 
ATOM     54  C23 IXH d   1       3.466  30.121   2.192  0.00  0.00    -0.040 C 
ATOM     55  C26 IXH d   1       5.450  28.904   2.767  0.00  0.00    -0.050 A 
ATOM     56  C24 IXH d   1       4.536  30.289   1.098  0.00  0.00    -0.058 C 
ATOM     57  H21 IXH d   1       3.328  31.050   2.765  0.00  0.00     0.040 H 
ATOM     58  H22 IXH d   1       2.502  29.806   1.766  0.00  0.00     0.040 H 
ATOM     59  C25 IXH d   1       5.887  29.878   1.715  0.00  0.00    -0.040 C 
ATOM     60  H23 IXH d   1       4.576  31.337   0.768  0.00  0.00     0.033 H 
ATOM     61  H24 IXH d   1       4.302  29.643   0.239  0.00  0.00     0.033 H 
ATOM     62  H25 IXH d   1       6.406  30.741   2.157  0.00  0.00     0.040 H 
ATOM     63  H26 IXH d   1       6.540  29.399   0.970  0.00  0.00     0.040 H 
ATOM     64  C27 IXH d   1       6.234  27.948   3.450  0.00  0.00    -0.050 A 
ATOM     65  H27 IXH d   1       7.292  27.856   3.232  0.00  0.00     0.087 H 
ENDBRANCH   9  48
BRANCH   5  66
ATOM     66  C29 IXH d   1       8.140  22.919   4.041  0.00  0.00     0.254 C 
ATOM     67  N7  IXH d   1       8.949  21.960   4.581  0.00  0.00    -0.366 N 
ATOM     68  H31 IXH d   1       9.266  21.197   4.017  0.00  0.00     0.159 HD
ATOM     69  H32 IXH d   1       9.225  22.020   5.540  0.00  0.00     0.159 HD
ATOM     70  O2  IXH d   1       7.800  22.860   2.860  0.00  0.00    -0.268 OA
ENDBRANCH   5  66
TORSDOF 7
