REMARK  11 active torsions:
REMARK  status: ('A' for Active; 'I' for Inactive)
REMARK    1  A    between atoms: C7_5  and  C1_1 
REMARK    2  A    between atoms: C18_29  and  N6_4 
REMARK    3  A    between atoms: N1_23  and  C7_5 
REMARK    4  A    between atoms: N3_25  and  C9_7 
REMARK    5  A    between atoms: C16_14  and  N3_25 
REMARK    6  A    between atoms: C19_15  and  C17_28 
REMARK    7  A    between atoms: C20_16  and  C21_17 
REMARK    8  A    between atoms: O1_31  and  C20_16 
REMARK    9  A    between atoms: C21_17  and  O2_32 
REMARK   10  A    between atoms: O2_32  and  C22_18 
REMARK   11  A    between atoms: N7_30  and  O1_31 
ROOT
ATOM      1  C8  POX d   1      15.453  33.369  95.636  0.00  0.00     0.034 A 
ATOM      2  C9  POX d   1      16.476  34.152  92.015  0.00  0.00     0.034 A 
ATOM      3  C10 POX d   1      17.231  35.303  92.367  0.00  0.00    -0.055 A 
ATOM      4  C11 POX d   1      17.356  35.734  93.705  0.00  0.00    -0.052 A 
ATOM      5  C12 POX d   1      16.689  34.969  94.705  0.00  0.00     0.065 A 
ATOM      6  C13 POX d   1      15.939  33.824  94.399  0.00  0.00     0.014 A 
ATOM      7  C14 POX d   1      15.828  33.407  93.043  0.00  0.00    -0.044 A 
ATOM      8  N1  POX d   1      16.582  35.103  96.079  0.00  0.00    -0.265 N 
ATOM      9  N2  POX d   1      15.830  34.129  96.658  0.00  0.00    -0.183 NA
ATOM     10  H6  POX d   1      14.830  32.483  95.746  0.00  0.00     0.118 H 
ATOM     11  H7  POX d   1      17.726  35.867  91.585  0.00  0.00     0.087 H 
ATOM     12  H8  POX d   1      17.937  36.613  93.962  0.00  0.00     0.087 H 
ATOM     13  H9  POX d   1      15.251  32.524  92.792  0.00  0.00     0.088 H 
ENDROOT
BRANCH   2  14
ATOM     14  N3  POX d   1      16.318  33.718  90.690  0.00  0.00    -0.340 N 
ATOM     15  H22 POX d   1      17.186  33.413  90.227  0.00  0.00     0.167 HD
BRANCH  14  16
ATOM     16  C16 POX d   1      15.167  33.635  89.900  0.00  0.00     0.145 A 
ATOM     17  N5  POX d   1      14.045  34.158  90.501  0.00  0.00    -0.223 NA
ATOM     18  C15 POX d   1      12.897  34.131  89.814  0.00  0.00     0.091 A 
ATOM     19  N4  POX d   1      12.752  33.630  88.556  0.00  0.00    -0.224 NA
ATOM     20  H10 POX d   1      12.015  34.539  90.295  0.00  0.00     0.146 H 
ATOM     21  C18 POX d   1      13.853  33.122  87.974  0.00  0.00     0.138 A 
ATOM     22  C17 POX d   1      15.119  33.087  88.617  0.00  0.00     0.075 A 
BRANCH  21  23
ATOM     23  N6  POX d   1      13.639  32.654  86.707  0.00  0.00    -0.383 N 
ATOM     24  H2  POX d   1      14.417  32.244  86.171  0.00  0.00     0.157 HD
ATOM     25  H3  POX d   1      12.700  32.712  86.288  0.00  0.00     0.157 HD
ENDBRANCH  21  23
BRANCH  22  26
ATOM     26  C19 POX d   1      16.333  32.523  87.985  0.00  0.00     0.046 C 
ATOM     27  N7  POX d   1      16.657  32.617  86.733  0.00  0.00    -0.145 NA
ATOM     28  H11 POX d   1      17.018  31.978  88.632  0.00  0.00     0.119 H 
BRANCH  27  29
ATOM     29  O1  POX d   1      17.893  31.918  86.556  0.00  0.00    -0.255 OA
BRANCH  29  30
ATOM     30  C20 POX d   1      18.372  31.962  85.186  0.00  0.00     0.067 C 
ATOM     31  H12 POX d   1      17.948  31.121  84.618  0.00  0.00     0.081 H 
ATOM     32  H13 POX d   1      18.070  32.910  84.718  0.00  0.00     0.081 H 
BRANCH  30  33
ATOM     33  C21 POX d   1      19.910  31.856  85.201  0.00  0.00     0.041 C 
ATOM     34  H14 POX d   1      20.208  30.904  85.665  0.00  0.00     0.077 H 
ATOM     35  H15 POX d   1      20.330  32.693  85.778  0.00  0.00     0.077 H 
BRANCH  33  36
ATOM     36  O2  POX d   1      20.403  31.907  83.852  0.00  0.00    -0.394 OA
BRANCH  36  37
ATOM     37  C22 POX d   1      21.832  31.825  83.894  0.00  0.00     0.004 C 
ATOM     38  H16 POX d   1      22.232  31.862  82.870  0.00  0.00     0.066 H 
ATOM     39  H17 POX d   1      22.131  30.880  84.370  0.00  0.00     0.066 H 
ATOM     40  H18 POX d   1      22.231  32.670  84.474  0.00  0.00     0.066 H 
ENDBRANCH  36  37
ENDBRANCH  33  36
ENDBRANCH  30  33
ENDBRANCH  29  30
ENDBRANCH  27  29
ENDBRANCH  22  26
ENDBRANCH  14  16
ENDBRANCH   2  14
BRANCH   8  41
ATOM     41  C7  POX d   1      17.162  36.164  96.916  0.00  0.00     0.041 C 
ATOM     42  H4  POX d   1      17.207  35.821  97.960  0.00  0.00     0.074 H 
ATOM     43  H5  POX d   1      18.178  36.394  96.561  0.00  0.00     0.074 H 
BRANCH  41  44
ATOM     44  C1  POX d   1      16.299  37.426  96.834  0.00  0.00    -0.035 A 
ATOM     45  C2  POX d   1      14.961  37.343  96.299  0.00  0.00    -0.038 A 
ATOM     46  C3  POX d   1      14.139  38.486  96.212  0.00  0.00     0.117 A 
ATOM     47  H1  POX d   1      14.582  36.386  95.958  0.00  0.00     0.089 H 
ATOM     48  C4  POX d   1      14.611  39.753  96.651  0.00  0.00    -0.046 A 
ATOM     49  F1  POX d   1      12.903  38.362  95.708  0.00  0.00    -0.206 F 
ATOM     50  C5  POX d   1      15.931  39.862  97.182  0.00  0.00    -0.080 A 
ATOM     51  H19 POX d   1      13.974  40.628  96.583  0.00  0.00     0.088 H 
ATOM     52  C6  POX d   1      16.771  38.701  97.272  0.00  0.00    -0.075 A 
ATOM     53  H20 POX d   1      16.301  40.824  97.518  0.00  0.00     0.083 H 
ATOM     54  H21 POX d   1      17.773  38.793  97.676  0.00  0.00     0.084 H 
ENDBRANCH  41  44
ENDBRANCH   8  41
TORSDOF 11
