REMARK  7 active torsions:
REMARK  status: ('A' for Active; 'I' for Inactive)
REMARK    1  A    between atoms: O3_9  and  C1_1 
REMARK    2  A    between atoms: C2_4  and  O4_12 
REMARK    3  A    between atoms: S1_7  and  N1_8 
REMARK    4  A    between atoms: S1_7  and  O3_9 
REMARK    5  A    between atoms: O4_12  and  C7_13 
REMARK    6  A    between atoms: C14_20  and  C16_22 
REMARK    7  A    between atoms: C17_23  and  C20_26 
ROOT
ATOM      1  C20 CTF d   1      -0.380  11.590  13.503  0.00  0.00     0.019 C 
ATOM      2  C21 CTF d   1      -1.634  12.328  13.181  0.00  0.00     0.059 C 
ATOM      3  N2  CTF d   1      -2.606  12.882  12.983  0.00  0.00    -0.197 NA
ATOM      4  H27 CTF d   1       0.471  12.146  13.083  0.00  0.00     0.055 H 
ATOM      5  H28 CTF d   1      -0.278  11.533  14.597  0.00  0.00     0.055 H 
ENDROOT
BRANCH   1   6
ATOM      6  C17 CTF d   1      -0.362  10.191  12.946  0.00  0.00    -0.035 C 
ATOM      7  C14 CTF d   1      -1.030   9.111  13.877  0.00  0.00    -0.035 C 
ATOM      8  C13 CTF d   1      -2.553   9.082  13.908  0.00  0.00    -0.057 C 
ATOM      9  C15 CTF d   1      -0.516   7.890  13.024  0.00  0.00    -0.043 C 
ATOM     10  C12 CTF d   1      -3.134   7.695  14.321  0.00  0.00    -0.057 C 
ATOM     11  H16 CTF d   1      -2.902   9.836  14.629  0.00  0.00     0.034 H 
ATOM     12  H17 CTF d   1      -2.928   9.333  12.905  0.00  0.00     0.034 H 
ATOM     13  C8  CTF d   1      -2.545   6.511  13.494  0.00  0.00    -0.024 C 
ATOM     14  H14 CTF d   1      -2.909   7.525  15.384  0.00  0.00     0.034 H 
ATOM     15  H15 CTF d   1      -4.224   7.715  14.175  0.00  0.00     0.034 H 
ATOM     16  C4  CTF d   1      -3.168   5.175  13.893  0.00  0.00    -0.044 A 
ATOM     17  C9  CTF d   1      -0.961   6.482  13.526  0.00  0.00    -0.042 C 
ATOM     18  H8  CTF d   1      -2.831   6.688  12.447  0.00  0.00     0.048 H 
ATOM     19  C3  CTF d   1      -4.539   5.089  14.336  0.00  0.00    -0.041 A 
ATOM     20  C5  CTF d   1      -2.433   3.951  13.820  0.00  0.00    -0.049 A 
ATOM     21  C2  CTF d   1      -5.171   3.876  14.679  0.00  0.00     0.103 A 
ATOM     22  H1  CTF d   1      -5.113   6.005  14.409  0.00  0.00     0.088 H 
ATOM     23  C1  CTF d   1      -4.408   2.677  14.581  0.00  0.00     0.124 A 
ATOM     24  C6  CTF d   1      -3.049   2.723  14.156  0.00  0.00    -0.040 A 
ATOM     25  H4  CTF d   1      -2.479   1.804  14.089  0.00  0.00     0.088 H 
ATOM     26  C11 CTF d   1      -0.974   3.931  13.354  0.00  0.00    -0.040 C 
ATOM     27  C10 CTF d   1      -0.468   5.260  12.724  0.00  0.00    -0.057 C 
ATOM     28  H12 CTF d   1      -0.866   3.135  12.603  0.00  0.00     0.040 H 
ATOM     29  H13 CTF d   1      -0.341   3.703  14.224  0.00  0.00     0.040 H 
ATOM     30  H10 CTF d   1       0.632   5.257  12.715  0.00  0.00     0.034 H 
ATOM     31  H11 CTF d   1      -0.843   5.333  11.692  0.00  0.00     0.034 H 
ATOM     32  H9  CTF d   1      -0.610   6.361  14.562  0.00  0.00     0.041 H 
ATOM     33  C19 CTF d   1       0.999   8.201  12.883  0.00  0.00    -0.060 C 
ATOM     34  H18 CTF d   1      -0.956   7.975  12.019  0.00  0.00     0.041 H 
ATOM     35  C18 CTF d   1       1.072   9.735  12.820  0.00  0.00    -0.060 C 
ATOM     36  H25 CTF d   1       1.404   7.754  11.963  0.00  0.00     0.033 H 
ATOM     37  H26 CTF d   1       1.557   7.821  13.752  0.00  0.00     0.033 H 
ATOM     38  H23 CTF d   1       1.679  10.129  13.649  0.00  0.00     0.033 H 
ATOM     39  H24 CTF d   1       1.501  10.064  11.862  0.00  0.00     0.033 H 
ATOM     40  H22 CTF d   1      -0.860  10.194  11.965  0.00  0.00     0.042 H 
BRANCH   7  41
ATOM     41  C16 CTF d   1      -0.507   9.160  15.337  0.00  0.00    -0.068 C 
ATOM     42  H19 CTF d   1      -0.921  10.044  15.845  0.00  0.00     0.028 H 
ATOM     43  H20 CTF d   1       0.591   9.221  15.331  0.00  0.00     0.028 H 
ATOM     44  H21 CTF d   1      -0.821   8.250  15.870  0.00  0.00     0.028 H 
ENDBRANCH   7  41
BRANCH  21  45
ATOM     45  O4  CTF d   1      -6.490   3.968  15.075  0.00  0.00    -0.353 OA
BRANCH  45  46
ATOM     46  C7  CTF d   1      -6.808   4.359  16.406  0.00  0.00     0.010 C 
ATOM     47  H5  CTF d   1      -7.901   4.375  16.532  0.00  0.00     0.066 H 
ATOM     48  H6  CTF d   1      -6.402   5.363  16.600  0.00  0.00     0.066 H 
ATOM     49  H7  CTF d   1      -6.367   3.642  17.114  0.00  0.00     0.066 H 
ENDBRANCH  45  46
ENDBRANCH  21  45
BRANCH  23  50
ATOM     50  O3  CTF d   1      -5.028   1.433  14.883  0.00  0.00    -0.214 OA
BRANCH  50  51
ATOM     51  S1  CTF d   1      -5.484   0.979  16.342  0.00  0.00     0.360 S 
ATOM     52  O1  CTF d   1      -6.879   1.240  16.367  0.00  0.00    -0.176 OA
ATOM     53  O2  CTF d   1      -4.597   1.608  17.262  0.00  0.00    -0.176 OA
BRANCH  51  54
ATOM     54  N1  CTF d   1      -5.261  -0.580  16.384  0.00  0.00    -0.305 N 
ATOM     55  H2  CTF d   1      -5.481  -1.094  17.213  0.00  0.00     0.171 HD
ATOM     56  H3  CTF d   1      -4.900  -1.055  15.582  0.00  0.00     0.171 HD
ENDBRANCH  51  54
ENDBRANCH  50  51
ENDBRANCH  23  50
ENDBRANCH   1   6
TORSDOF 7
