REMARK  8 active torsions:
REMARK  status: ('A' for Active; 'I' for Inactive)
REMARK    1  A    between atoms: O3A_8  and  PB_1 
REMARK    2  A    between atoms: PA_5  and  O3A_8 
REMARK    3  A    between atoms: PA_5  and  O5'_9 
REMARK    4  A    between atoms: O5'_9  and  C5'_10 
REMARK    5  A    between atoms: C5'_10  and  C4'_11 
REMARK    6  A    between atoms: C3'_13  and  O3'_14 
REMARK    7  A    between atoms: C2'_15  and  O2'_16 
REMARK    8  A    between atoms: C1'_17  and  N9_18 
ROOT
ATOM      1  C4' ADP d   1       8.476  18.027  27.584  0.00  0.00     0.089 C 
ATOM      2  O4' ADP d   1       8.803  17.034  28.557  0.00  0.00    -0.353 OA
ATOM      3  C3' ADP d   1       9.646  18.990  27.527  0.00  0.00     0.091 C 
ATOM      4  C2' ADP d   1      10.767  18.308  28.305  0.00  0.00     0.105 C 
ATOM      5  C1' ADP d   1      10.059  17.288  29.188  0.00  0.00     0.139 C 
ATOM      6  H3  ADP d   1       7.573  18.571  27.896  0.00  0.00     0.090 H 
ATOM      7  H4  ADP d   1       9.960  19.179  26.490  0.00  0.00     0.091 H 
ATOM      8  H6  ADP d   1      11.442  17.791  27.607  0.00  0.00     0.093 H 
ATOM      9  H8  ADP d   1       9.914  17.702  30.197  0.00  0.00     0.122 H 
ENDROOT
BRANCH   5  10
ATOM     10  N9  ADP d   1      10.797  16.004  29.282  0.00  0.00    -0.294 N 
ATOM     11  C8  ADP d   1      10.694  14.990  28.398  0.00  0.00     0.071 A 
ATOM     12  N7  ADP d   1      11.482  13.943  28.746  0.00  0.00    -0.236 NA
ATOM     13  H9  ADP d   1      10.057  15.010  27.515  0.00  0.00     0.144 H 
ATOM     14  C5  ADP d   1      12.106  14.278  29.888  0.00  0.00     0.149 A 
ATOM     15  C6  ADP d   1      13.087  13.622  30.789  0.00  0.00     0.155 A 
ATOM     16  C4  ADP d   1      11.654  15.639  30.241  0.00  0.00     0.167 A 
ATOM     17  N6  ADP d   1      13.556  12.375  30.520  0.00  0.00    -0.382 N 
ATOM     18  N1  ADP d   1      13.497  14.318  31.874  0.00  0.00    -0.222 NA
ATOM     19  H10 ADP d   1      14.236  11.933  31.154  0.00  0.00     0.157 HD
ATOM     20  H11 ADP d   1      13.231  11.872  29.682  0.00  0.00     0.157 HD
ATOM     21  C2  ADP d   1      13.043  15.560  32.139  0.00  0.00     0.091 A 
ATOM     22  N3  ADP d   1      12.154  16.216  31.365  0.00  0.00    -0.222 NA
ATOM     23  H12 ADP d   1      13.414  16.061  33.026  0.00  0.00     0.146 H 
ENDBRANCH   5  10
BRANCH   4  24
ATOM     24  O2' ADP d   1      11.543  19.240  29.074  0.00  0.00    -0.388 OA
ATOM     25  H7  ADP d   1      10.979  19.682  29.697  0.00  0.00     0.210 HD
ENDBRANCH   4  24
BRANCH   1  26
ATOM     26  C5' ADP d   1       8.206  17.363  26.240  0.00  0.00     0.058 C 
ATOM     27  H1  ADP d   1       8.298  18.105  25.433  0.00  0.00     0.079 H 
ATOM     28  H2  ADP d   1       8.928  16.550  26.075  0.00  0.00     0.079 H 
BRANCH  26  29
ATOM     29  O5' ADP d   1       6.882  16.835  26.261  0.00  0.00    -0.287 OA
BRANCH  29  30
ATOM     30  PA  ADP d   1       5.621  17.679  25.715  0.00  0.00     0.418 P 
ATOM     31  O1A ADP d   1       4.483  17.523  26.693  0.00  0.00    -0.624 OA
ATOM     32  O2A ADP d   1       6.096  19.064  25.341  0.00  0.00    -0.624 OA
BRANCH  30  33
ATOM     33  O3A ADP d   1       5.243  16.890  24.351  0.00  0.00    -0.173 OA
BRANCH  33  34
ATOM     34  PB  ADP d   1       4.094  15.749  24.238  0.00  0.00     0.431 P 
ATOM     35  O1B ADP d   1       4.260  15.229  22.831  0.00  0.00    -0.616 OA
ATOM     36  O2B ADP d   1       2.811  16.519  24.450  0.00  0.00    -0.616 OA
ATOM     37  O3B ADP d   1       4.409  14.724  25.309  0.00  0.00    -0.616 OA
ENDBRANCH  33  34
ENDBRANCH  30  33
ENDBRANCH  29  30
ENDBRANCH  26  29
ENDBRANCH   1  26
BRANCH   3  38
ATOM     38  O3' ADP d   1       9.222  20.215  28.140  0.00  0.00    -0.390 OA
ATOM     39  H5  ADP d   1       9.936  20.841  28.120  0.00  0.00     0.210 HD
ENDBRANCH   3  38
TORSDOF 8
