REMARK  5 active torsions:
REMARK  status: ('A' for Active; 'I' for Inactive)
REMARK       I    between atoms: C16_1  and  N18_3 
REMARK    1  A    between atoms: N18_3  and  C19_4 
REMARK    2  A    between atoms: C19_4  and  C20_5 
REMARK    3  A    between atoms: C20_5  and  C21_6 
REMARK    4  A    between atoms: C21_6  and  C22_7 
REMARK    5  A    between atoms: C22_7  and  N23_8 
REMARK       I    between atoms: N23_8  and  C24_9 
REMARK       I    between atoms: C24_9  and  N25_10 
ROOT
ATOM      1  C21 INH d   1      49.364  21.490  12.534  0.00  0.00    -0.048 C 
ATOM      2  H7  INH d   1      48.993  22.453  12.916  0.00  0.00     0.035 H 
ATOM      3  H8  INH d   1      49.920  20.970  13.328  0.00  0.00     0.035 H 
ENDROOT
BRANCH   1   4
ATOM      4  C20 INH d   1      50.311  21.756  11.359  0.00  0.00    -0.049 C 
ATOM      5  H5  INH d   1      50.688  20.803  10.960  0.00  0.00     0.035 H 
ATOM      6  H6  INH d   1      49.778  22.300  10.566  0.00  0.00     0.035 H 
BRANCH   4   7
ATOM      7  C19 INH d   1      51.480  22.603  11.875  0.00  0.00    -0.005 C 
ATOM      8  H3  INH d   1      52.021  22.037  12.647  0.00  0.00     0.064 H 
ATOM      9  H4  INH d   1      52.160  22.825  11.039  0.00  0.00     0.064 H 
BRANCH   7  10
ATOM     10  N18 INH d   1      51.002  23.864  12.452  0.00  0.00    -0.368 N 
ATOM     11  C16 INH d   1      50.593  24.857  11.628  0.00  0.00     0.168 C 
ATOM     12  O17 INH d   1      50.608  24.730  10.426  0.00  0.00    -0.284 OA
ATOM     13  H1  INH d   1      50.242  25.794  12.059  0.00  0.00     0.179 H 
ATOM     14  H2  INH d   1      50.978  23.989  13.444  0.00  0.00     0.161 HD
ENDBRANCH   7  10
ENDBRANCH   4   7
ENDBRANCH   1   4
BRANCH   1  15
ATOM     15  C22 INH d   1      48.169  20.628  12.123  0.00  0.00     0.009 C 
ATOM     16  H9  INH d   1      47.796  20.966  11.145  0.00  0.00     0.064 H 
ATOM     17  H10 INH d   1      47.372  20.730  12.874  0.00  0.00     0.064 H 
BRANCH  15  18
ATOM     18  N23 INH d   1      48.568  19.222  12.029  0.00  0.00    -0.227 N 
ATOM     19  C24 INH d   1      47.695  18.286  11.505  0.00  0.00     0.665 C 
ATOM     20  N25 INH d   1      46.385  18.601  11.223  0.00  0.00    -0.235 N 
ATOM     21  N26 INH d   1      48.109  17.077  11.258  0.00  0.00    -0.235 N 
ATOM     22  H12 INH d   1      45.756  17.885  10.833  0.00  0.00     0.174 HD
ATOM     23  H13 INH d   1      46.034  19.553  11.402  0.00  0.00     0.174 HD
ATOM     24  H14 INH d   1      49.085  16.815  11.460  0.00  0.00     0.174 HD
ATOM     25  H15 INH d   1      47.461  16.382  10.861  0.00  0.00     0.174 HD
ATOM     26  H11 INH d   1      49.501  18.930  12.354  0.00  0.00     0.177 HD
ENDBRANCH  15  18
ENDBRANCH   1  15
TORSDOF 5
