REMARK  16 active torsions:
REMARK  status: ('A' for Active; 'I' for Inactive)
REMARK    1  A    between atoms: N1_1  and  C7_5 
REMARK    2  A    between atoms: S1_18  and  N3_2 
REMARK    3  A    between atoms: C5_3  and  C27_30 
REMARK    4  A    between atoms: C6_4  and  C13_8 
REMARK    5  A    between atoms: C12_28  and  C6_4 
REMARK    6  A    between atoms: C6_4  and  C14_29 
REMARK    7  A    between atoms: C7_5  and  C8_6 
REMARK    8  A    between atoms: C8_6  and  C9_34 
REMARK    9  A    between atoms: C9_34  and  C10_7 
REMARK   10  A    between atoms: C10_7  and  C11_36 
REMARK   11  A    between atoms: C2_22  and  S1_18 
REMARK   12  A    between atoms: C31_24  and  C1_23 
REMARK   13  A    between atoms: C9_34  and  O4_35 
REMARK   14  A    between atoms: C11_36  and  O3_37 
REMARK   15  A    between atoms: C11_36  and  C35_38 
REMARK   16  A    between atoms: C35_38  and  C36_39 
ROOT
ATOM      1  N1  RID d   1       3.532   6.332 -11.852  0.00  0.00    -0.347 N 
ATOM      2  C5  RID d   1       3.287   5.111 -12.310  0.00  0.00     0.058 A 
ATOM      3  C2  RID d   1       1.720   6.486 -13.176  0.00  0.00     0.116 A 
ATOM      4  C1  RID d   1       2.098   5.166 -13.156  0.00  0.00     0.027 A 
ATOM      5  C12 RID d   1       2.622   7.214 -12.354  0.00  0.00     0.040 A 
ENDROOT
BRANCH   1   6
ATOM      6  C7  RID d   1       4.672   6.613 -10.971  0.00  0.00     0.002 C 
ATOM      7  H2  RID d   1       5.109   7.583 -11.250  0.00  0.00     0.065 H 
ATOM      8  H3  RID d   1       5.425   5.822 -11.098  0.00  0.00     0.065 H 
BRANCH   6   9
ATOM      9  C8  RID d   1       4.252   6.663  -9.522  0.00  0.00    -0.026 C 
ATOM     10  H4  RID d   1       3.610   5.798  -9.297  0.00  0.00     0.039 H 
ATOM     11  H5  RID d   1       3.694   7.592  -9.335  0.00  0.00     0.039 H 
BRANCH   9  12
ATOM     12  C9  RID d   1       5.485   6.624  -8.630  0.00  0.00     0.039 C 
ATOM     13  H31 RID d   1       6.222   5.923  -9.048  0.00  0.00     0.083 H 
BRANCH  12  14
ATOM     14  C10 RID d   1       5.085   6.169  -7.239  0.00  0.00    -0.017 C 
ATOM     15  H6  RID d   1       4.122   6.629  -6.973  0.00  0.00     0.040 H 
ATOM     16  H7  RID d   1       5.855   6.487  -6.521  0.00  0.00     0.040 H 
BRANCH  14  17
ATOM     17  C11 RID d   1       4.946   4.655  -7.182  0.00  0.00     0.047 C 
ATOM     18  H33 RID d   1       4.218   4.327  -7.939  0.00  0.00     0.083 H 
BRANCH  17  19
ATOM     19  O3  RID d   1       6.204   4.064  -7.453  0.00  0.00    -0.395 OA
ATOM     20  H34 RID d   1       6.835   4.352  -6.804  0.00  0.00     0.210 HD
ENDBRANCH  17  19
BRANCH  17  21
ATOM     21  C35 RID d   1       4.459   4.228  -5.802  0.00  0.00     0.039 C 
ATOM     22  H35 RID d   1       3.630   4.880  -5.489  0.00  0.00     0.052 H 
ATOM     23  H36 RID d   1       5.285   4.313  -5.080  0.00  0.00     0.052 H 
BRANCH  21  24
ATOM     24  C36 RID d   1       3.980   2.793  -5.853  0.00  0.00     0.175 C 
ATOM     25  O7  RID d   1       2.919   2.510  -6.399  0.00  0.00    -0.648 OA
ATOM     26  O6  RID d   1       4.720   1.834  -5.302  0.00  0.00    -0.648 OA
ENDBRANCH  21  24
ENDBRANCH  17  21
ENDBRANCH  14  17
ENDBRANCH  12  14
BRANCH  12  27
ATOM     27  O4  RID d   1       6.047   7.919  -8.564  0.00  0.00    -0.395 OA
ATOM     28  H32 RID d   1       6.296   8.200  -9.437  0.00  0.00     0.210 HD
ENDBRANCH  12  27
ENDBRANCH   9  12
ENDBRANCH   6   9
ENDBRANCH   1   6
BRANCH   2  29
ATOM     29  C27 RID d   1       3.925   3.807 -12.049  0.00  0.00    -0.008 A 
ATOM     30  C21 RID d   1       3.443   3.097 -10.951  0.00  0.00    -0.068 A 
ATOM     31  C24 RID d   1       3.992   1.866 -10.623  0.00  0.00    -0.045 A 
ATOM     32  H16 RID d   1       2.638   3.507 -10.352  0.00  0.00     0.085 H 
ATOM     33  C30 RID d   1       5.024   1.363 -11.400  0.00  0.00     0.116 A 
ATOM     34  H18 RID d   1       3.620   1.306  -9.773  0.00  0.00     0.088 H 
ATOM     35  C15 RID d   1       5.512   2.076 -12.493  0.00  0.00    -0.045 A 
ATOM     36  F1  RID d   1       5.545   0.177 -11.080  0.00  0.00    -0.206 F 
ATOM     37  C18 RID d   1       4.966   3.313 -12.820  0.00  0.00    -0.068 A 
ATOM     38  H11 RID d   1       6.319   1.666 -13.090  0.00  0.00     0.088 H 
ATOM     39  H30 RID d   1       5.347   3.880 -13.662  0.00  0.00     0.085 H 
ENDBRANCH   2  29
BRANCH   5  40
ATOM     40  C6  RID d   1       2.696   8.662 -11.990  0.00  0.00    -0.019 C 
ATOM     41  H1  RID d   1       3.495   8.768 -11.242  0.00  0.00     0.048 H 
BRANCH  40  42
ATOM     42  C13 RID d   1       1.404   9.150 -11.324  0.00  0.00    -0.068 C 
ATOM     43  H8  RID d   1       1.501  10.217 -11.073  0.00  0.00     0.028 H 
ATOM     44  H9  RID d   1       1.224   8.572 -10.405  0.00  0.00     0.028 H 
ATOM     45  H10 RID d   1       0.560   9.011 -12.015  0.00  0.00     0.028 H 
ENDBRANCH  40  42
BRANCH  40  46
ATOM     46  C14 RID d   1       3.104   9.491 -13.189  0.00  0.00    -0.068 C 
ATOM     47  H27 RID d   1       4.034   9.087 -13.615  0.00  0.00     0.028 H 
ATOM     48  H28 RID d   1       3.267  10.533 -12.876  0.00  0.00     0.028 H 
ATOM     49  H29 RID d   1       2.308   9.456 -13.947  0.00  0.00     0.028 H 
ENDBRANCH  40  46
ENDBRANCH   5  40
BRANCH   4  50
ATOM     50  C31 RID d   1       1.530   3.972 -13.844  0.00  0.00    -0.022 A 
ATOM     51  C25 RID d   1       0.473   3.253 -13.298  0.00  0.00    -0.072 A 
ATOM     52  C22 RID d   1      -0.026   2.126 -13.949  0.00  0.00    -0.082 A 
ATOM     53  H24 RID d   1       0.034   3.571 -12.359  0.00  0.00     0.084 H 
ATOM     54  C28 RID d   1       0.539   1.708 -15.145  0.00  0.00    -0.083 A 
ATOM     55  H17 RID d   1      -0.856   1.576 -13.521  0.00  0.00     0.083 H 
ATOM     56  C19 RID d   1       1.608   2.417 -15.690  0.00  0.00    -0.082 A 
ATOM     57  H21 RID d   1       0.150   0.833 -15.654  0.00  0.00     0.083 H 
ATOM     58  C16 RID d   1       2.109   3.543 -15.034  0.00  0.00    -0.072 A 
ATOM     59  H25 RID d   1       2.051   2.094 -16.625  0.00  0.00     0.083 H 
ATOM     60  H26 RID d   1       2.950   4.084 -15.452  0.00  0.00     0.084 H 
ENDBRANCH   4  50
BRANCH   3  61
ATOM     61  S1  RID d   1       0.411   7.033 -14.053  0.00  0.00     0.263 S 
ATOM     62  O5  RID d   1      -0.784   6.369 -13.601  0.00  0.00    -0.200 OA
ATOM     63  O2  RID d   1       0.265   8.451 -13.900  0.00  0.00    -0.200 OA
BRANCH  61  64
ATOM     64  N3  RID d   1       0.593   6.753 -15.536  0.00  0.00    -0.303 N 
ATOM     65  C17 RID d   1       1.793   7.312 -16.159  0.00  0.00     0.025 C 
ATOM     66  C20 RID d   1       2.020   6.601 -17.492  0.00  0.00     0.035 C 
ATOM     67  H12 RID d   1       2.661   7.154 -15.502  0.00  0.00     0.068 H 
ATOM     68  H13 RID d   1       1.655   8.389 -16.332  0.00  0.00     0.068 H 
ATOM     69  O1  RID d   1       0.837   6.673 -18.288  0.00  0.00    -0.388 OA
ATOM     70  H14 RID d   1       2.270   5.546 -17.305  0.00  0.00     0.076 H 
ATOM     71  H15 RID d   1       2.850   7.085 -18.027  0.00  0.00     0.076 H 
ATOM     72  C23 RID d   1      -0.259   6.000 -17.667  0.00  0.00     0.035 C 
ATOM     73  C26 RID d   1      -0.626   6.682 -16.352  0.00  0.00     0.025 C 
ATOM     74  H22 RID d   1      -1.127   6.023 -18.342  0.00  0.00     0.076 H 
ATOM     75  H23 RID d   1       0.023   4.956 -17.467  0.00  0.00     0.076 H 
ATOM     76  H19 RID d   1      -1.006   7.695 -16.548  0.00  0.00     0.068 H 
ATOM     77  H20 RID d   1      -1.395   6.097 -15.827  0.00  0.00     0.068 H 
ENDBRANCH  61  64
ENDBRANCH   3  61
TORSDOF 16
