REMARK WARNING: 32 MAX_TORS EXCEEDED!!!
REMARK  44 active torsions:
REMARK  status: ('A' for Active; 'I' for Inactive)
REMARK    1  A    between atoms: N_1  and  CA_2 
REMARK    2  A    between atoms: CA_2  and  C_3 
REMARK    3  A    between atoms: CA_2  and  CB_5 
REMARK       I    between atoms: C_3  and  N_12 
REMARK    4  A    between atoms: CB_5  and  CG_6 
REMARK    5  A    between atoms: CG_6  and  CD_7 
REMARK    6  A    between atoms: CD_7  and  NE_8 
REMARK       I    between atoms: NE_8  and  CZ_9 
REMARK       I    between atoms: CZ_9  and  NH1_10 
REMARK    7  A    between atoms: N_12  and  CA_13 
REMARK    8  A    between atoms: CA_13  and  C_14 
REMARK    9  A    between atoms: CA_13  and  CB_16 
REMARK       I    between atoms: C_14  and  N_21 
REMARK   10  A    between atoms: CB_16  and  CG_17 
REMARK   11  A    between atoms: CG_17  and  CD_18 
REMARK       I    between atoms: CD_18  and  NE2_20 
REMARK   12  A    between atoms: N_21  and  CA_22 
REMARK   13  A    between atoms: CA_22  and  C_23 
REMARK   14  A    between atoms: CA_22  and  CB_25 
REMARK       I    between atoms: C_23  and  N_26 
REMARK   15  A    between atoms: N_26  and  CA_27 
REMARK   16  A    between atoms: CA_27  and  CB_28 
REMARK   17  A    between atoms: CA_27  and  C_30 
REMARK   18  A    between atoms: CB_28  and  OG_29 
REMARK   19  A    between atoms: OG_29  and  P_32 
REMARK       I    between atoms: C_30  and  N_36 
REMARK   20  A    between atoms: N_36  and  CA_37 
REMARK   21  A    between atoms: CA_37  and  C_38 
REMARK   22  A    between atoms: CA_37  and  CB_40 
REMARK       I    between atoms: C_38  and  N_44 
REMARK   23  A    between atoms: CB_40  and  CG_41 
REMARK   24  A    between atoms: CG_41  and  CD1_42 
REMARK   25  A    between atoms: CG_41  and  CD2_43 
REMARK   26  A    between atoms: N_44  and  CA_45 
REMARK   27  A    between atoms: CA_45  and  C_46 
REMARK   28  A    between atoms: CA_45  and  CB_48 
REMARK       I    between atoms: C_46  and  N_50 
REMARK   29  A    between atoms: CB_48  and  OG_49 
REMARK   30  A    between atoms: N_50  and  CA_51 
REMARK   31  A    between atoms: CA_51  and  C_52 
REMARK   32  A    between atoms: CA_51  and  CB_54 
REMARK       I    between atoms: C_52  and  N_58 
REMARK   33  A    between atoms: CB_54  and  CG1_55 
REMARK   34  A    between atoms: CB_54  and  CG2_56 
REMARK   35  A    between atoms: CG1_55  and  CD1_57 
REMARK   36  A    between atoms: N_58  and  CA_59 
REMARK   37  A    between atoms: CA_59  and  C_60 
REMARK   38  A    between atoms: CA_59  and  CB_62 
REMARK       I    between atoms: C_60  and  N_64 
REMARK   39  A    between atoms: CB_62  and  OG_63 
REMARK   40  A    between atoms: N_64  and  CA_65 
REMARK   41  A    between atoms: CA_65  and  C_66 
REMARK   42  A    between atoms: CA_65  and  CB_68 
REMARK   43  A    between atoms: CB_68  and  CG1_69 
REMARK   44  A    between atoms: CB_68  and  CG2_70 
ROOT
ATOM      1  CA  LEU d   1      39.039 -36.768  -9.284  0.00  0.00     0.089 C 
ATOM      2  H34 LEU d   1      39.917 -37.071  -8.694  0.00  0.00     0.087 H 
ENDROOT
BRANCH   1   3
ATOM      3  N   LEU d   1      37.843 -37.042  -8.479  0.00  0.00    -0.346 N 
ATOM      4  C   SEP d   1      37.828 -38.016  -7.583  0.00  0.00     0.243 C 
ATOM      5  O   SEP d   1      38.783 -38.796  -7.413  0.00  0.00    -0.271 OA
ATOM      6  H33 LEU d   1      37.025 -36.483  -8.610  0.00  0.00     0.163 HD
BRANCH   4   7
ATOM      7  CA  SEP d   1      36.550 -38.135  -6.761  0.00  0.00     0.110 C 
ATOM      8  H30 SEP d   1      36.370 -37.164  -6.276  0.00  0.00     0.090 H 
BRANCH   7   9
ATOM      9  N   SEP d   1      35.392 -38.429  -7.602  0.00  0.00    -0.344 N 
ATOM     10  C   ALA d   1      34.506 -37.493  -7.951  0.00  0.00     0.240 C 
ATOM     11  O   ALA d   1      34.625 -36.293  -7.672  0.00  0.00    -0.271 OA
ATOM     12  H29 SEP d   1      35.258 -39.365  -7.928  0.00  0.00     0.163 HD
BRANCH  10  13
ATOM     13  CA  ALA d   1      33.310 -37.977  -8.762  0.00  0.00     0.086 C 
ATOM     14  H25 ALA d   1      33.127 -39.033  -8.514  0.00  0.00     0.086 H 
BRANCH  13  15
ATOM     15  N   ALA d   1      32.081 -37.211  -8.454  0.00  0.00    -0.346 N 
ATOM     16  C   GLN d   1      31.513 -37.235  -7.254  0.00  0.00     0.241 C 
ATOM     17  O   GLN d   1      31.885 -37.975  -6.335  0.00  0.00    -0.271 OA
ATOM     18  H24 ALA d   1      31.664 -36.657  -9.174  0.00  0.00     0.163 HD
BRANCH  16  19
ATOM     19  CA  GLN d   1      30.384 -36.221  -7.042  0.00  0.00     0.090 C 
ATOM     20  H17 GLN d   1      29.834 -36.098  -7.987  0.00  0.00     0.087 H 
BRANCH  19  21
ATOM     21  N   GLN d   1      29.430 -36.646  -6.006  0.00  0.00    -0.346 N 
ATOM     22  C   ARG d   1      28.563 -37.653  -6.174  0.00  0.00     0.248 C 
ATOM     23  O   ARG d   1      28.511 -38.324  -7.210  0.00  0.00    -0.271 OA
ATOM     24  H16 GLN d   1      29.429 -36.159  -5.133  0.00  0.00     0.163 HD
BRANCH  22  25
ATOM     25  CA  ARG d   1      27.622 -37.969  -5.005  0.00  0.00     0.176 C 
ATOM     26  H4  ARG d   1      27.780 -37.205  -4.230  0.00  0.00     0.099 H 
BRANCH  25  27
ATOM     27  N   ARG d   1      26.185 -37.947  -5.377  0.00  0.00    -0.067 N 
ATOM     28  H1  ARG d   1      25.625 -38.162  -4.567  0.00  0.00     0.275 HD
ATOM     29  H2  ARG d   1      26.013 -38.633  -6.096  0.00  0.00     0.275 HD
ATOM     30  H3  ARG d   1      25.941 -37.032  -5.721  0.00  0.00     0.275 HD
ENDBRANCH  25  27
BRANCH  25  31
ATOM     31  CB  ARG d   1      27.977 -39.343  -4.418  0.00  0.00    -0.029 C 
ATOM     32  H5  ARG d   1      27.873 -40.102  -5.208  0.00  0.00     0.036 H 
ATOM     33  H6  ARG d   1      27.278 -39.568  -3.599  0.00  0.00     0.036 H 
BRANCH  31  34
ATOM     34  CG  ARG d   1      29.385 -39.394  -3.880  0.00  0.00    -0.047 C 
ATOM     35  H7  ARG d   1      29.480 -38.647  -3.078  0.00  0.00     0.035 H 
ATOM     36  H8  ARG d   1      30.079 -39.146  -4.696  0.00  0.00     0.035 H 
BRANCH  34  37
ATOM     37  CD  ARG d   1      29.772 -40.772  -3.311  0.00  0.00     0.009 C 
ATOM     38  H9  ARG d   1      29.588 -41.542  -4.075  0.00  0.00     0.064 H 
ATOM     39  H10 ARG d   1      29.157 -40.981  -2.424  0.00  0.00     0.064 H 
BRANCH  37  40
ATOM     40  NE  ARG d   1      31.188 -40.802  -2.931  0.00  0.00    -0.227 N 
ATOM     41  CZ  ARG d   1      31.640 -41.187  -1.737  0.00  0.00     0.665 C 
ATOM     42  NH1 ARG d   1      30.774 -41.607  -0.812  0.00  0.00    -0.235 N 
ATOM     43  NH2 ARG d   1      32.957 -41.174  -1.479  0.00  0.00    -0.235 N 
ATOM     44  H12 ARG d   1      31.114 -41.906   0.113  0.00  0.00     0.174 HD
ATOM     45  H13 ARG d   1      29.766 -41.632  -1.024  0.00  0.00     0.174 HD
ATOM     46  H14 ARG d   1      33.619 -40.849  -2.197  0.00  0.00     0.174 HD
ATOM     47  H15 ARG d   1      33.305 -41.489  -0.562  0.00  0.00     0.174 HD
ATOM     48  H11 ARG d   1      31.880 -40.506  -3.634  0.00  0.00     0.177 HD
ENDBRANCH  37  40
ENDBRANCH  34  37
ENDBRANCH  31  34
ENDBRANCH  25  31
ENDBRANCH  22  25
ENDBRANCH  19  21
BRANCH  19  49
ATOM     49  CB  GLN d   1      31.036 -34.885  -6.656  0.00  0.00    -0.030 C 
ATOM     50  H18 GLN d   1      31.851 -34.682  -7.366  0.00  0.00     0.037 H 
ATOM     51  H19 GLN d   1      31.450 -34.984  -5.642  0.00  0.00     0.037 H 
BRANCH  49  52
ATOM     52  CG  GLN d   1      30.111 -33.727  -6.668  0.00  0.00     0.011 C 
ATOM     53  H20 GLN d   1      29.176 -34.004  -6.159  0.00  0.00     0.047 H 
ATOM     54  H21 GLN d   1      29.892 -33.448  -7.709  0.00  0.00     0.047 H 
BRANCH  52  55
ATOM     55  CD  GLN d   1      30.730 -32.558  -5.963  0.00  0.00     0.215 C 
ATOM     56  OE1 GLN d   1      31.338 -31.677  -6.610  0.00  0.00    -0.274 OA
ATOM     57  NE2 GLN d   1      30.663 -32.555  -4.636  0.00  0.00    -0.370 N 
ATOM     58  H22 GLN d   1      31.061 -31.798  -4.117  0.00  0.00     0.159 HD
ATOM     59  H23 GLN d   1      30.215 -33.309  -4.156  0.00  0.00     0.159 HD
ENDBRANCH  52  55
ENDBRANCH  49  52
ENDBRANCH  19  49
ENDBRANCH  16  19
ENDBRANCH  13  15
BRANCH  13  60
ATOM     60  CB  ALA d   1      33.636 -37.872 -10.251  0.00  0.00    -0.049 C 
ATOM     61  H26 ALA d   1      34.550 -38.444 -10.467  0.00  0.00     0.030 H 
ATOM     62  H27 ALA d   1      33.792 -36.817 -10.519  0.00  0.00     0.030 H 
ATOM     63  H28 ALA d   1      32.800 -38.279 -10.839  0.00  0.00     0.030 H 
ENDBRANCH  13  60
ENDBRANCH  10  13
ENDBRANCH   7   9
BRANCH   7  64
ATOM     64  CB  SEP d   1      36.725 -39.187  -5.657  0.00  0.00     0.059 C 
ATOM     65  H31 SEP d   1      37.613 -38.941  -5.056  0.00  0.00     0.079 H 
ATOM     66  H32 SEP d   1      36.855 -40.179  -6.115  0.00  0.00     0.079 H 
BRANCH  64  67
ATOM     67  OG  SEP d   1      35.579 -39.202  -4.819  0.00  0.00    -0.280 OA
BRANCH  67  68
ATOM     68  P   SEP d   1      35.838 -39.312  -3.242  0.00  0.00     0.422 P 
ATOM     69  O1P SEP d   1      34.424 -39.120  -2.533  0.00  0.00    -0.617 OA
ATOM     70  O2P SEP d   1      36.893 -38.200  -2.754  0.00  0.00    -0.617 OA
ATOM     71  O3P SEP d   1      36.439 -40.768  -2.939  0.00  0.00    -0.617 OA
ENDBRANCH  67  68
ENDBRANCH  64  67
ENDBRANCH   7  64
ENDBRANCH   4   7
ENDBRANCH   1   3
BRANCH   1  72
ATOM     72  C   LEU d   1      39.172 -35.293  -9.587  0.00  0.00     0.241 C 
ATOM     73  O   LEU d   1      38.178 -34.581  -9.671  0.00  0.00    -0.271 OA
ATOM     74  N   SER d   1      40.406 -34.834  -9.742  0.00  0.00    -0.344 N 
ATOM     75  H44 SER d   1      41.186 -35.439  -9.585  0.00  0.00     0.163 HD
BRANCH  74  76
ATOM     76  CA  SER d   1      40.628 -33.459 -10.138  0.00  0.00     0.109 C 
ATOM     77  H45 SER d   1      39.667 -32.925 -10.169  0.00  0.00     0.090 H 
BRANCH  76  78
ATOM     78  C   SER d   1      41.239 -33.489 -11.519  0.00  0.00     0.243 C 
ATOM     79  O   SER d   1      42.227 -34.190 -11.748  0.00  0.00    -0.271 OA
ATOM     80  N   ILE d   1      40.639 -32.761 -12.450  0.00  0.00    -0.346 N 
ATOM     81  H49 ILE d   1      39.800 -32.264 -12.230  0.00  0.00     0.163 HD
BRANCH  80  82
ATOM     82  CA  ILE d   1      41.201 -32.683 -13.796  0.00  0.00     0.092 C 
ATOM     83  H50 ILE d   1      42.255 -32.985 -13.710  0.00  0.00     0.088 H 
BRANCH  82  84
ATOM     84  C   ILE d   1      41.195 -31.258 -14.323  0.00  0.00     0.241 C 
ATOM     85  O   ILE d   1      40.271 -30.490 -14.051  0.00  0.00    -0.271 OA
ATOM     86  N   SER d   1      42.256 -30.911 -15.052  0.00  0.00    -0.344 N 
ATOM     87  H60 SER d   1      42.977 -31.589 -15.194  0.00  0.00     0.163 HD
BRANCH  86  88
ATOM     88  CA  SER d   1      42.416 -29.597 -15.651  0.00  0.00     0.109 C 
ATOM     89  H61 SER d   1      41.512 -28.994 -15.479  0.00  0.00     0.090 H 
BRANCH  88  90
ATOM     90  C   SER d   1      42.640 -29.800 -17.143  0.00  0.00     0.243 C 
ATOM     91  O   SER d   1      43.273 -30.785 -17.541  0.00  0.00    -0.271 OA
ATOM     92  N   VAL d   1      42.148 -28.864 -17.949  0.00  0.00    -0.344 N 
ATOM     93  H65 VAL d   1      41.681 -28.076 -17.549  0.00  0.00     0.163 HD
BRANCH  92  94
ATOM     94  CA  VAL d   1      42.271 -28.954 -19.411  0.00  0.00     0.099 C 
ATOM     95  H66 VAL d   1      42.011 -29.981 -19.706  0.00  0.00     0.090 H 
BRANCH  94  96
ATOM     96  C   VAL d   1      43.709 -28.679 -19.852  0.00  0.00     0.197 C 
ATOM     97  O   VAL d   1      44.065 -28.949 -21.018  0.00  0.00    -0.646 OA
ATOM     98  OXT VAL d   1      44.522 -28.154 -19.068  0.00  0.00    -0.646 OA
ENDBRANCH  94  96
BRANCH  94  99
ATOM     99  CB  VAL d   1      41.293 -27.977 -20.154  0.00  0.00    -0.032 C 
ATOM    100  H67 VAL d   1      41.373 -28.177 -21.233  0.00  0.00     0.042 H 
BRANCH  99 101
ATOM    101  CG1 VAL d   1      39.835 -28.260 -19.726  0.00  0.00    -0.071 C 
ATOM    102  H68 VAL d   1      39.158 -27.571 -20.252  0.00  0.00     0.028 H 
ATOM    103  H69 VAL d   1      39.736 -28.113 -18.640  0.00  0.00     0.028 H 
ATOM    104  H70 VAL d   1      39.573 -29.297 -19.981  0.00  0.00     0.028 H 
ENDBRANCH  99 101
BRANCH  99 105
ATOM    105  CG2 VAL d   1      41.673 -26.502 -19.927  0.00  0.00    -0.071 C 
ATOM    106  H71 VAL d   1      42.714 -26.339 -20.242  0.00  0.00     0.028 H 
ATOM    107  H72 VAL d   1      41.570 -26.257 -18.860  0.00  0.00     0.028 H 
ATOM    108  H73 VAL d   1      41.006 -25.857 -20.517  0.00  0.00     0.028 H 
ENDBRANCH  99 105
ENDBRANCH  94  99
ENDBRANCH  92  94
ENDBRANCH  88  90
BRANCH  88 109
ATOM    109  CB  SER d   1      43.632 -28.878 -15.067  0.00  0.00     0.044 C 
ATOM    110  H62 SER d   1      43.627 -27.836 -15.418  0.00  0.00     0.077 H 
ATOM    111  H63 SER d   1      44.543 -29.381 -15.423  0.00  0.00     0.077 H 
BRANCH 109 112
ATOM    112  OG  SER d   1      43.637 -28.879 -13.652  0.00  0.00    -0.398 OA
ATOM    113  H64 SER d   1      43.648 -29.775 -13.337  0.00  0.00     0.209 HD
ENDBRANCH 109 112
ENDBRANCH  88 109
ENDBRANCH  86  88
ENDBRANCH  82  84
BRANCH  82 114
ATOM    114  CB  ILE d   1      40.543 -33.669 -14.804  0.00  0.00    -0.030 C 
ATOM    115  H51 ILE d   1      40.962 -33.454 -15.798  0.00  0.00     0.043 H 
BRANCH 114 116
ATOM    116  CG1 ILE d   1      39.035 -33.452 -14.890  0.00  0.00    -0.063 C 
ATOM    117  H52 ILE d   1      38.853 -32.489 -15.389  0.00  0.00     0.033 H 
ATOM    118  H53 ILE d   1      38.633 -33.417 -13.867  0.00  0.00     0.033 H 
BRANCH 116 119
ATOM    119  CD1 ILE d   1      38.283 -34.546 -15.666  0.00  0.00    -0.076 C 
ATOM    120  H57 ILE d   1      37.208 -34.313 -15.680  0.00  0.00     0.027 H 
ATOM    121  H58 ILE d   1      38.441 -35.518 -15.176  0.00  0.00     0.027 H 
ATOM    122  H59 ILE d   1      38.662 -34.590 -16.698  0.00  0.00     0.027 H 
ENDBRANCH 116 119
ENDBRANCH 114 116
BRANCH 114 123
ATOM    123  CG2 ILE d   1      40.897 -35.135 -14.461  0.00  0.00    -0.071 C 
ATOM    124  H54 ILE d   1      41.990 -35.246 -14.409  0.00  0.00     0.028 H 
ATOM    125  H55 ILE d   1      40.498 -35.801 -15.240  0.00  0.00     0.028 H 
ATOM    126  H56 ILE d   1      40.455 -35.401 -13.489  0.00  0.00     0.028 H 
ENDBRANCH 114 123
ENDBRANCH  82 114
ENDBRANCH  80  82
ENDBRANCH  76  78
BRANCH  76 127
ATOM    127  CB  SER d   1      41.558 -32.745  -9.160  0.00  0.00     0.044 C 
ATOM    128  H46 SER d   1      42.172 -33.489  -8.632  0.00  0.00     0.077 H 
ATOM    129  H47 SER d   1      40.958 -32.181  -8.431  0.00  0.00     0.077 H 
BRANCH 127 130
ATOM    130  OG  SER d   1      42.408 -31.847  -9.869  0.00  0.00    -0.398 OA
ATOM    131  H48 SER d   1      42.927 -32.334 -10.498  0.00  0.00     0.209 HD
ENDBRANCH 127 130
ENDBRANCH  76 127
ENDBRANCH  74  76
ENDBRANCH   1  72
BRANCH   1 132
ATOM    132  CB  LEU d   1      39.036 -37.591 -10.577  0.00  0.00    -0.035 C 
ATOM    133  H35 LEU d   1      39.492 -38.563 -10.336  0.00  0.00     0.037 H 
ATOM    134  H36 LEU d   1      39.673 -37.055 -11.296  0.00  0.00     0.037 H 
BRANCH 132 135
ATOM    135  CG  LEU d   1      37.713 -37.888 -11.294  0.00  0.00    -0.059 C 
ATOM    136  H37 LEU d   1      36.960 -38.103 -10.521  0.00  0.00     0.038 H 
BRANCH 135 137
ATOM    137  CD1 LEU d   1      37.195 -36.716 -12.123  0.00  0.00    -0.073 C 
ATOM    138  H38 LEU d   1      36.248 -36.999 -12.606  0.00  0.00     0.028 H 
ATOM    139  H39 LEU d   1      37.936 -36.456 -12.893  0.00  0.00     0.028 H 
ATOM    140  H40 LEU d   1      37.027 -35.849 -11.467  0.00  0.00     0.028 H 
ENDBRANCH 135 137
BRANCH 135 141
ATOM    141  CD2 LEU d   1      37.860 -39.133 -12.174  0.00  0.00    -0.073 C 
ATOM    142  H41 LEU d   1      38.234 -39.970 -11.566  0.00  0.00     0.028 H 
ATOM    143  H42 LEU d   1      38.571 -38.925 -12.988  0.00  0.00     0.028 H 
ATOM    144  H43 LEU d   1      36.881 -39.398 -12.601  0.00  0.00     0.028 H 
ENDBRANCH 135 141
ENDBRANCH 132 135
ENDBRANCH   1 132
TORSDOF 44
