REMARK  3 active torsions:
REMARK  status: ('A' for Active; 'I' for Inactive)
REMARK    1  A    between atoms: N1_1  and  C2_2 
REMARK    2  A    between atoms: C6_6  and  C8_8 
REMARK    3  A    between atoms: C14_14  and  C15_15 
ROOT
ATOM      1  C8  VX1 d   1      22.129  34.974   0.612  0.00  0.00    -0.006 A 
ATOM      2  C9  VX1 d   1      22.324  35.859   1.731  0.00  0.00    -0.068 A 
ATOM      3  C10 VX1 d   1      22.679  37.184   1.558  0.00  0.00    -0.051 A 
ATOM      4  C11 VX1 d   1      22.863  37.715   0.233  0.00  0.00     0.097 A 
ATOM      5  N12 VX1 d   1      23.185  38.875  -0.282  0.00  0.00    -0.127 NA
ATOM      6  O13 VX1 d   1      23.221  38.860  -1.488  0.00  0.00    -0.211 OA
ATOM      7  C14 VX1 d   1      22.924  37.668  -2.042  0.00  0.00     0.124 A 
ATOM      8  C22 VX1 d   1      22.663  36.807  -0.945  0.00  0.00     0.033 A 
ATOM      9  C23 VX1 d   1      22.297  35.447  -0.711  0.00  0.00    -0.056 A 
ATOM     10  H5  VX1 d   1      22.189  35.476   2.736  0.00  0.00     0.085 H 
ATOM     11  H6  VX1 d   1      22.819  37.824   2.422  0.00  0.00     0.087 H 
ATOM     12  H11 VX1 d   1      22.148  34.775  -1.549  0.00  0.00     0.086 H 
ENDROOT
BRANCH   1  13
ATOM     13  C6  VX1 d   1      21.741  33.536   0.829  0.00  0.00     0.087 A 
ATOM     14  C5  VX1 d   1      21.980  32.873   2.071  0.00  0.00    -0.036 A 
ATOM     15  C4  VX1 d   1      21.583  31.532   2.185  0.00  0.00     0.023 A 
ATOM     16  H4  VX1 d   1      22.453  33.389   2.899  0.00  0.00     0.089 H 
ATOM     17  N3  VX1 d   1      20.998  30.914   1.141  0.00  0.00    -0.075 NA
ATOM     18  H3  VX1 d   1      21.747  30.994   3.112  0.00  0.00     0.115 H 
ATOM     19  C2  VX1 d   1      20.784  31.558  -0.021  0.00  0.00     0.720 A 
ATOM     20  N7  VX1 d   1      21.144  32.841  -0.175  0.00  0.00    -0.063 NA
BRANCH  19  21
ATOM     21  N1  VX1 d   1      20.180  30.887  -1.071  0.00  0.00    -0.231 N 
ATOM     22  H1  VX1 d   1      19.901  29.902  -0.960  0.00  0.00     0.174 HD
ATOM     23  H2  VX1 d   1      20.010  31.373  -1.963  0.00  0.00     0.174 HD
ENDBRANCH  19  21
ENDBRANCH   1  13
BRANCH   7  24
ATOM     24  C15 VX1 d   1      22.898  37.392  -3.514  0.00  0.00     0.001 A 
ATOM     25  C16 VX1 d   1      22.676  36.079  -4.055  0.00  0.00    -0.069 A 
ATOM     26  C17 VX1 d   1      22.663  35.887  -5.452  0.00  0.00    -0.061 A 
ATOM     27  H7  VX1 d   1      22.519  35.237  -3.390  0.00  0.00     0.085 H 
ATOM     28  C18 VX1 d   1      22.870  36.985  -6.320  0.00  0.00     0.034 A 
ATOM     29  H8  VX1 d   1      22.494  34.898  -5.861  0.00  0.00     0.086 H 
ATOM     30 CL19 VX1 d   1      22.853  36.745  -8.038  0.00  0.00    -0.084 Cl
ATOM     31  C20 VX1 d   1      23.088  38.274  -5.799  0.00  0.00    -0.061 A 
ATOM     32  C21 VX1 d   1      23.104  38.484  -4.414  0.00  0.00    -0.069 A 
ATOM     33  H9  VX1 d   1      23.244  39.109  -6.473  0.00  0.00     0.086 H 
ATOM     34  H10 VX1 d   1      23.274  39.480  -4.022  0.00  0.00     0.085 H 
ENDBRANCH   7  24
TORSDOF 3
