REMARK WARNING: 32 MAX_TORS EXCEEDED!!!
REMARK  47 active torsions:
REMARK  status: ('A' for Active; 'I' for Inactive)
REMARK    1  A    between atoms: N_1  and  CA_2 
REMARK    2  A    between atoms: CA_2  and  C_3 
REMARK    3  A    between atoms: CA_2  and  CB_5 
REMARK       I    between atoms: C_3  and  N_12 
REMARK    4  A    between atoms: CB_5  and  CG_6 
REMARK    5  A    between atoms: CG_6  and  CD_7 
REMARK    6  A    between atoms: CD_7  and  NE_8 
REMARK       I    between atoms: NE_8  and  CZ_9 
REMARK       I    between atoms: CZ_9  and  NH1_10 
REMARK    7  A    between atoms: N_12  and  CA_13 
REMARK    8  A    between atoms: CA_13  and  C_14 
REMARK    9  A    between atoms: CA_13  and  CB_16 
REMARK       I    between atoms: C_14  and  N_21 
REMARK   10  A    between atoms: CB_16  and  CG_17 
REMARK   11  A    between atoms: CG_17  and  CD_18 
REMARK       I    between atoms: CD_18  and  NE2_20 
REMARK   12  A    between atoms: N_21  and  CA_22 
REMARK   13  A    between atoms: CA_22  and  C_23 
REMARK   14  A    between atoms: CA_22  and  CB_25 
REMARK       I    between atoms: C_23  and  N_26 
REMARK   15  A    between atoms: N_26  and  CA_27 
REMARK   16  A    between atoms: CA_27  and  CB_28 
REMARK   17  A    between atoms: CA_27  and  C_30 
REMARK   18  A    between atoms: CB_28  and  OG_29 
REMARK   19  A    between atoms: OG_29  and  P_32 
REMARK       I    between atoms: C_30  and  N_36 
REMARK   20  A    between atoms: N_36  and  CA_37 
REMARK   21  A    between atoms: CA_37  and  C_38 
REMARK   22  A    between atoms: CA_37  and  CB_40 
REMARK       I    between atoms: C_38  and  N_44 
REMARK   23  A    between atoms: CB_40  and  CG1_41 
REMARK   24  A    between atoms: CB_40  and  CG2_42 
REMARK   25  A    between atoms: CG1_41  and  CD1_43 
REMARK   26  A    between atoms: N_44  and  CA_45 
REMARK   27  A    between atoms: CA_45  and  C_46 
REMARK   28  A    between atoms: CA_45  and  CB_48 
REMARK       I    between atoms: C_46  and  N_53 
REMARK   29  A    between atoms: CB_48  and  CG_49 
REMARK   30  A    between atoms: CG_49  and  CD_50 
REMARK   31  A    between atoms: N_53  and  CA_54 
REMARK   32  A    between atoms: CA_54  and  C_55 
REMARK   33  A    between atoms: CA_54  and  CB_57 
REMARK       I    between atoms: C_55  and  N_61 
REMARK   34  A    between atoms: CB_57  and  CG_58 
REMARK   35  A    between atoms: CG_58  and  CD1_59 
REMARK   36  A    between atoms: CG_58  and  CD2_60 
REMARK   37  A    between atoms: CA_62  and  C_63 
REMARK       I    between atoms: C_63  and  N_68 
REMARK   38  A    between atoms: N_68  and  CA_69 
REMARK   39  A    between atoms: CA_69  and  C_70 
REMARK   40  A    between atoms: CA_69  and  CB_72 
REMARK       I    between atoms: C_70  and  N_74 
REMARK   41  A    between atoms: CB_72  and  OG_73 
REMARK   42  A    between atoms: N_74  and  CA_75 
REMARK   43  A    between atoms: CA_75  and  C_76 
REMARK   44  A    between atoms: CA_75  and  CB_78 
REMARK   45  A    between atoms: CB_78  and  CG_79 
REMARK   46  A    between atoms: CG_79  and  SD_80 
REMARK   47  A    between atoms: SD_80  and  CE_81 
ROOT
ATOM      1  CA  ILE d   1     -37.778 -37.084   9.079  0.00  0.00     0.092 C 
ATOM      2  H34 ILE d   1     -38.646 -37.696   8.793  0.00  0.00     0.088 H 
ENDROOT
BRANCH   1   3
ATOM      3  N   ILE d   1     -36.743 -37.172   8.046  0.00  0.00    -0.346 N 
ATOM      4  C   SEP d   1     -36.726 -38.115   7.121  0.00  0.00     0.243 C 
ATOM      5  O   SEP d   1     -37.623 -38.957   6.970  0.00  0.00    -0.271 OA
ATOM      6  H33 ILE d   1     -36.015 -36.486   8.041  0.00  0.00     0.163 HD
BRANCH   4   7
ATOM      7  CA  SEP d   1     -35.489 -38.132   6.240  0.00  0.00     0.110 C 
ATOM      8  H30 SEP d   1     -35.367 -37.132   5.798  0.00  0.00     0.090 H 
BRANCH   7   9
ATOM      9  N   SEP d   1     -34.288 -38.433   7.033  0.00  0.00    -0.344 N 
ATOM     10  C   ALA d   1     -33.541 -37.454   7.543  0.00  0.00     0.240 C 
ATOM     11  O   ALA d   1     -33.747 -36.243   7.310  0.00  0.00    -0.271 OA
ATOM     12  H29 SEP d   1     -34.028 -39.385   7.192  0.00  0.00     0.163 HD
BRANCH  10  13
ATOM     13  CA  ALA d   1     -32.386 -37.900   8.456  0.00  0.00     0.086 C 
ATOM     14  H25 ALA d   1     -32.161 -38.951   8.221  0.00  0.00     0.086 H 
BRANCH  13  15
ATOM     15  N   ALA d   1     -31.135 -37.108   8.245  0.00  0.00    -0.346 N 
ATOM     16  C   GLN d   1     -30.543 -37.066   7.057  0.00  0.00     0.241 C 
ATOM     17  O   GLN d   1     -30.905 -37.755   6.099  0.00  0.00    -0.271 OA
ATOM     18  H24 ALA d   1     -30.738 -36.602   9.011  0.00  0.00     0.163 HD
BRANCH  16  19
ATOM     19  CA  GLN d   1     -29.388 -36.055   6.906  0.00  0.00     0.090 C 
ATOM     20  H17 GLN d   1     -28.874 -35.957   7.874  0.00  0.00     0.087 H 
BRANCH  19  21
ATOM     21  N   GLN d   1     -28.397 -36.461   5.894  0.00  0.00    -0.346 N 
ATOM     22  C   ARG d   1     -27.555 -37.480   6.097  0.00  0.00     0.248 C 
ATOM     23  O   ARG d   1     -27.563 -38.175   7.118  0.00  0.00    -0.271 OA
ATOM     24  H16 GLN d   1     -28.353 -35.960   5.030  0.00  0.00     0.163 HD
BRANCH  22  25
ATOM     25  CA  ARG d   1     -26.570 -37.761   4.985  0.00  0.00     0.176 C 
ATOM     26  H4  ARG d   1     -26.634 -36.936   4.260  0.00  0.00     0.099 H 
BRANCH  25  27
ATOM     27  N   ARG d   1     -25.159 -37.815   5.506  0.00  0.00    -0.067 N 
ATOM     28  H1  ARG d   1     -24.526 -38.003   4.744  0.00  0.00     0.275 HD
ATOM     29  H2  ARG d   1     -25.083 -38.547   6.195  0.00  0.00     0.275 HD
ATOM     30  H3  ARG d   1     -24.923 -36.931   5.928  0.00  0.00     0.275 HD
ENDBRANCH  25  27
BRANCH  25  31
ATOM     31  CB  ARG d   1     -26.922 -39.070   4.251  0.00  0.00    -0.029 C 
ATOM     32  H5  ARG d   1     -26.795 -39.902   4.959  0.00  0.00     0.036 H 
ATOM     33  H6  ARG d   1     -26.219 -39.190   3.414  0.00  0.00     0.036 H 
BRANCH  31  34
ATOM     34  CG  ARG d   1     -28.358 -39.141   3.683  0.00  0.00    -0.047 C 
ATOM     35  H7  ARG d   1     -28.482 -38.372   2.906  0.00  0.00     0.035 H 
ATOM     36  H8  ARG d   1     -29.081 -38.964   4.493  0.00  0.00     0.035 H 
BRANCH  34  37
ATOM     37  CD  ARG d   1     -28.607 -40.529   3.071  0.00  0.00     0.009 C 
ATOM     38  H9  ARG d   1     -28.455 -41.304   3.837  0.00  0.00     0.064 H 
ATOM     39  H10 ARG d   1     -27.910 -40.696   2.237  0.00  0.00     0.064 H 
BRANCH  37  40
ATOM     40  NE  ARG d   1     -29.993 -40.586   2.577  0.00  0.00    -0.227 N 
ATOM     41  CZ  ARG d   1     -30.371 -40.972   1.362  0.00  0.00     0.665 C 
ATOM     42  NH1 ARG d   1     -29.473 -41.393   0.469  0.00  0.00    -0.235 N 
ATOM     43  NH2 ARG d   1     -31.674 -40.962   1.051  0.00  0.00    -0.235 N 
ATOM     44  H12 ARG d   1     -29.779 -41.689  -0.469  0.00  0.00     0.174 HD
ATOM     45  H13 ARG d   1     -28.474 -41.422   0.718  0.00  0.00     0.174 HD
ATOM     46  H14 ARG d   1     -32.366 -40.637   1.741  0.00  0.00     0.174 HD
ATOM     47  H15 ARG d   1     -31.984 -41.279   0.121  0.00  0.00     0.174 HD
ATOM     48  H11 ARG d   1     -30.736 -40.301   3.231  0.00  0.00     0.177 HD
ENDBRANCH  37  40
ENDBRANCH  34  37
ENDBRANCH  31  34
ENDBRANCH  25  31
ENDBRANCH  22  25
ENDBRANCH  19  21
BRANCH  19  49
ATOM     49  CB  GLN d   1     -30.000 -34.714   6.520  0.00  0.00    -0.030 C 
ATOM     50  H18 GLN d   1     -30.938 -34.596   7.082  0.00  0.00     0.037 H 
ATOM     51  H19 GLN d   1     -30.219 -34.739   5.442  0.00  0.00     0.037 H 
BRANCH  49  52
ATOM     52  CG  GLN d   1     -29.145 -33.511   6.790  0.00  0.00     0.011 C 
ATOM     53  H20 GLN d   1     -28.128 -33.700   6.415  0.00  0.00     0.047 H 
ATOM     54  H21 GLN d   1     -29.108 -33.331   7.875  0.00  0.00     0.047 H 
BRANCH  52  55
ATOM     55  CD  GLN d   1     -29.698 -32.303   6.114  0.00  0.00     0.215 C 
ATOM     56  OE1 GLN d   1     -30.306 -31.457   6.761  0.00  0.00    -0.274 OA
ATOM     57  NE2 GLN d   1     -29.562 -32.243   4.799  0.00  0.00    -0.370 N 
ATOM     58  H22 GLN d   1     -29.915 -31.454   4.295  0.00  0.00     0.159 HD
ATOM     59  H23 GLN d   1     -29.106 -32.986   4.309  0.00  0.00     0.159 HD
ENDBRANCH  52  55
ENDBRANCH  49  52
ENDBRANCH  19  49
ENDBRANCH  16  19
ENDBRANCH  13  15
BRANCH  13  60
ATOM     60  CB  ALA d   1     -32.818 -37.816   9.929  0.00  0.00    -0.049 C 
ATOM     61  H26 ALA d   1     -33.738 -38.401  10.075  0.00  0.00     0.030 H 
ATOM     62  H27 ALA d   1     -33.005 -36.766  10.197  0.00  0.00     0.030 H 
ATOM     63  H28 ALA d   1     -32.020 -38.221  10.569  0.00  0.00     0.030 H 
ENDBRANCH  13  60
ENDBRANCH  10  13
ENDBRANCH   7   9
BRANCH   7  64
ATOM     64  CB  SEP d   1     -35.653 -39.138   5.108  0.00  0.00     0.059 C 
ATOM     65  H31 SEP d   1     -36.488 -38.833   4.460  0.00  0.00     0.079 H 
ATOM     66  H32 SEP d   1     -35.858 -40.135   5.526  0.00  0.00     0.079 H 
BRANCH  64  67
ATOM     67  OG  SEP d   1     -34.456 -39.174   4.356  0.00  0.00    -0.280 OA
BRANCH  67  68
ATOM     68  P   SEP d   1     -34.632 -39.017   2.783  0.00  0.00     0.422 P 
ATOM     69  O1P SEP d   1     -33.169 -38.795   2.166  0.00  0.00    -0.617 OA
ATOM     70  O2P SEP d   1     -35.668 -37.849   2.387  0.00  0.00    -0.617 OA
ATOM     71  O3P SEP d   1     -35.263 -40.377   2.256  0.00  0.00    -0.617 OA
ENDBRANCH  67  68
ENDBRANCH  64  67
ENDBRANCH   7  64
ENDBRANCH   4   7
ENDBRANCH   1   3
BRANCH   1  72
ATOM     72  C   ILE d   1     -38.183 -35.623   9.190  0.00  0.00     0.241 C 
ATOM     73  O   ILE d   1     -37.323 -34.758   9.331  0.00  0.00    -0.271 OA
ATOM     74  N   GLU d   1     -39.477 -35.347   9.086  0.00  0.00    -0.346 N 
ATOM     75  H44 GLU d   1     -40.103 -36.053   8.754  0.00  0.00     0.163 HD
BRANCH  74  76
ATOM     76  CA  GLU d   1     -40.006 -34.036   9.445  0.00  0.00     0.090 C 
ATOM     77  H45 GLU d   1     -39.216 -33.281   9.324  0.00  0.00     0.087 H 
BRANCH  76  78
ATOM     78  C   GLU d   1     -40.408 -34.108  10.924  0.00  0.00     0.241 C 
ATOM     79  O   GLU d   1     -41.240 -34.919  11.299  0.00  0.00    -0.271 OA
ATOM     80  N   LEU d   1     -39.771 -33.308  11.776  0.00  0.00    -0.346 N 
ATOM     81  H50 LEU d   1     -39.070 -32.680  11.439  0.00  0.00     0.163 HD
BRANCH  80  82
ATOM     82  CA  LEU d   1     -40.091 -33.343  13.205  0.00  0.00     0.090 C 
ATOM     83  H51 LEU d   1     -40.275 -34.391  13.485  0.00  0.00     0.087 H 
BRANCH  82  84
ATOM     84  C   LEU d   1     -41.377 -32.555  13.483  0.00  0.00     0.243 C 
ATOM     85  O   LEU d   1     -41.683 -31.612  12.749  0.00  0.00    -0.271 OA
ATOM     86  N   PRO d   1     -42.156 -32.955  14.509  0.00  0.00    -0.337 N 
ATOM     87  CA  PRO d   1     -43.393 -32.221  14.758  0.00  0.00     0.091 C 
ATOM     88  CD  PRO d   1     -41.974 -34.048  15.478  0.00  0.00    -0.001 C 
ATOM     89  CB  PRO d   1     -44.135 -33.090  15.791  0.00  0.00    -0.036 C 
ATOM     90  H61 PRO d   1     -43.983 -32.098  13.838  0.00  0.00     0.087 H 
ATOM     91  CG  PRO d   1     -43.382 -34.378  15.853  0.00  0.00    -0.048 C 
ATOM     92  H62 PRO d   1     -45.172 -33.267  15.469  0.00  0.00     0.036 H 
ATOM     93  H63 PRO d   1     -44.136 -32.599  16.775  0.00  0.00     0.036 H 
ATOM     94  H64 PRO d   1     -43.807 -35.104  15.144  0.00  0.00     0.035 H 
ATOM     95  H65 PRO d   1     -43.419 -34.794  16.870  0.00  0.00     0.035 H 
ATOM     96  H66 PRO d   1     -41.397 -33.713  16.352  0.00  0.00     0.064 H 
ATOM     97  H67 PRO d   1     -41.472 -34.911  15.016  0.00  0.00     0.064 H 
BRANCH  87  98
ATOM     98  C   PRO d   1     -43.065 -30.869  15.358  0.00  0.00     0.241 C 
ATOM     99  O   PRO d   1     -41.928 -30.647  15.794  0.00  0.00    -0.271 OA
ATOM    100  N   SER d   1     -44.044 -29.968  15.349  0.00  0.00    -0.344 N 
ATOM    101  H68 SER d   1     -44.890 -30.168  14.855  0.00  0.00     0.163 HD
BRANCH 100 102
ATOM    102  CA  SER d   1     -43.906 -28.697  16.044  0.00  0.00     0.109 C 
ATOM    103  H69 SER d   1     -43.102 -28.113  15.572  0.00  0.00     0.090 H 
BRANCH 102 104
ATOM    104  C   SER d   1     -43.550 -28.956  17.504  0.00  0.00     0.243 C 
ATOM    105  O   SER d   1     -44.007 -29.929  18.102  0.00  0.00    -0.271 OA
ATOM    106  N   MET d   1     -42.739 -28.076  18.074  0.00  0.00    -0.345 N 
ATOM    107  H73 MET d   1     -42.298 -27.374  17.515  0.00  0.00     0.163 HD
BRANCH 106 108
ATOM    108  CA  MET d   1     -42.486 -28.123  19.500  0.00  0.00     0.097 C 
ATOM    109  H74 MET d   1     -42.274 -29.168  19.771  0.00  0.00     0.089 H 
BRANCH 108 110
ATOM    110  C   MET d   1     -43.688 -27.663  20.314  0.00  0.00     0.196 C 
ATOM    111  O   MET d   1     -43.703 -27.849  21.534  0.00  0.00    -0.646 OA
ATOM    112  OXT MET d   1     -44.650 -27.120  19.766  0.00  0.00    -0.646 OA
ENDBRANCH 108 110
BRANCH 108 113
ATOM    113  CB  MET d   1     -41.274 -27.290  19.842  0.00  0.00    -0.029 C 
ATOM    114  H75 MET d   1     -41.271 -27.104  20.926  0.00  0.00     0.037 H 
ATOM    115  H76 MET d   1     -41.344 -26.332  19.306  0.00  0.00     0.037 H 
BRANCH 113 116
ATOM    116  CG  MET d   1     -39.967 -27.964  19.462  0.00  0.00    -0.021 C 
ATOM    117  H77 MET d   1     -39.895 -28.072  18.370  0.00  0.00     0.049 H 
ATOM    118  H78 MET d   1     -39.895 -28.955  19.934  0.00  0.00     0.049 H 
BRANCH 116 119
ATOM    119  SD  MET d   1     -38.687 -26.903  20.061  0.00  0.00    -0.173 SA
BRANCH 119 120
ATOM    120  CE  MET d   1     -39.482 -26.355  21.541  0.00  0.00    -0.035 C 
ATOM    121  H79 MET d   1     -38.820 -25.659  22.077  0.00  0.00     0.041 H 
ATOM    122  H80 MET d   1     -39.700 -27.221  22.183  0.00  0.00     0.041 H 
ATOM    123  H81 MET d   1     -40.422 -25.843  21.285  0.00  0.00     0.041 H 
ENDBRANCH 119 120
ENDBRANCH 116 119
ENDBRANCH 113 116
ENDBRANCH 108 113
ENDBRANCH 106 108
ENDBRANCH 102 104
BRANCH 102 124
ATOM    124  CB  SER d   1     -45.216 -27.902  15.963  0.00  0.00     0.044 C 
ATOM    125  H70 SER d   1     -45.264 -27.196  16.805  0.00  0.00     0.077 H 
ATOM    126  H71 SER d   1     -46.066 -28.598  16.019  0.00  0.00     0.077 H 
BRANCH 124 127
ATOM    127  OG  SER d   1     -45.281 -27.183  14.747  0.00  0.00    -0.398 OA
ATOM    128  H72 SER d   1     -46.096 -26.697  14.711  0.00  0.00     0.209 HD
ENDBRANCH 124 127
ENDBRANCH 102 124
ENDBRANCH 100 102
ENDBRANCH  87  98
ENDBRANCH  82  84
BRANCH  82 129
ATOM    129  CB  LEU d   1     -38.911 -32.843  14.044  0.00  0.00    -0.035 C 
ATOM    130  H52 LEU d   1     -39.278 -32.561  15.042  0.00  0.00     0.037 H 
ATOM    131  H53 LEU d   1     -38.473 -31.962  13.552  0.00  0.00     0.037 H 
BRANCH 129 132
ATOM    132  CG  LEU d   1     -37.824 -33.915  14.200  0.00  0.00    -0.059 C 
ATOM    133  H54 LEU d   1     -38.316 -34.899  14.191  0.00  0.00     0.038 H 
BRANCH 132 134
ATOM    134  CD1 LEU d   1     -36.833 -33.880  13.029  0.00  0.00    -0.073 C 
ATOM    135  H55 LEU d   1     -36.069 -34.659  13.172  0.00  0.00     0.028 H 
ATOM    136  H56 LEU d   1     -36.348 -32.894  12.989  0.00  0.00     0.028 H 
ATOM    137  H57 LEU d   1     -37.371 -34.063  12.087  0.00  0.00     0.028 H 
ENDBRANCH 132 134
BRANCH 132 138
ATOM    138  CD2 LEU d   1     -37.121 -33.762  15.526  0.00  0.00    -0.073 C 
ATOM    139  H58 LEU d   1     -37.861 -33.792  16.339  0.00  0.00     0.028 H 
ATOM    140  H59 LEU d   1     -36.589 -32.800  15.550  0.00  0.00     0.028 H 
ATOM    141  H60 LEU d   1     -36.401 -34.583  15.656  0.00  0.00     0.028 H 
ENDBRANCH 132 138
ENDBRANCH 129 132
ENDBRANCH  82 129
ENDBRANCH  80  82
ENDBRANCH  76  78
BRANCH  76 142
ATOM    142  CB  GLU d   1     -41.186 -33.645   8.540  0.00  0.00    -0.029 C 
ATOM    143  H46 GLU d   1     -41.905 -33.076   9.147  0.00  0.00     0.037 H 
ATOM    144  H47 GLU d   1     -41.660 -34.571   8.182  0.00  0.00     0.037 H 
BRANCH 142 145
ATOM    145  CG  GLU d   1     -40.821 -32.792   7.312  0.00  0.00     0.018 C 
ATOM    146  H48 GLU d   1     -39.816 -32.371   7.464  0.00  0.00     0.049 H 
ATOM    147  H49 GLU d   1     -41.552 -31.974   7.223  0.00  0.00     0.049 H 
BRANCH 145 148
ATOM    148  CD  GLU d   1     -40.823 -33.589   6.012  0.00  0.00     0.172 C 
ATOM    149  OE1 GLU d   1     -41.626 -34.552   5.895  0.00  0.00    -0.648 OA
ATOM    150  OE2 GLU d   1     -40.020 -33.251   5.105  0.00  0.00    -0.648 OA
ENDBRANCH 145 148
ENDBRANCH 142 145
ENDBRANCH  76 142
ENDBRANCH  74  76
ENDBRANCH   1  72
BRANCH   1 151
ATOM    151  CB  ILE d   1     -37.223 -37.580  10.445  0.00  0.00    -0.030 C 
ATOM    152  H35 ILE d   1     -36.323 -36.990  10.673  0.00  0.00     0.043 H 
BRANCH 151 153
ATOM    153  CG1 ILE d   1     -36.798 -39.050  10.350  0.00  0.00    -0.063 C 
ATOM    154  H36 ILE d   1     -36.185 -39.170   9.445  0.00  0.00     0.033 H 
ATOM    155  H37 ILE d   1     -37.707 -39.663  10.261  0.00  0.00     0.033 H 
BRANCH 153 156
ATOM    156  CD1 ILE d   1     -35.982 -39.573  11.555  0.00  0.00    -0.076 C 
ATOM    157  H41 ILE d   1     -35.726 -40.631  11.393  0.00  0.00     0.027 H 
ATOM    158  H42 ILE d   1     -36.581 -39.477  12.473  0.00  0.00     0.027 H 
ATOM    159  H43 ILE d   1     -35.059 -38.984  11.656  0.00  0.00     0.027 H 
ENDBRANCH 153 156
ENDBRANCH 151 153
BRANCH 151 160
ATOM    160  CG2 ILE d   1     -38.241 -37.334  11.597  0.00  0.00    -0.071 C 
ATOM    161  H38 ILE d   1     -38.514 -36.269  11.624  0.00  0.00     0.028 H 
ATOM    162  H39 ILE d   1     -37.785 -37.620  12.556  0.00  0.00     0.028 H 
ATOM    163  H40 ILE d   1     -39.143 -37.939  11.425  0.00  0.00     0.028 H 
ENDBRANCH 151 160
ENDBRANCH   1 151
TORSDOF 47
