REMARK WARNING: 32 MAX_TORS EXCEEDED!!!
REMARK  46 active torsions:
REMARK  status: ('A' for Active; 'I' for Inactive)
REMARK    1  A    between atoms: N_1  and  CA_2 
REMARK    2  A    between atoms: CA_2  and  C_3 
REMARK    3  A    between atoms: CA_2  and  CB_5 
REMARK       I    between atoms: C_3  and  N_12 
REMARK    4  A    between atoms: CB_5  and  CG_6 
REMARK    5  A    between atoms: CG_6  and  CD_7 
REMARK    6  A    between atoms: CD_7  and  NE_8 
REMARK       I    between atoms: NE_8  and  CZ_9 
REMARK       I    between atoms: CZ_9  and  NH1_10 
REMARK    7  A    between atoms: N_12  and  CA_13 
REMARK    8  A    between atoms: CA_13  and  C_14 
REMARK    9  A    between atoms: CA_13  and  CB_16 
REMARK       I    between atoms: C_14  and  N_19 
REMARK   10  A    between atoms: CB_16  and  OG1_17 
REMARK   11  A    between atoms: CB_16  and  CG2_18 
REMARK   12  A    between atoms: N_19  and  CA_20 
REMARK   13  A    between atoms: CA_20  and  C_21 
REMARK   14  A    between atoms: CA_20  and  CB_23 
REMARK       I    between atoms: C_21  and  N_31 
REMARK   15  A    between atoms: CB_23  and  CG_24 
REMARK   16  A    between atoms: CZ_29  and  OH_30 
REMARK   17  A    between atoms: N_31  and  CA_32 
REMARK   18  A    between atoms: CA_32  and  CB_33 
REMARK   19  A    between atoms: CA_32  and  C_35 
REMARK   20  A    between atoms: CB_33  and  OG_34 
REMARK   21  A    between atoms: OG_34  and  P_37 
REMARK       I    between atoms: C_35  and  N_41 
REMARK   22  A    between atoms: N_41  and  CA_42 
REMARK   23  A    between atoms: CA_42  and  C_43 
REMARK       I    between atoms: C_43  and  N_45 
REMARK   24  A    between atoms: CA_46  and  C_47 
REMARK       I    between atoms: C_47  and  N_52 
REMARK   25  A    between atoms: N_52  and  CA_53 
REMARK   26  A    between atoms: CA_53  and  C_54 
REMARK   27  A    between atoms: CA_53  and  CB_56 
REMARK       I    between atoms: C_54  and  N_60 
REMARK   28  A    between atoms: CB_56  and  CG_57 
REMARK   29  A    between atoms: CG_57  and  SD_58 
REMARK   30  A    between atoms: SD_58  and  CE_59 
REMARK   31  A    between atoms: N_60  and  CA_61 
REMARK   32  A    between atoms: CA_61  and  C_62 
REMARK   33  A    between atoms: CA_61  and  CB_64 
REMARK       I    between atoms: C_62  and  N_68 
REMARK   34  A    between atoms: CB_64  and  CG_65 
REMARK       I    between atoms: CG_65  and  ND2_67 
REMARK   35  A    between atoms: N_68  and  CA_69 
REMARK   36  A    between atoms: CA_69  and  C_70 
REMARK   37  A    between atoms: CA_69  and  CB_72 
REMARK       I    between atoms: C_70  and  N_77 
REMARK   38  A    between atoms: CB_72  and  CG_73 
REMARK   39  A    between atoms: CG_73  and  CD_74 
REMARK   40  A    between atoms: CD_74  and  CE_75 
REMARK   41  A    between atoms: CE_75  and  NZ_76 
REMARK   42  A    between atoms: N_77  and  CA_78 
REMARK   43  A    between atoms: CA_78  and  C_79 
REMARK   44  A    between atoms: CA_78  and  CB_81 
REMARK   45  A    between atoms: CB_81  and  CG1_82 
REMARK   46  A    between atoms: CB_81  and  CG2_83 
ROOT
ATOM      1  C   GLY d   1     -39.303 -37.739   9.261  0.00  0.00     0.238 C 
ATOM      2  O   GLY d   1     -39.027 -38.953   9.232  0.00  0.00    -0.272 OA
ATOM      3  N   PRO d   1     -40.555 -37.274   9.447  0.00  0.00    -0.337 N 
ATOM      4  CA  PRO d   1     -40.966 -35.843   9.569  0.00  0.00     0.091 C 
ATOM      5  CB  PRO d   1     -42.491 -35.928   9.761  0.00  0.00    -0.036 C 
ATOM      6  CG  PRO d   1     -42.746 -37.358  10.261  0.00  0.00    -0.048 C 
ATOM      7  CD  PRO d   1     -41.701 -38.201   9.570  0.00  0.00    -0.001 C 
ATOM      8  H39 PRO d   1     -40.705 -35.291   8.654  0.00  0.00     0.087 H 
ATOM      9  H40 PRO d   1     -43.012 -35.752   8.808  0.00  0.00     0.036 H 
ATOM     10  H41 PRO d   1     -42.829 -35.192  10.505  0.00  0.00     0.036 H 
ATOM     11  H42 PRO d   1     -43.757 -37.691   9.984  0.00  0.00     0.035 H 
ATOM     12  H43 PRO d   1     -42.628 -37.413  11.353  0.00  0.00     0.035 H 
ATOM     13  H44 PRO d   1     -41.436 -39.079  10.178  0.00  0.00     0.064 H 
ATOM     14  H45 PRO d   1     -42.050 -38.532   8.581  0.00  0.00     0.064 H 
ENDROOT
BRANCH   1  15
ATOM     15  CA  GLY d   1     -38.202 -36.704   9.124  0.00  0.00     0.069 C 
ATOM     16  H37 GLY d   1     -38.579 -35.843   8.552  0.00  0.00     0.078 H 
ATOM     17  H38 GLY d   1     -37.887 -36.370  10.124  0.00  0.00     0.078 H 
BRANCH  15  18
ATOM     18  N   GLY d   1     -37.054 -37.292   8.422  0.00  0.00    -0.350 N 
ATOM     19  C   SEP d   1     -37.067 -37.457   7.104  0.00  0.00     0.243 C 
ATOM     20  O   SEP d   1     -38.103 -37.380   6.409  0.00  0.00    -0.271 OA
ATOM     21  H36 GLY d   1     -36.249 -37.573   8.945  0.00  0.00     0.163 HD
BRANCH  19  22
ATOM     22  CA  SEP d   1     -35.726 -37.753   6.459  0.00  0.00     0.110 C 
ATOM     23  H33 SEP d   1     -35.497 -36.886   5.822  0.00  0.00     0.090 H 
BRANCH  22  24
ATOM     24  N   SEP d   1     -34.582 -37.882   7.393  0.00  0.00    -0.344 N 
ATOM     25  C   TYR d   1     -33.907 -36.820   7.822  0.00  0.00     0.241 C 
ATOM     26  O   TYR d   1     -34.177 -35.670   7.476  0.00  0.00    -0.271 OA
ATOM     27  H32 SEP d   1     -34.311 -38.791   7.708  0.00  0.00     0.163 HD
BRANCH  25  28
ATOM     28  CA  TYR d   1     -32.756 -37.097   8.783  0.00  0.00     0.093 C 
ATOM     29  H24 TYR d   1     -32.571 -38.181   8.797  0.00  0.00     0.088 H 
BRANCH  28  30
ATOM     30  N   TYR d   1     -31.534 -36.431   8.348  0.00  0.00    -0.346 N 
ATOM     31  C   THR d   1     -31.130 -36.471   7.083  0.00  0.00     0.243 C 
ATOM     32  O   THR d   1     -31.725 -37.100   6.208  0.00  0.00    -0.271 OA
ATOM     33  H23 TYR d   1     -30.986 -35.931   9.019  0.00  0.00     0.163 HD
BRANCH  31  34
ATOM     34  CA  THR d   1     -29.865 -35.684   6.755  0.00  0.00     0.113 C 
ATOM     35  H17 THR d   1     -29.291 -35.544   7.683  0.00  0.00     0.091 H 
BRANCH  34  36
ATOM     36  N   THR d   1     -29.025 -36.408   5.809  0.00  0.00    -0.344 N 
ATOM     37  C   ARG d   1     -27.946 -37.077   6.202  0.00  0.00     0.249 C 
ATOM     38  O   ARG d   1     -27.770 -37.441   7.365  0.00  0.00    -0.271 OA
ATOM     39  H16 THR d   1     -29.267 -36.401   4.839  0.00  0.00     0.163 HD
BRANCH  37  40
ATOM     40  CA  ARG d   1     -26.912 -37.383   5.124  0.00  0.00     0.176 C 
ATOM     41  H4  ARG d   1     -26.870 -36.527   4.434  0.00  0.00     0.099 H 
BRANCH  40  42
ATOM     42  N   ARG d   1     -25.586 -37.568   5.702  0.00  0.00    -0.067 N 
ATOM     43  H1  ARG d   1     -24.925 -37.768   4.968  0.00  0.00     0.275 HD
ATOM     44  H2  ARG d   1     -25.608 -38.337   6.354  0.00  0.00     0.275 HD
ATOM     45  H3  ARG d   1     -25.309 -36.727   6.184  0.00  0.00     0.275 HD
ENDBRANCH  40  42
BRANCH  40  46
ATOM     46  CB  ARG d   1     -27.329 -38.623   4.331  0.00  0.00    -0.029 C 
ATOM     47  H5  ARG d   1     -27.227 -39.502   4.985  0.00  0.00     0.036 H 
ATOM     48  H6  ARG d   1     -26.652 -38.726   3.470  0.00  0.00     0.036 H 
BRANCH  46  49
ATOM     49  CG  ARG d   1     -28.757 -38.577   3.812  0.00  0.00    -0.047 C 
ATOM     50  H7  ARG d   1     -28.797 -37.921   2.930  0.00  0.00     0.035 H 
ATOM     51  H8  ARG d   1     -29.411 -38.173   4.599  0.00  0.00     0.035 H 
BRANCH  49  52
ATOM     52  CD  ARG d   1     -29.248 -39.961   3.422  0.00  0.00     0.009 C 
ATOM     53  H9  ARG d   1     -29.392 -40.557   4.335  0.00  0.00     0.064 H 
ATOM     54  H10 ARG d   1     -28.489 -40.441   2.787  0.00  0.00     0.064 H 
BRANCH  52  55
ATOM     55  NE  ARG d   1     -30.510 -39.908   2.690  0.00  0.00    -0.227 N 
ATOM     56  CZ  ARG d   1     -30.612 -40.005   1.369  0.00  0.00     0.665 C 
ATOM     57  NH1 ARG d   1     -29.524 -40.161   0.627  0.00  0.00    -0.235 N 
ATOM     58  NH2 ARG d   1     -31.803 -39.947   0.788  0.00  0.00    -0.235 N 
ATOM     59  H12 ARG d   1     -29.605 -40.236  -0.397  0.00  0.00     0.174 HD
ATOM     60  H13 ARG d   1     -28.598 -40.207   1.075  0.00  0.00     0.174 HD
ATOM     61  H14 ARG d   1     -32.650 -39.826   1.361  0.00  0.00     0.174 HD
ATOM     62  H15 ARG d   1     -31.881 -40.023  -0.236  0.00  0.00     0.174 HD
ATOM     63  H11 ARG d   1     -31.377 -39.788   3.233  0.00  0.00     0.177 HD
ENDBRANCH  52  55
ENDBRANCH  49  52
ENDBRANCH  46  49
ENDBRANCH  40  46
ENDBRANCH  37  40
ENDBRANCH  34  36
BRANCH  34  64
ATOM     64  CB  THR d   1     -30.260 -34.298   6.214  0.00  0.00     0.060 C 
ATOM     65  H18 THR d   1     -29.604 -34.043   5.368  0.00  0.00     0.086 H 
BRANCH  64  66
ATOM     66  OG1 THR d   1     -30.104 -33.316   7.246  0.00  0.00    -0.393 OA
ATOM     67  H19 THR d   1     -30.663 -33.539   7.981  0.00  0.00     0.210 HD
ENDBRANCH  64  66
BRANCH  64  68
ATOM     68  CG2 THR d   1     -31.705 -34.303   5.739  0.00  0.00    -0.050 C 
ATOM     69  H20 THR d   1     -31.969 -33.306   5.357  0.00  0.00     0.031 H 
ATOM     70  H21 THR d   1     -32.366 -34.560   6.580  0.00  0.00     0.031 H 
ATOM     71  H22 THR d   1     -31.825 -35.047   4.937  0.00  0.00     0.031 H 
ENDBRANCH  64  68
ENDBRANCH  34  64
ENDBRANCH  31  34
ENDBRANCH  28  30
BRANCH  28  72
ATOM     72  CB  TYR d   1     -33.134 -36.653  10.197  0.00  0.00    -0.014 C 
ATOM     73  H25 TYR d   1     -33.351 -35.575  10.175  0.00  0.00     0.043 H 
ATOM     74  H26 TYR d   1     -32.276 -36.841  10.860  0.00  0.00     0.043 H 
BRANCH  72  75
ATOM     75  CG  TYR d   1     -34.339 -37.370  10.763  0.00  0.00    -0.056 A 
ATOM     76  CD1 TYR d   1     -34.425 -38.756  10.733  0.00  0.00    -0.074 A 
ATOM     77  CE1 TYR d   1     -35.524 -39.415  11.249  0.00  0.00    -0.051 A 
ATOM     78  H27 TYR d   1     -33.616 -39.331  10.297  0.00  0.00     0.084 H 
ATOM     79  CZ  TYR d   1     -36.556 -38.689  11.804  0.00  0.00     0.065 A 
ATOM     80  H29 TYR d   1     -35.575 -40.497  11.218  0.00  0.00     0.087 H 
ATOM     81  CE2 TYR d   1     -36.495 -37.312  11.846  0.00  0.00    -0.051 A 
ATOM     82  CD2 TYR d   1     -35.391 -36.661  11.328  0.00  0.00    -0.074 A 
ATOM     83  H30 TYR d   1     -37.308 -36.743  12.283  0.00  0.00     0.087 H 
ATOM     84  H28 TYR d   1     -35.346 -35.578  11.363  0.00  0.00     0.084 H 
BRANCH  79  85
ATOM     85  OH  TYR d   1     -37.653 -39.341  12.319  0.00  0.00    -0.361 OA
ATOM     86  H31 TYR d   1     -38.433 -39.060  11.856  0.00  0.00     0.217 HD
ENDBRANCH  79  85
ENDBRANCH  72  75
ENDBRANCH  28  72
ENDBRANCH  25  28
ENDBRANCH  22  24
BRANCH  22  87
ATOM     87  CB  SEP d   1     -35.832 -38.960   5.538  0.00  0.00     0.059 C 
ATOM     88  H34 SEP d   1     -36.734 -38.880   4.914  0.00  0.00     0.079 H 
ATOM     89  H35 SEP d   1     -35.877 -39.885   6.132  0.00  0.00     0.079 H 
BRANCH  87  90
ATOM     90  OG  SEP d   1     -34.693 -38.964   4.733  0.00  0.00    -0.280 OA
BRANCH  90  91
ATOM     91  P   SEP d   1     -34.923 -39.217   3.171  0.00  0.00     0.422 P 
ATOM     92  O1P SEP d   1     -33.521 -38.912   2.488  0.00  0.00    -0.617 OA
ATOM     93  O2P SEP d   1     -36.119 -38.288   2.657  0.00  0.00    -0.617 OA
ATOM     94  O3P SEP d   1     -35.279 -40.773   2.994  0.00  0.00    -0.617 OA
ENDBRANCH  90  91
ENDBRANCH  87  90
ENDBRANCH  22  87
ENDBRANCH  19  22
ENDBRANCH  15  18
ENDBRANCH   1  15
BRANCH   4  95
ATOM     95  C   PRO d   1     -40.368 -35.123  10.785  0.00  0.00     0.241 C 
ATOM     96  O   PRO d   1     -40.084 -35.766  11.796  0.00  0.00    -0.271 OA
ATOM     97  N   MET d   1     -40.173 -33.808  10.691  0.00  0.00    -0.346 N 
ATOM     98  H46 MET d   1     -40.349 -33.344   9.822  0.00  0.00     0.163 HD
BRANCH  97  99
ATOM     99  CA  MET d   1     -39.703 -33.029  11.846  0.00  0.00     0.090 C 
ATOM    100  H47 MET d   1     -39.022 -33.666  12.429  0.00  0.00     0.087 H 
BRANCH  99 101
ATOM    101  C   MET d   1     -40.878 -32.614  12.748  0.00  0.00     0.241 C 
ATOM    102  O   MET d   1     -41.553 -31.626  12.474  0.00  0.00    -0.271 OA
ATOM    103  N   ASN d   1     -41.085 -33.338  13.842  0.00  0.00    -0.346 N 
ATOM    104  H55 ASN d   1     -40.455 -34.079  14.073  0.00  0.00     0.163 HD
BRANCH 103 105
ATOM    105  CA  ASN d   1     -42.232 -33.058  14.714  0.00  0.00     0.097 C 
ATOM    106  H56 ASN d   1     -43.130 -32.975  14.085  0.00  0.00     0.088 H 
BRANCH 105 107
ATOM    107  C   ASN d   1     -42.054 -31.738  15.466  0.00  0.00     0.241 C 
ATOM    108  O   ASN d   1     -40.987 -31.491  16.011  0.00  0.00    -0.271 OA
ATOM    109  N   LYS d   1     -43.092 -30.896  15.483  0.00  0.00    -0.346 N 
ATOM    110  H61 LYS d   1     -43.929 -31.157  15.003  0.00  0.00     0.163 HD
BRANCH 109 111
ATOM    111  CA  LYS d   1     -43.053 -29.595  16.182  0.00  0.00     0.089 C 
ATOM    112  H62 LYS d   1     -42.174 -29.032  15.835  0.00  0.00     0.087 H 
BRANCH 111 113
ATOM    113  C   LYS d   1     -42.973 -29.768  17.690  0.00  0.00     0.241 C 
ATOM    114  O   LYS d   1     -43.522 -30.743  18.233  0.00  0.00    -0.271 OA
ATOM    115  N   VAL d   1     -42.365 -28.803  18.386  0.00  0.00    -0.344 N 
ATOM    116  H74 VAL d   1     -41.931 -28.041  17.906  0.00  0.00     0.163 HD
BRANCH 115 117
ATOM    117  CA  VAL d   1     -42.332 -28.857  19.854  0.00  0.00     0.099 C 
ATOM    118  H75 VAL d   1     -42.087 -29.895  20.124  0.00  0.00     0.090 H 
BRANCH 117 119
ATOM    119  C   VAL d   1     -43.699 -28.545  20.466  0.00  0.00     0.197 C 
ATOM    120  O   VAL d   1     -43.932 -28.851  21.651  0.00  0.00    -0.646 OA
ATOM    121  OXT VAL d   1     -44.566 -27.987  19.774  0.00  0.00    -0.646 OA
ENDBRANCH 117 119
BRANCH 117 122
ATOM    122  CB  VAL d   1     -41.230 -27.959  20.479  0.00  0.00    -0.032 C 
ATOM    123  H76 VAL d   1     -41.202 -28.162  21.560  0.00  0.00     0.042 H 
BRANCH 122 124
ATOM    124  CG1 VAL d   1     -39.874 -28.325  19.897  0.00  0.00    -0.071 C 
ATOM    125  H77 VAL d   1     -39.099 -27.686  20.344  0.00  0.00     0.028 H 
ATOM    126  H78 VAL d   1     -39.890 -28.175  18.807  0.00  0.00     0.028 H 
ATOM    127  H79 VAL d   1     -39.652 -29.379  20.119  0.00  0.00     0.028 H 
ENDBRANCH 122 124
BRANCH 122 128
ATOM    128  CG2 VAL d   1     -41.532 -26.451  20.295  0.00  0.00    -0.071 C 
ATOM    129  H80 VAL d   1     -42.517 -26.219  20.726  0.00  0.00     0.028 H 
ATOM    130  H81 VAL d   1     -41.533 -26.206  19.223  0.00  0.00     0.028 H 
ATOM    131  H82 VAL d   1     -40.760 -25.857  20.806  0.00  0.00     0.028 H 
ENDBRANCH 122 128
ENDBRANCH 117 122
ENDBRANCH 115 117
ENDBRANCH 111 113
BRANCH 111 132
ATOM    132  CB  LYS d   1     -44.330 -28.801  15.871  0.00  0.00    -0.038 C 
ATOM    133  H63 LYS d   1     -44.565 -28.176  16.745  0.00  0.00     0.036 H 
ATOM    134  H64 LYS d   1     -45.146 -29.519  15.704  0.00  0.00     0.036 H 
BRANCH 132 135
ATOM    135  CG  LYS d   1     -44.243 -27.893  14.652  0.00  0.00    -0.061 C 
ATOM    136  H65 LYS d   1     -43.416 -27.183  14.800  0.00  0.00     0.033 H 
ATOM    137  H66 LYS d   1     -45.189 -27.340  14.556  0.00  0.00     0.033 H 
BRANCH 135 138
ATOM    138  CD  LYS d   1     -44.002 -28.653  13.386  0.00  0.00    -0.043 C 
ATOM    139  H67 LYS d   1     -44.658 -29.535  13.361  0.00  0.00     0.035 H 
ATOM    140  H68 LYS d   1     -42.951 -28.976  13.350  0.00  0.00     0.035 H 
BRANCH 138 141
ATOM    141  CE  LYS d   1     -44.299 -27.770  12.183  0.00  0.00     0.080 C 
ATOM    142  H69 LYS d   1     -43.664 -26.873  12.227  0.00  0.00     0.075 H 
ATOM    143  H70 LYS d   1     -45.358 -27.471  12.205  0.00  0.00     0.075 H 
BRANCH 141 144
ATOM    144  NZ  LYS d   1     -44.024 -28.503  10.920  0.00  0.00    -0.079 N 
ATOM    145  H71 LYS d   1     -44.225 -27.905  10.134  0.00  0.00     0.274 HD
ATOM    146  H72 LYS d   1     -44.606 -29.325  10.875  0.00  0.00     0.274 HD
ATOM    147  H73 LYS d   1     -43.054 -28.776  10.894  0.00  0.00     0.274 HD
ENDBRANCH 141 144
ENDBRANCH 138 141
ENDBRANCH 135 138
ENDBRANCH 132 135
ENDBRANCH 111 132
ENDBRANCH 109 111
ENDBRANCH 105 107
BRANCH 105 148
ATOM    148  CB  ASN d   1     -42.435 -34.204  15.692  0.00  0.00     0.036 C 
ATOM    149  H57 ASN d   1     -42.891 -33.808  16.611  0.00  0.00     0.051 H 
ATOM    150  H58 ASN d   1     -41.455 -34.645  15.929  0.00  0.00     0.051 H 
BRANCH 148 151
ATOM    151  CG  ASN d   1     -43.337 -35.292  15.129  0.00  0.00     0.217 C 
ATOM    152  OD1 ASN d   1     -43.115 -35.788  14.003  0.00  0.00    -0.274 OA
ATOM    153  ND2 ASN d   1     -44.347 -35.682  15.902  0.00  0.00    -0.370 N 
ATOM    154  H59 ASN d   1     -44.973 -36.394  15.585  0.00  0.00     0.159 HD
ATOM    155  H60 ASN d   1     -44.480 -35.263  16.800  0.00  0.00     0.159 HD
ENDBRANCH 148 151
ENDBRANCH 105 148
ENDBRANCH 103 105
ENDBRANCH  99 101
BRANCH  99 156
ATOM    156  CB  MET d   1     -38.939 -31.769  11.416  0.00  0.00    -0.030 C 
ATOM    157  H48 MET d   1     -38.689 -31.207  12.328  0.00  0.00     0.037 H 
ATOM    158  H49 MET d   1     -39.616 -31.170  10.790  0.00  0.00     0.037 H 
BRANCH 156 159
ATOM    159  CG  MET d   1     -37.636 -31.971  10.626  0.00  0.00    -0.021 C 
ATOM    160  H50 MET d   1     -37.070 -31.029  10.658  0.00  0.00     0.049 H 
ATOM    161  H51 MET d   1     -37.903 -32.204   9.585  0.00  0.00     0.049 H 
BRANCH 159 162
ATOM    162  SD  MET d   1     -36.563 -33.286  11.234  0.00  0.00    -0.173 SA
BRANCH 162 163
ATOM    163  CE  MET d   1     -36.248 -32.835  12.940  0.00  0.00    -0.035 C 
ATOM    164  H52 MET d   1     -35.593 -33.587  13.403  0.00  0.00     0.041 H 
ATOM    165  H53 MET d   1     -37.200 -32.790  13.489  0.00  0.00     0.041 H 
ATOM    166  H54 MET d   1     -35.758 -31.851  12.975  0.00  0.00     0.041 H 
ENDBRANCH 162 163
ENDBRANCH 159 162
ENDBRANCH 156 159
ENDBRANCH  99 156
ENDBRANCH  97  99
ENDBRANCH   4  95
TORSDOF 46
