REMARK WARNING: 32 MAX_TORS EXCEEDED!!!
REMARK  53 active torsions:
REMARK  status: ('A' for Active; 'I' for Inactive)
REMARK    1  A    between atoms: N_1  and  CA_2 
REMARK    2  A    between atoms: CA_2  and  C_3 
REMARK    3  A    between atoms: CA_2  and  CB_5 
REMARK       I    between atoms: C_3  and  N_10 
REMARK    4  A    between atoms: CB_5  and  CG_6 
REMARK    5  A    between atoms: CG_6  and  CD_7 
REMARK    6  A    between atoms: CD_7  and  CE_8 
REMARK    7  A    between atoms: CE_8  and  NZ_9 
REMARK    8  A    between atoms: N_10  and  CA_11 
REMARK    9  A    between atoms: CA_11  and  C_12 
REMARK   10  A    between atoms: CA_11  and  CB_14 
REMARK       I    between atoms: C_12  and  N_18 
REMARK   11  A    between atoms: CB_14  and  CG_15 
REMARK   12  A    between atoms: CG_15  and  SD_16 
REMARK   13  A    between atoms: SD_16  and  CE_17 
REMARK   14  A    between atoms: N_18  and  CA_19 
REMARK   15  A    between atoms: CA_19  and  C_20 
REMARK   16  A    between atoms: CA_19  and  CB_22 
REMARK       I    between atoms: C_20  and  N_26 
REMARK   17  A    between atoms: CB_22  and  CG_23 
REMARK   18  A    between atoms: N_26  and  CA_27 
REMARK   19  A    between atoms: CA_27  and  CB_28 
REMARK   20  A    between atoms: CA_27  and  C_30 
REMARK   21  A    between atoms: CB_28  and  OG_29 
REMARK   22  A    between atoms: OG_29  and  P_32 
REMARK       I    between atoms: C_30  and  N_36 
REMARK   23  A    between atoms: N_36  and  CA_37 
REMARK   24  A    between atoms: CA_37  and  C_38 
REMARK   25  A    between atoms: CA_37  and  CB_40 
REMARK       I    between atoms: C_38  and  N_47 
REMARK   26  A    between atoms: CB_40  and  CG_41 
REMARK   27  A    between atoms: N_47  and  CA_48 
REMARK   28  A    between atoms: CA_48  and  C_49 
REMARK   29  A    between atoms: CA_48  and  CB_51 
REMARK       I    between atoms: C_49  and  N_55 
REMARK   30  A    between atoms: CB_51  and  CG_52 
REMARK   31  A    between atoms: CG_52  and  CD1_53 
REMARK   32  A    between atoms: CG_52  and  CD2_54 
REMARK   33  A    between atoms: N_55  and  CA_56 
REMARK   34  A    between atoms: CA_56  and  C_57 
REMARK   35  A    between atoms: CA_56  and  CB_59 
REMARK       I    between atoms: C_57  and  N_63 
REMARK   36  A    between atoms: CB_59  and  CG_60 
REMARK   37  A    between atoms: N_63  and  CA_64 
REMARK   38  A    between atoms: CA_64  and  C_65 
REMARK   39  A    between atoms: CA_64  and  CB_67 
REMARK       I    between atoms: C_65  and  N_71 
REMARK   40  A    between atoms: CB_67  and  CG_68 
REMARK   41  A    between atoms: CG_68  and  SD_69 
REMARK   42  A    between atoms: SD_69  and  CE_70 
REMARK   43  A    between atoms: N_71  and  CA_72 
REMARK   44  A    between atoms: CA_72  and  C_73 
REMARK   45  A    between atoms: CA_72  and  CB_75 
REMARK       I    between atoms: C_73  and  N_80 
REMARK   46  A    between atoms: CB_75  and  CG_76 
REMARK   47  A    between atoms: CG_76  and  CD_77 
REMARK       I    between atoms: CD_77  and  NE2_79 
REMARK   48  A    between atoms: N_80  and  CA_81 
REMARK   49  A    between atoms: CA_81  and  C_82 
REMARK   50  A    between atoms: CA_81  and  CB_84 
REMARK   51  A    between atoms: CB_84  and  CG_85 
REMARK   52  A    between atoms: CG_85  and  CD1_86 
REMARK   53  A    between atoms: CG_85  and  CD2_87 
ROOT
ATOM      1  C   PHE d   1      -5.079 -13.164  34.864  0.00  0.00     0.241 C 
ATOM      2  O   PHE d   1      -4.715 -12.738  33.763  0.00  0.00    -0.271 OA
ATOM      3  N   LEU d   1      -4.690 -14.334  35.363  0.00  0.00    -0.346 N 
ATOM      4  H42 LEU d   1      -5.061 -14.620  36.246  0.00  0.00     0.163 HD
ENDROOT
BRANCH   1   5
ATOM      5  CA  PHE d   1      -6.016 -12.344  35.764  0.00  0.00     0.093 C 
ATOM      6  H34 PHE d   1      -6.310 -12.944  36.638  0.00  0.00     0.088 H 
BRANCH   5   7
ATOM      7  N   PHE d   1      -5.235 -11.182  36.204  0.00  0.00    -0.346 N 
ATOM      8  C   SEP d   1      -4.480 -11.188  37.308  0.00  0.00     0.243 C 
ATOM      9  O   SEP d   1      -4.367 -12.171  38.046  0.00  0.00    -0.271 OA
ATOM     10  H33 PHE d   1      -5.269 -10.348  35.653  0.00  0.00     0.163 HD
BRANCH   8  11
ATOM     11  CA  SEP d   1      -3.675  -9.908  37.581  0.00  0.00     0.110 C 
ATOM     12  H30 SEP d   1      -2.619 -10.215  37.569  0.00  0.00     0.090 H 
BRANCH  11  13
ATOM     13  N   SEP d   1      -3.815  -8.886  36.554  0.00  0.00    -0.344 N 
ATOM     14  C   ASP d   1      -3.096  -8.914  35.435  0.00  0.00     0.241 C 
ATOM     15  O   ASP d   1      -2.244  -9.769  35.185  0.00  0.00    -0.271 OA
ATOM     16  H29 SEP d   1      -4.469  -8.143  36.693  0.00  0.00     0.163 HD
BRANCH  14  17
ATOM     17  CA  ASP d   1      -3.358  -7.782  34.457  0.00  0.00     0.098 C 
ATOM     18  H26 ASP d   1      -3.999  -7.020  34.924  0.00  0.00     0.088 H 
BRANCH  17  19
ATOM     19  N   ASP d   1      -2.064  -7.201  34.100  0.00  0.00    -0.346 N 
ATOM     20  C   MET d   1      -1.278  -6.543  34.954  0.00  0.00     0.241 C 
ATOM     21  O   MET d   1      -1.564  -6.335  36.141  0.00  0.00    -0.271 OA
ATOM     22  H25 ASP d   1      -1.749  -7.303  33.157  0.00  0.00     0.163 HD
BRANCH  20  23
ATOM     23  CA  MET d   1       0.041  -6.060  34.365  0.00  0.00     0.090 C 
ATOM     24  H17 MET d   1      -0.144  -5.690  33.346  0.00  0.00     0.087 H 
BRANCH  23  25
ATOM     25  N   MET d   1       0.634  -4.970  35.139  0.00  0.00    -0.346 N 
ATOM     26  C   LYS d   1       0.127  -3.737  35.150  0.00  0.00     0.248 C 
ATOM     27  O   LYS d   1      -0.860  -3.398  34.494  0.00  0.00    -0.271 OA
ATOM     28  H16 MET d   1       1.453  -5.157  35.682  0.00  0.00     0.163 HD
BRANCH  26  29
ATOM     29  CA  LYS d   1       0.861  -2.727  36.023  0.00  0.00     0.176 C 
ATOM     30  H4  LYS d   1       1.878  -3.099  36.217  0.00  0.00     0.099 H 
BRANCH  29  31
ATOM     31  N   LYS d   1       0.958  -1.425  35.301  0.00  0.00    -0.067 N 
ATOM     32  H1  LYS d   1       1.444  -0.756  35.878  0.00  0.00     0.275 HD
ATOM     33  H2  LYS d   1       0.032  -1.083  35.098  0.00  0.00     0.275 HD
ATOM     34  H3  LYS d   1       1.464  -1.556  34.439  0.00  0.00     0.275 HD
ENDBRANCH  29  31
BRANCH  29  35
ATOM     35  CB  LYS d   1       0.139  -2.556  37.372  0.00  0.00    -0.030 C 
ATOM     36  H5  LYS d   1      -0.897  -2.245  37.170  0.00  0.00     0.036 H 
ATOM     37  H6  LYS d   1       0.654  -1.767  37.940  0.00  0.00     0.036 H 
BRANCH  35  38
ATOM     38  CG  LYS d   1       0.100  -3.825  38.239  0.00  0.00    -0.061 C 
ATOM     39  H7  LYS d   1       1.013  -4.406  38.040  0.00  0.00     0.033 H 
ATOM     40  H8  LYS d   1      -0.781  -4.415  37.946  0.00  0.00     0.033 H 
BRANCH  38  41
ATOM     41  CD  LYS d   1       0.020  -3.559  39.747  0.00  0.00    -0.043 C 
ATOM     42  H9  LYS d   1       0.716  -2.743  39.994  0.00  0.00     0.035 H 
ATOM     43  H10 LYS d   1       0.324  -4.473  40.278  0.00  0.00     0.035 H 
BRANCH  41  44
ATOM     44  CE  LYS d   1      -1.377  -3.164  40.224  0.00  0.00     0.080 C 
ATOM     45  H11 LYS d   1      -1.648  -2.221  39.726  0.00  0.00     0.075 H 
ATOM     46  H12 LYS d   1      -1.327  -3.003  41.311  0.00  0.00     0.075 H 
BRANCH  44  47
ATOM     47  NZ  LYS d   1      -2.462  -4.144  39.960  0.00  0.00    -0.079 N 
ATOM     48  H13 LYS d   1      -3.334  -3.783  40.314  0.00  0.00     0.274 HD
ATOM     49  H14 LYS d   1      -2.247  -5.015  40.420  0.00  0.00     0.274 HD
ATOM     50  H15 LYS d   1      -2.541  -4.299  38.967  0.00  0.00     0.274 HD
ENDBRANCH  44  47
ENDBRANCH  41  44
ENDBRANCH  38  41
ENDBRANCH  35  38
ENDBRANCH  29  35
ENDBRANCH  26  29
ENDBRANCH  23  25
BRANCH  23  51
ATOM     51  CB  MET d   1       0.983  -7.260  34.291  0.00  0.00    -0.030 C 
ATOM     52  H18 MET d   1       0.417  -8.106  33.874  0.00  0.00     0.037 H 
ATOM     53  H19 MET d   1       1.300  -7.501  35.316  0.00  0.00     0.037 H 
BRANCH  51  54
ATOM     54  CG  MET d   1       2.229  -7.082  33.453  0.00  0.00    -0.021 C 
ATOM     55  H20 MET d   1       2.909  -6.386  33.967  0.00  0.00     0.049 H 
ATOM     56  H21 MET d   1       1.946  -6.663  32.476  0.00  0.00     0.049 H 
BRANCH  54  57
ATOM     57  SD  MET d   1       3.080  -8.645  33.194  0.00  0.00    -0.173 SA
BRANCH  57  58
ATOM     58  CE  MET d   1       3.610  -8.929  34.752  0.00  0.00    -0.035 C 
ATOM     59  H22 MET d   1       4.169  -9.876  34.782  0.00  0.00     0.041 H 
ATOM     60  H23 MET d   1       2.744  -8.993  35.428  0.00  0.00     0.041 H 
ATOM     61  H24 MET d   1       4.265  -8.106  35.072  0.00  0.00     0.041 H 
ENDBRANCH  57  58
ENDBRANCH  54  57
ENDBRANCH  51  54
ENDBRANCH  23  51
ENDBRANCH  20  23
ENDBRANCH  17  19
BRANCH  17  62
ATOM     62  CB  ASP d   1      -4.044  -8.334  33.194  0.00  0.00     0.043 C 
ATOM     63  H27 ASP d   1      -3.592  -9.307  32.950  0.00  0.00     0.052 H 
ATOM     64  H28 ASP d   1      -3.869  -7.630  32.367  0.00  0.00     0.052 H 
BRANCH  62  65
ATOM     65  CG  ASP d   1      -5.557  -8.528  33.353  0.00  0.00     0.175 C 
ATOM     66  OD1 ASP d   1      -6.075  -8.600  34.494  0.00  0.00    -0.648 OA
ATOM     67  OD2 ASP d   1      -6.239  -8.586  32.305  0.00  0.00    -0.648 OA
ENDBRANCH  62  65
ENDBRANCH  17  62
ENDBRANCH  14  17
ENDBRANCH  11  13
BRANCH  11  68
ATOM     68  CB  SEP d   1      -3.932  -9.301  38.962  0.00  0.00     0.059 C 
ATOM     69  H31 SEP d   1      -4.175 -10.096  39.682  0.00  0.00     0.079 H 
ATOM     70  H32 SEP d   1      -4.766  -8.586  38.909  0.00  0.00     0.079 H 
BRANCH  68  71
ATOM     71  OG  SEP d   1      -2.743  -8.631  39.361  0.00  0.00    -0.280 OA
BRANCH  71  72
ATOM     72  P   SEP d   1      -2.968  -7.622  40.599  0.00  0.00     0.422 P 
ATOM     73  O1P SEP d   1      -4.038  -6.488  40.196  0.00  0.00    -0.617 OA
ATOM     74  O2P SEP d   1      -1.563  -6.923  40.965  0.00  0.00    -0.617 OA
ATOM     75  O3P SEP d   1      -3.508  -8.440  41.875  0.00  0.00    -0.617 OA
ENDBRANCH  71  72
ENDBRANCH  68  71
ENDBRANCH  11  68
ENDBRANCH   8  11
ENDBRANCH   5   7
BRANCH   5  76
ATOM     76  CB  PHE d   1      -7.288 -11.925  35.009  0.00  0.00    -0.014 C 
ATOM     77  H35 PHE d   1      -6.989 -11.406  34.086  0.00  0.00     0.043 H 
ATOM     78  H36 PHE d   1      -7.860 -11.236  35.648  0.00  0.00     0.043 H 
BRANCH  76  79
ATOM     79  CG  PHE d   1      -8.183 -13.085  34.636  0.00  0.00    -0.056 A 
ATOM     80  CD1 PHE d   1      -8.864 -13.815  35.630  0.00  0.00    -0.077 A 
ATOM     81  CE1 PHE d   1      -9.649 -14.950  35.295  0.00  0.00    -0.082 A 
ATOM     82  H37 PHE d   1      -8.788 -13.506  36.666  0.00  0.00     0.084 H 
ATOM     83  CZ  PHE d   1      -9.755 -15.357  33.939  0.00  0.00    -0.083 A 
ATOM     84  H39 PHE d   1     -10.165 -15.503  36.071  0.00  0.00     0.083 H 
ATOM     85  CE2 PHE d   1      -9.078 -14.624  32.936  0.00  0.00    -0.082 A 
ATOM     86  H41 PHE d   1     -10.350 -16.223  33.674  0.00  0.00     0.083 H 
ATOM     87  CD2 PHE d   1      -8.298 -13.493  33.296  0.00  0.00    -0.077 A 
ATOM     88  H40 PHE d   1      -9.154 -14.924  31.897  0.00  0.00     0.083 H 
ATOM     89  H38 PHE d   1      -7.782 -12.934  32.523  0.00  0.00     0.084 H 
ENDBRANCH  76  79
ENDBRANCH   5  76
ENDBRANCH   1   5
BRANCH   3  90
ATOM     90  CA  LEU d   1      -3.748 -15.222  34.685  0.00  0.00     0.089 C 
ATOM     91  H43 LEU d   1      -3.327 -14.664  33.836  0.00  0.00     0.087 H 
BRANCH  90  92
ATOM     92  C   LEU d   1      -4.323 -16.523  34.134  0.00  0.00     0.241 C 
ATOM     93  O   LEU d   1      -3.625 -17.240  33.419  0.00  0.00    -0.271 OA
ATOM     94  N   ASP d   1      -5.581 -16.821  34.455  0.00  0.00    -0.346 N 
ATOM     95  H53 ASP d   1      -6.107 -16.170  35.003  0.00  0.00     0.163 HD
BRANCH  94  96
ATOM     96  CA  ASP d   1      -6.221 -18.072  34.032  0.00  0.00     0.098 C 
ATOM     97  H54 ASP d   1      -5.433 -18.840  34.042  0.00  0.00     0.088 H 
BRANCH  96  98
ATOM     98  C   ASP d   1      -6.793 -18.076  32.604  0.00  0.00     0.241 C 
ATOM     99  O   ASP d   1      -8.009 -18.182  32.398  0.00  0.00    -0.271 OA
ATOM    100  N   MET d   1      -5.881 -17.990  31.630  0.00  0.00    -0.346 N 
ATOM    101  H57 MET d   1      -4.918 -17.942  31.897  0.00  0.00     0.163 HD
BRANCH 100 102
ATOM    102  CA  MET d   1      -6.194 -17.961  30.194  0.00  0.00     0.090 C 
ATOM    103  H58 MET d   1      -7.229 -18.305  30.052  0.00  0.00     0.087 H 
BRANCH 102 104
ATOM    104  C   MET d   1      -5.249 -18.844  29.385  0.00  0.00     0.241 C 
ATOM    105  O   MET d   1      -4.089 -18.488  29.178  0.00  0.00    -0.271 OA
ATOM    106  N   GLN d   1      -5.757 -19.972  28.899  0.00  0.00    -0.346 N 
ATOM    107  H66 GLN d   1      -6.710 -20.200  29.098  0.00  0.00     0.163 HD
BRANCH 106 108
ATOM    108  CA  GLN d   1      -4.965 -20.890  28.082  0.00  0.00     0.090 C 
ATOM    109  H67 GLN d   1      -3.964 -20.463  27.924  0.00  0.00     0.087 H 
BRANCH 108 110
ATOM    110  C   GLN d   1      -5.663 -21.059  26.739  0.00  0.00     0.241 C 
ATOM    111  O   GLN d   1      -6.890 -21.130  26.686  0.00  0.00    -0.271 OA
ATOM    112  N   LEU d   1      -4.883 -21.108  25.660  0.00  0.00    -0.345 N 
ATOM    113  H74 LEU d   1      -3.893 -21.027  25.774  0.00  0.00     0.163 HD
BRANCH 112 114
ATOM    114  CA  LEU d   1      -5.431 -21.276  24.313  0.00  0.00     0.096 C 
ATOM    115  H75 LEU d   1      -6.247 -20.546  24.210  0.00  0.00     0.089 H 
BRANCH 114 116
ATOM    116  C   LEU d   1      -6.039 -22.666  24.050  0.00  0.00     0.196 C 
ATOM    117  O   LEU d   1      -6.890 -22.756  23.140  0.00  0.00    -0.646 OA
ATOM    118  OXT LEU d   1      -5.698 -23.636  24.775  0.00  0.00    -0.646 OA
ENDBRANCH 114 116
BRANCH 114 119
ATOM    119  CB  LEU d   1      -4.379 -20.945  23.243  0.00  0.00    -0.034 C 
ATOM    120  H76 LEU d   1      -4.837 -21.162  22.267  0.00  0.00     0.037 H 
ATOM    121  H77 LEU d   1      -3.530 -21.624  23.409  0.00  0.00     0.037 H 
BRANCH 119 122
ATOM    122  CG  LEU d   1      -3.803 -19.522  23.160  0.00  0.00    -0.059 C 
ATOM    123  H78 LEU d   1      -3.391 -19.263  24.147  0.00  0.00     0.038 H 
BRANCH 122 124
ATOM    124  CD1 LEU d   1      -2.682 -19.500  22.147  0.00  0.00    -0.073 C 
ATOM    125  H79 LEU d   1      -2.265 -18.484  22.083  0.00  0.00     0.028 H 
ATOM    126  H80 LEU d   1      -3.071 -19.799  21.163  0.00  0.00     0.028 H 
ATOM    127  H81 LEU d   1      -1.893 -20.201  22.458  0.00  0.00     0.028 H 
ENDBRANCH 122 124
BRANCH 122 128
ATOM    128  CD2 LEU d   1      -4.836 -18.484  22.803  0.00  0.00    -0.073 C 
ATOM    129  H82 LEU d   1      -5.649 -18.506  23.544  0.00  0.00     0.028 H 
ATOM    130  H83 LEU d   1      -5.244 -18.701  21.805  0.00  0.00     0.028 H 
ATOM    131  H84 LEU d   1      -4.369 -17.488  22.800  0.00  0.00     0.028 H 
ENDBRANCH 122 128
ENDBRANCH 119 122
ENDBRANCH 114 119
ENDBRANCH 112 114
ENDBRANCH 108 110
BRANCH 108 132
ATOM    132  CB  GLN d   1      -4.822 -22.252  28.766  0.00  0.00    -0.030 C 
ATOM    133  H68 GLN d   1      -4.440 -22.968  28.023  0.00  0.00     0.037 H 
ATOM    134  H69 GLN d   1      -5.819 -22.571  29.103  0.00  0.00     0.037 H 
BRANCH 132 135
ATOM    135  CG  GLN d   1      -3.883 -22.275  29.974  0.00  0.00     0.011 C 
ATOM    136  H70 GLN d   1      -4.213 -21.510  30.692  0.00  0.00     0.047 H 
ATOM    137  H71 GLN d   1      -2.864 -22.042  29.633  0.00  0.00     0.047 H 
BRANCH 135 138
ATOM    138  CD  GLN d   1      -3.867 -23.625  30.672  0.00  0.00     0.215 C 
ATOM    139  OE1 GLN d   1      -3.587 -24.651  30.054  0.00  0.00    -0.274 OA
ATOM    140  NE2 GLN d   1      -4.163 -23.628  31.967  0.00  0.00    -0.370 N 
ATOM    141  H72 GLN d   1      -4.168 -24.488  32.477  0.00  0.00     0.159 HD
ATOM    142  H73 GLN d   1      -4.381 -22.770  32.432  0.00  0.00     0.159 HD
ENDBRANCH 135 138
ENDBRANCH 132 135
ENDBRANCH 108 132
ENDBRANCH 106 108
ENDBRANCH 102 104
BRANCH 102 143
ATOM    143  CB  MET d   1      -6.040 -16.547  29.641  0.00  0.00    -0.030 C 
ATOM    144  H59 MET d   1      -5.803 -16.630  28.570  0.00  0.00     0.037 H 
ATOM    145  H60 MET d   1      -5.199 -16.072  30.167  0.00  0.00     0.037 H 
BRANCH 143 146
ATOM    146  CG  MET d   1      -7.219 -15.654  29.775  0.00  0.00    -0.021 C 
ATOM    147  H61 MET d   1      -7.499 -15.572  30.836  0.00  0.00     0.049 H 
ATOM    148  H62 MET d   1      -8.062 -16.071  29.204  0.00  0.00     0.049 H 
BRANCH 146 149
ATOM    149  SD  MET d   1      -6.809 -14.029  29.137  0.00  0.00    -0.173 SA
BRANCH 149 150
ATOM    150  CE  MET d   1      -5.914 -13.419  30.556  0.00  0.00    -0.035 C 
ATOM    151  H63 MET d   1      -5.565 -12.395  30.357  0.00  0.00     0.041 H 
ATOM    152  H64 MET d   1      -5.049 -14.070  30.751  0.00  0.00     0.041 H 
ATOM    153  H65 MET d   1      -6.577 -13.416  31.434  0.00  0.00     0.041 H 
ENDBRANCH 149 150
ENDBRANCH 146 149
ENDBRANCH 143 146
ENDBRANCH 102 143
ENDBRANCH 100 102
ENDBRANCH  96  98
BRANCH  96 154
ATOM    154  CB  ASP d   1      -7.277 -18.496  35.072  0.00  0.00     0.043 C 
ATOM    155  H55 ASP d   1      -7.695 -19.469  34.773  0.00  0.00     0.052 H 
ATOM    156  H56 ASP d   1      -8.078 -17.742  35.088  0.00  0.00     0.052 H 
BRANCH 154 157
ATOM    157  CG  ASP d   1      -6.698 -18.624  36.481  0.00  0.00     0.175 C 
ATOM    158  OD1 ASP d   1      -5.589 -19.189  36.641  0.00  0.00    -0.648 OA
ATOM    159  OD2 ASP d   1      -7.349 -18.144  37.432  0.00  0.00    -0.648 OA
ENDBRANCH 154 157
ENDBRANCH  96 154
ENDBRANCH  94  96
ENDBRANCH  90  92
BRANCH  90 160
ATOM    160  CB  LEU d   1      -2.610 -15.575  35.662  0.00  0.00    -0.035 C 
ATOM    161  H44 LEU d   1      -1.801 -16.021  35.064  0.00  0.00     0.037 H 
ATOM    162  H45 LEU d   1      -3.008 -16.327  36.359  0.00  0.00     0.037 H 
BRANCH 160 163
ATOM    163  CG  LEU d   1      -1.977 -14.466  36.514  0.00  0.00    -0.059 C 
ATOM    164  H46 LEU d   1      -2.788 -13.911  37.009  0.00  0.00     0.038 H 
BRANCH 163 165
ATOM    165  CD1 LEU d   1      -1.086 -15.051  37.600  0.00  0.00    -0.073 C 
ATOM    166  H47 LEU d   1      -0.647 -14.235  38.193  0.00  0.00     0.028 H 
ATOM    167  H48 LEU d   1      -0.282 -15.641  37.136  0.00  0.00     0.028 H 
ATOM    168  H49 LEU d   1      -1.685 -15.700  38.256  0.00  0.00     0.028 H 
ENDBRANCH 163 165
BRANCH 163 169
ATOM    169  CD2 LEU d   1      -1.221 -13.496  35.625  0.00  0.00    -0.073 C 
ATOM    170  H50 LEU d   1      -1.900 -13.098  34.856  0.00  0.00     0.028 H 
ATOM    171  H51 LEU d   1      -0.384 -14.020  35.140  0.00  0.00     0.028 H 
ATOM    172  H52 LEU d   1      -0.831 -12.668  36.235  0.00  0.00     0.028 H 
ENDBRANCH 163 169
ENDBRANCH 160 163
ENDBRANCH  90 160
ENDBRANCH   3  90
TORSDOF 53
