REMARK  24 active torsions:
REMARK  status: ('A' for Active; 'I' for Inactive)
REMARK    1  A    between atoms: PA_1  and  O2A_3 
REMARK    2  A    between atoms: O3A_4  and  PA_1 
REMARK    3  A    between atoms: PA_1  and  O5E_16 
REMARK    4  A    between atoms: PB_5  and  O3A_4 
REMARK    5  A    between atoms: PB_5  and  O2B_7 
REMARK    6  A    between atoms: O3B_8  and  PB_5 
REMARK    7  A    between atoms: PG_9  and  O3B_8 
REMARK    8  A    between atoms: PG_9  and  O2G_11 
REMARK    9  A    between atoms: O3G_12  and  PG_9 
REMARK   10  A    between atoms: PD_13  and  O3G_12 
REMARK   11  A    between atoms: PD_13  and  O2D_15 
REMARK   12  A    between atoms: O5F_35  and  PD_13 
REMARK   13  A    between atoms: O5E_16  and  C5E_17 
REMARK   14  A    between atoms: C5E_17  and  C4E_18 
REMARK   15  A    between atoms: C3E_20  and  O3E_21 
REMARK   16  A    between atoms: C2E_22  and  O2E_23 
REMARK   17  A    between atoms: C1E_24  and  N9A_25 
REMARK   18  A    between atoms: C6A_29  and  N6A_30 
REMARK   19  A    between atoms: O5F_35  and  C5F_36 
REMARK   20  A    between atoms: C5F_36  and  C4F_37 
REMARK   21  A    between atoms: C3F_39  and  O3F_40 
REMARK   22  A    between atoms: C2F_41  and  O2F_42 
REMARK   23  A    between atoms: C1F_43  and  N9B_44 
REMARK   24  A    between atoms: C6B_48  and  N6B_49 
ROOT
ATOM      1  O3B NON d   1      19.580   3.556  20.304  0.00  0.00    -0.195 OA
ENDROOT
BRANCH   1   2
ATOM      2  PB  NON d   1      20.344   3.896  18.917  0.00  0.00     0.410 P 
ATOM      3  O1B NON d   1      20.857   2.643  18.377  0.00  0.00    -0.631 OA
BRANCH   2   4
ATOM      4  O3A NON d   1      21.770   4.549  19.290  0.00  0.00    -0.195 OA
BRANCH   4   5
ATOM      5  PA  NON d   1      22.201   6.089  19.452  0.00  0.00     0.401 P 
ATOM      6  O1A NON d   1      22.416   6.745  18.144  0.00  0.00    -0.631 OA
BRANCH   5   7
ATOM      7  O2A NON d   1      21.476   6.864  20.478  0.00  0.00    -0.307 OA
ATOM      8 2HOA NON d   1      21.337   6.442  21.318  0.00  0.00     0.222 HD
ENDBRANCH   5   7
BRANCH   5   9
ATOM      9  O5E NON d   1      23.694   5.984  20.010  0.00  0.00    -0.294 OA
BRANCH   9  10
ATOM     10  C5E NON d   1      23.863   5.533  21.343  0.00  0.00     0.057 C 
ATOM     11 AH51 NON d   1      22.893   5.469  21.890  0.00  0.00     0.079 H 
ATOM     12 AH52 NON d   1      24.144   4.455  21.388  0.00  0.00     0.079 H 
BRANCH  10  13
ATOM     13  C4E NON d   1      24.868   6.417  22.062  0.00  0.00     0.089 C 
ATOM     14  O4E NON d   1      26.197   6.203  21.583  0.00  0.00    -0.353 OA
ATOM     15  C1E NON d   1      26.421   7.150  20.562  0.00  0.00     0.139 C 
ATOM     16  C2E NON d   1      25.443   8.295  20.628  0.00  0.00     0.105 C 
ATOM     17  H1E NON d   1      27.422   7.575  20.805  0.00  0.00     0.122 H 
ATOM     18  C3E NON d   1      24.677   7.945  21.924  0.00  0.00     0.091 C 
ATOM     19  H2E NON d   1      24.778   8.414  19.740  0.00  0.00     0.093 H 
ATOM     20  H3E NON d   1      23.613   8.280  21.898  0.00  0.00     0.091 H 
ATOM     21  H4E NON d   1      24.696   6.114  23.121  0.00  0.00     0.090 H 
BRANCH  15  22
ATOM     22  N9A NON d   1      27.112   6.824  19.345  0.00  0.00    -0.294 N 
ATOM     23  C8A NON d   1      26.489   6.695  18.135  0.00  0.00     0.071 A 
ATOM     24  N7A NON d   1      27.295   6.275  17.223  0.00  0.00    -0.236 NA
ATOM     25  H8A NON d   1      25.430   6.910  17.914  0.00  0.00     0.144 H 
ATOM     26  C5A NON d   1      28.529   6.124  17.797  0.00  0.00     0.144 A 
ATOM     27  C6A NON d   1      29.735   5.649  17.285  0.00  0.00     0.135 A 
ATOM     28  C4A NON d   1      28.440   6.487  19.168  0.00  0.00     0.166 A 
ATOM     29  N1A NON d   1      30.793   5.669  18.130  0.00  0.00    -0.228 NA
ATOM     30  C2A NON d   1      30.595   6.010  19.414  0.00  0.00     0.090 A 
ATOM     31  N3A NON d   1      29.508   6.464  20.023  0.00  0.00    -0.222 NA
ATOM     32  H2A NON d   1      31.469   5.898  20.077  0.00  0.00     0.146 H 
BRANCH  27  33
ATOM     33  N6A NON d   1      29.771   5.190  16.024  0.00  0.00    -0.285 NA
ATOM     34 AH61 NON d   1      30.653   4.842  15.649  0.00  0.00     0.125 HD
ATOM     35 AH62 NON d   1      29.411   5.913  15.400  0.00  0.00     0.125 HD
ENDBRANCH  27  33
ENDBRANCH  15  22
BRANCH  16  36
ATOM     36  O2E NON d   1      26.145   9.548  20.716  0.00  0.00    -0.388 OA
ATOM     37 AHO2 NON d   1      26.597   9.715  19.897  0.00  0.00     0.210 HD
ENDBRANCH  16  36
BRANCH  18  38
ATOM     38  O3E NON d   1      25.346   8.532  23.016  0.00  0.00    -0.390 OA
ATOM     39 AHO3 NON d   1      24.967   8.214  23.826  0.00  0.00     0.210 HD
ENDBRANCH  18  38
ENDBRANCH  10  13
ENDBRANCH   9  10
ENDBRANCH   5   9
ENDBRANCH   4   5
ENDBRANCH   2   4
BRANCH   2  40
ATOM     40  O2B NON d   1      19.561   4.700  17.951  0.00  0.00    -0.307 OA
ATOM     41 2HOB NON d   1      18.720   4.315  17.731  0.00  0.00     0.222 HD
ENDBRANCH   2  40
ENDBRANCH   1   2
BRANCH   1  42
ATOM     42  PG  NON d   1      17.985   3.557  20.606  0.00  0.00     0.410 P 
ATOM     43  O1G NON d   1      17.476   4.926  20.866  0.00  0.00    -0.631 OA
BRANCH  42  44
ATOM     44  O2G NON d   1      17.289   2.760  19.558  0.00  0.00    -0.307 OA
ATOM     45 2HOG NON d   1      16.355   2.760  19.734  0.00  0.00     0.222 HD
ENDBRANCH  42  44
BRANCH  42  46
ATOM     46  O3G NON d   1      18.082   2.680  21.967  0.00  0.00    -0.195 OA
BRANCH  46  47
ATOM     47  PD  NON d   1      16.945   2.326  23.101  0.00  0.00     0.401 P 
ATOM     48  O1D NON d   1      16.975   0.838  23.248  0.00  0.00    -0.631 OA
BRANCH  47  49
ATOM     49  O2D NON d   1      17.317   3.050  24.336  0.00  0.00    -0.307 OA
ATOM     50 2HOD NON d   1      16.660   2.845  24.991  0.00  0.00     0.222 HD
ENDBRANCH  47  49
BRANCH  47  51
ATOM     51  O5F NON d   1      13.178   3.399  22.744  0.00  0.00    -0.294 OA
BRANCH  51  52
ATOM     52  C5F NON d   1      13.096   3.370  24.177  0.00  0.00     0.057 C 
ATOM     53 BH51 NON d   1      14.006   2.915  24.632  0.00  0.00     0.079 H 
ATOM     54 BH52 NON d   1      13.179   4.392  24.614  0.00  0.00     0.079 H 
BRANCH  52  55
ATOM     55  C4F NON d   1      11.797   2.648  24.646  0.00  0.00     0.089 C 
ATOM     56  O4F NON d   1      10.642   3.052  23.872  0.00  0.00    -0.353 OA
ATOM     57  C1F NON d   1      10.066   1.830  23.414  0.00  0.00     0.139 C 
ATOM     58  C2F NON d   1      10.402   0.698  24.318  0.00  0.00     0.105 C 
ATOM     59  H1F NON d   1       8.964   1.972  23.508  0.00  0.00     0.122 H 
ATOM     60  C3F NON d   1      11.850   1.118  24.442  0.00  0.00     0.091 C 
ATOM     61  H2F NON d   1      10.191  -0.355  24.021  0.00  0.00     0.093 H 
ATOM     62  H3F NON d   1      12.435   0.839  23.534  0.00  0.00     0.091 H 
ATOM     63  H4F NON d   1      11.718   2.924  25.723  0.00  0.00     0.090 H 
BRANCH  57  64
ATOM     64  N9B NON d   1       9.747   1.616  22.023  0.00  0.00    -0.294 N 
ATOM     65  C8B NON d   1      10.182   2.374  20.967  0.00  0.00     0.071 A 
ATOM     66  N7B NON d   1       9.821   1.888  19.815  0.00  0.00    -0.236 NA
ATOM     67  H8B NON d   1      10.775   3.301  21.038  0.00  0.00     0.144 H 
ATOM     68  C5B NON d   1       9.099   0.730  20.087  0.00  0.00     0.144 A 
ATOM     69  C6B NON d   1       8.487  -0.225  19.272  0.00  0.00     0.135 A 
ATOM     70  C4B NON d   1       9.034   0.571  21.499  0.00  0.00     0.166 A 
ATOM     71  N1B NON d   1       7.799  -1.199  19.879  0.00  0.00    -0.228 NA
ATOM     72  C2B NON d   1       7.763  -1.199  21.208  0.00  0.00     0.090 A 
ATOM     73  N3B NON d   1       8.373  -0.426  22.108  0.00  0.00    -0.222 NA
ATOM     74  H2B NON d   1       7.112  -1.977  21.640  0.00  0.00     0.146 H 
BRANCH  69  75
ATOM     75  N6B NON d   1       8.669  -0.222  17.956  0.00  0.00    -0.285 NA
ATOM     76 BH61 NON d   1       8.222  -0.919  17.360  0.00  0.00     0.125 HD
ATOM     77 BH62 NON d   1       9.672  -0.248  17.775  0.00  0.00     0.125 HD
ENDBRANCH  69  75
ENDBRANCH  57  64
BRANCH  58  78
ATOM     78  O2F NON d   1       9.706   0.889  25.519  0.00  0.00    -0.388 OA
ATOM     79 BHO2 NON d   1       9.733   1.809  25.757  0.00  0.00     0.210 HD
ENDBRANCH  58  78
BRANCH  60  80
ATOM     80  O3F NON d   1      12.535   0.450  25.490  0.00  0.00    -0.390 OA
ATOM     81 BHO3 NON d   1      13.428   0.769  25.537  0.00  0.00     0.210 HD
ENDBRANCH  60  80
ENDBRANCH  52  55
ENDBRANCH  51  52
ENDBRANCH  47  51
ENDBRANCH  46  47
ENDBRANCH  42  46
ENDBRANCH   1  42
TORSDOF 24
