REMARK  17 active torsions:
REMARK  status: ('A' for Active; 'I' for Inactive)
REMARK    1  A    between atoms: C1_42  and  N3_3 
REMARK    2  A    between atoms: N6_38  and  C6_6 
REMARK    3  A    between atoms: C6_6  and  C3_39 
REMARK    4  A    between atoms: N6_38  and  C7_7 
REMARK    5  A    between atoms: C11_9  and  N6_38 
REMARK    6  A    between atoms: C14_12  and  C8_36 
REMARK    7  A    between atoms: C15_13  and  C16_14 
REMARK    8  A    between atoms: C17_34  and  C15_13 
REMARK    9  A    between atoms: C15_13  and  N7_35 
REMARK   10  A    between atoms: P_21  and  C19_23 
REMARK   11  A    between atoms: C18_33  and  P_21 
REMARK   12  A    between atoms: C19_23  and  C20_24 
REMARK   13  A    between atoms: C20_24  and  C24_25 
REMARK   14  A    between atoms: C20_24  and  C21_28 
REMARK   15  A    between atoms: C21_28  and  C22_29 
REMARK   16  A    between atoms: C22_29  and  C23_30 
REMARK   17  A    between atoms: C18_33  and  C17_34 
ROOT
ATOM      1  C9  3BI d   1      24.010  49.879  44.220  0.00  0.00    -0.067 A 
ATOM      2  C11 3BI d   1      25.134  50.280  42.113  0.00  0.00     0.010 A 
ATOM      3  C12 3BI d   1      24.492  49.162  41.585  0.00  0.00    -0.061 A 
ATOM      4  C13 3BI d   1      23.622  48.399  42.364  0.00  0.00    -0.067 A 
ATOM      5  C8  3BI d   1      23.370  48.753  43.673  0.00  0.00     0.018 A 
ATOM      6  C10 3BI d   1      24.867  50.657  43.435  0.00  0.00    -0.061 A 
ATOM      7  H11 3BI d   1      23.838  50.146  45.257  0.00  0.00     0.085 H 
ATOM      8  H12 3BI d   1      24.671  48.881  40.553  0.00  0.00     0.086 H 
ATOM      9  H13 3BI d   1      23.142  47.525  41.939  0.00  0.00     0.085 H 
ATOM     10  H27 3BI d   1      25.323  51.549  43.849  0.00  0.00     0.086 H 
ENDROOT
BRANCH   5  11
ATOM     11  C14 3BI d   1      22.515  47.831  44.499  0.00  0.00     0.185 C 
ATOM     12  O   3BI d   1      22.896  47.684  45.791  0.00  0.00    -0.172 OA
ATOM     13  N7  3BI d   1      21.587  47.092  44.015  0.00  0.00    -0.353 N 
ATOM     14  H26 3BI d   1      21.361  47.187  43.045  0.00  0.00     0.162 HD
BRANCH  13  15
ATOM     15  C15 3BI d   1      20.834  46.106  44.820  0.00  0.00     0.096 C 
ATOM     16  H14 3BI d   1      21.502  45.252  45.004  0.00  0.00     0.089 H 
BRANCH  15  17
ATOM     17  C16 3BI d   1      20.333  46.544  46.174  0.00  0.00     0.196 C 
ATOM     18  O1  3BI d   1      20.293  45.821  47.224  0.00  0.00    -0.646 OA
ATOM     19  O2  3BI d   1      19.894  47.667  46.177  0.00  0.00    -0.646 OA
ENDBRANCH  15  17
BRANCH  15  20
ATOM     20  C17 3BI d   1      19.674  45.640  43.896  0.00  0.00    -0.028 C 
ATOM     21  H24 3BI d   1      20.074  45.011  43.087  0.00  0.00     0.037 H 
ATOM     22  H25 3BI d   1      19.169  46.517  43.464  0.00  0.00     0.037 H 
BRANCH  20  23
ATOM     23  C18 3BI d   1      18.698  44.848  44.716  0.00  0.00     0.009 C 
ATOM     24  H22 3BI d   1      19.277  44.155  45.345  0.00  0.00     0.048 H 
ATOM     25  H23 3BI d   1      18.151  45.555  45.357  0.00  0.00     0.048 H 
BRANCH  23  26
ATOM     26  P   3BI d   1      17.528  43.915  43.849  0.00  0.00     0.107 P 
ATOM     27  O8  3BI d   1      18.218  42.971  42.843  0.00  0.00    -0.667 OA
ATOM     28  O7  3BI d   1      16.673  42.915  44.882  0.00  0.00    -0.667 OA
BRANCH  26  29
ATOM     29  C19 3BI d   1      16.396  44.967  43.039  0.00  0.00     0.020 C 
ATOM     30  H15 3BI d   1      16.873  45.953  42.932  0.00  0.00     0.050 H 
ATOM     31  H16 3BI d   1      15.506  45.057  43.679  0.00  0.00     0.050 H 
BRANCH  29  32
ATOM     32  C20 3BI d   1      15.919  44.515  41.625  0.00  0.00     0.040 C 
ATOM     33  H17 3BI d   1      15.621  43.460  41.718  0.00  0.00     0.057 H 
BRANCH  32  34
ATOM     34  C24 3BI d   1      17.074  44.571  40.599  0.00  0.00     0.177 C 
ATOM     35  O6  3BI d   1      17.956  45.459  40.696  0.00  0.00    -0.648 OA
ATOM     36  O5  3BI d   1      17.057  43.757  39.621  0.00  0.00    -0.648 OA
ENDBRANCH  32  34
BRANCH  32  37
ATOM     37  C21 3BI d   1      14.671  45.283  41.108  0.00  0.00    -0.043 C 
ATOM     38  H18 3BI d   1      13.824  45.096  41.785  0.00  0.00     0.035 H 
ATOM     39  H19 3BI d   1      14.419  44.927  40.098  0.00  0.00     0.035 H 
BRANCH  37  40
ATOM     40  C22 3BI d   1      14.946  46.760  41.057  0.00  0.00     0.017 C 
ATOM     41  H20 3BI d   1      15.870  46.927  40.484  0.00  0.00     0.049 H 
ATOM     42  H21 3BI d   1      15.080  47.129  42.084  0.00  0.00     0.049 H 
BRANCH  40  43
ATOM     43  C23 3BI d   1      13.815  47.544  40.399  0.00  0.00     0.172 C 
ATOM     44  O4  3BI d   1      13.067  46.994  39.525  0.00  0.00    -0.648 OA
ATOM     45  O3  3BI d   1      13.722  48.780  40.669  0.00  0.00    -0.648 OA
ENDBRANCH  40  43
ENDBRANCH  37  40
ENDBRANCH  32  37
ENDBRANCH  29  32
ENDBRANCH  26  29
ENDBRANCH  23  26
ENDBRANCH  20  23
ENDBRANCH  15  20
ENDBRANCH  13  15
ENDBRANCH   5  11
BRANCH   2  46
ATOM     46  N6  3BI d   1      26.016  51.062  41.297  0.00  0.00    -0.282 NA
BRANCH  46  47
ATOM     47  C6  3BI d   1      27.325  51.290  41.969  0.00  0.00     0.025 C 
ATOM     48  H6  3BI d   1      27.101  51.420  43.038  0.00  0.00     0.066 H 
ATOM     49  H7  3BI d   1      27.719  52.232  41.559  0.00  0.00     0.066 H 
BRANCH  47  50
ATOM     50  C3  3BI d   1      28.481  50.275  41.895  0.00  0.00     0.066 A 
ATOM     51  C4  3BI d   1      28.379  48.865  41.745  0.00  0.00     0.029 A 
ATOM     52  N5  3BI d   1      29.489  48.069  41.716  0.00  0.00    -0.237 NA
ATOM     53  H5  3BI d   1      27.399  48.411  41.652  0.00  0.00     0.118 H 
ATOM     54  C5  3BI d   1      30.724  48.621  41.857  0.00  0.00     0.201 A 
ATOM     55  C2  3BI d   1      30.833  50.098  42.017  0.00  0.00     0.151 A 
ATOM     56  N   3BI d   1      31.908  47.928  41.847  0.00  0.00    -0.041 NA
ATOM     57  N4  3BI d   1      29.715  50.832  42.027  0.00  0.00    -0.243 NA
ATOM     58  C1  3BI d   1      32.190  50.711  42.170  0.00  0.00     0.173 A 
ATOM     59  N2  3BI d   1      33.273  49.907  42.153  0.00  0.00    -0.043 NA
ATOM     60  C   3BI d   1      33.139  48.566  41.985  0.00  0.00     0.724 A 
ATOM     61  N1  3BI d   1      34.287  47.842  41.962  0.00  0.00    -0.231 N 
ATOM     62  H1  3BI d   1      34.249  46.820  41.838  0.00  0.00     0.174 HD
ATOM     63  H2  3BI d   1      35.196  48.314  42.069  0.00  0.00     0.174 HD
BRANCH  58  64
ATOM     64  N3  3BI d   1      32.327  52.056  42.330  0.00  0.00    -0.381 N 
ATOM     65  H3  3BI d   1      33.265  52.469  42.435  0.00  0.00     0.157 HD
ATOM     66  H4  3BI d   1      31.493  52.660  42.346  0.00  0.00     0.157 HD
ENDBRANCH  58  64
ENDBRANCH  47  50
ENDBRANCH  46  47
BRANCH  46  67
ATOM     67  C7  3BI d   1      26.257  50.480  39.974  0.00  0.00    -0.028 C 
ATOM     68  H8  3BI d   1      25.295  50.307  39.469  0.00  0.00     0.048 H 
ATOM     69  H9  3BI d   1      26.789  49.524  40.085  0.00  0.00     0.048 H 
ATOM     70  H10 3BI d   1      26.867  51.172  39.375  0.00  0.00     0.048 H 
ENDBRANCH  46  67
ENDBRANCH   2  46
TORSDOF 17
