REMARK  7 active torsions:
REMARK  status: ('A' for Active; 'I' for Inactive)
REMARK    1  A    between atoms: N4_5  and  C24_6 
REMARK    2  A    between atoms: C24_6  and  C23_7 
REMARK    3  A    between atoms: C23_7  and  N3_8 
REMARK       I    between atoms: N3_8  and  C22_9 
REMARK    4  A    between atoms: C22_9  and  C20_11 
REMARK    5  A    between atoms: C19_13  and  O3_14 
REMARK    6  A    between atoms: N2_18  and  C21_19 
REMARK    7  A    between atoms: C2_30  and  C7_31 
ROOT
ATOM      1  C20 396 d   1       5.567  54.470  21.522  0.00  0.00     0.067 A 
ATOM      2  C18 396 d   1       4.268  54.099  21.872  0.00  0.00    -0.038 A 
ATOM      3  C19 396 d   1       6.576  54.695  22.468  0.00  0.00     0.082 A 
ATOM      4  C17 396 d   1       6.273  54.477  23.815  0.00  0.00    -0.037 A 
ATOM      5  C15 396 d   1       4.977  54.112  24.219  0.00  0.00     0.007 A 
ATOM      6  C16 396 d   1       3.986  53.899  23.238  0.00  0.00     0.046 A 
ATOM      7  N2  396 d   1       2.874  53.552  23.859  0.00  0.00    -0.350 N 
ATOM      8  C14 396 d   1       3.063  53.573  25.199  0.00  0.00     0.047 A 
ATOM      9  C1  396 d   1       2.207  53.239  26.269  0.00  0.00    -0.044 A 
ATOM     10  C13 396 d   1       4.407  53.882  25.472  0.00  0.00     0.020 A 
ATOM     11  C4  396 d   1       4.848  53.942  26.830  0.00  0.00     0.062 A 
ATOM     12  C5  396 d   1       6.059  54.206  27.505  0.00  0.00     0.260 A 
ATOM     13  O1  396 d   1       7.094  54.621  26.982  0.00  0.00    -0.267 OA
ATOM     14  N1  396 d   1       5.922  54.109  28.847  0.00  0.00    -0.289 N 
ATOM     15  C6  396 d   1       4.677  53.735  29.060  0.00  0.00     0.260 A 
ATOM     16  O2  396 d   1       4.224  53.515  30.169  0.00  0.00    -0.267 OA
ATOM     17  C3  396 d   1       3.940  53.636  27.862  0.00  0.00     0.060 A 
ATOM     18  C2  396 d   1       2.603  53.288  27.590  0.00  0.00    -0.005 A 
ATOM     19  H15 396 d   1       3.501  53.969  21.117  0.00  0.00     0.088 H 
ATOM     20  H17 396 d   1       7.051  54.591  24.561  0.00  0.00     0.089 H 
ATOM     21  H21 396 d   1       1.193  52.930  26.044  0.00  0.00     0.088 H 
ATOM     22  H22 396 d   1       6.623  54.285  29.538  0.00  0.00     0.172 HD
ENDROOT
BRANCH   1  23
ATOM     23  C22 396 d   1       5.783  54.720  20.025  0.00  0.00     0.254 C 
ATOM     24  N3  396 d   1       6.482  55.806  19.764  0.00  0.00    -0.355 N 
ATOM     25  H14 396 d   1       6.995  56.269  20.487  0.00  0.00     0.162 HD
ATOM     26  O4  396 d   1       5.109  54.182  19.167  0.00  0.00    -0.268 OA
BRANCH  24  27
ATOM     27  C23 396 d   1       6.492  56.335  18.356  0.00  0.00     0.018 C 
ATOM     28  H12 396 d   1       5.818  55.711  17.751  0.00  0.00     0.066 H 
ATOM     29  H13 396 d   1       6.116  57.369  18.376  0.00  0.00     0.066 H 
BRANCH  27  30
ATOM     30  C24 396 d   1       7.849  56.340  17.694  0.00  0.00     0.098 C 
ATOM     31  H10 396 d   1       7.843  57.067  16.869  0.00  0.00     0.078 H 
ATOM     32  H11 396 d   1       8.609  56.632  18.434  0.00  0.00     0.078 H 
BRANCH  30  33
ATOM     33  N4  396 d   1       8.188  54.994  17.154  0.00  0.00    -0.070 N 
ATOM     34  C26 396 d   1       9.239  55.187  16.126  0.00  0.00     0.084 C 
ATOM     35  C27 396 d   1      10.035  53.893  16.136  0.00  0.00    -0.041 C 
ATOM     36  H1  396 d   1       8.787  55.356  15.137  0.00  0.00     0.076 H 
ATOM     37  H2  396 d   1       9.883  56.040  16.386  0.00  0.00     0.076 H 
ATOM     38  C29 396 d   1      10.271  53.866  17.627  0.00  0.00    -0.041 C 
ATOM     39  H3  396 d   1      10.969  53.964  15.559  0.00  0.00     0.035 H 
ATOM     40  H4  396 d   1       9.450  53.031  15.783  0.00  0.00     0.035 H 
ATOM     41  C25 396 d   1       8.818  54.106  18.152  0.00  0.00     0.084 C 
ATOM     42  H5  396 d   1      10.954  54.667  17.944  0.00  0.00     0.035 H 
ATOM     43  H6  396 d   1      10.666  52.894  17.958  0.00  0.00     0.035 H 
ATOM     44  H7  396 d   1       8.840  54.590  19.140  0.00  0.00     0.076 H 
ATOM     45  H8  396 d   1       8.271  53.154  18.222  0.00  0.00     0.076 H 
ATOM     46  H9  396 d   1       7.363  54.562  16.768  0.00  0.00     0.279 HD
ENDBRANCH  30  33
ENDBRANCH  27  30
ENDBRANCH  24  27
ENDBRANCH   1  23
BRANCH   3  47
ATOM     47  O3  396 d   1       7.877  55.046  22.105  0.00  0.00    -0.360 OA
ATOM     48  H16 396 d   1       8.405  55.153  22.887  0.00  0.00     0.217 HD
ENDBRANCH   3  47
BRANCH   7  49
ATOM     49  C21 396 d   1       1.611  53.253  23.143  0.00  0.00    -0.013 C 
ATOM     50  H18 396 d   1       1.781  53.316  22.058  0.00  0.00     0.057 H 
ATOM     51  H19 396 d   1       0.842  53.982  23.437  0.00  0.00     0.057 H 
ATOM     52  H20 396 d   1       1.273  52.239  23.403  0.00  0.00     0.057 H 
ENDBRANCH   7  49
BRANCH  18  53
ATOM     53  C7  396 d   1       1.633  53.001  28.610  0.00  0.00    -0.003 A 
ATOM     54  C12 396 d   1       0.982  51.763  28.650  0.00  0.00    -0.070 A 
ATOM     55  C11 396 d   1       0.011  51.548  29.643  0.00  0.00    -0.082 A 
ATOM     56  H23 396 d   1       1.221  50.987  27.931  0.00  0.00     0.084 H 
ATOM     57  C10 396 d   1      -0.335  52.484  30.617  0.00  0.00    -0.081 A 
ATOM     58  H24 396 d   1      -0.502  50.593  29.652  0.00  0.00     0.083 H 
ATOM     59  C9  396 d   1       0.263  53.755  30.564  0.00  0.00    -0.061 A 
ATOM     60  H25 396 d   1      -1.048  52.237  31.396  0.00  0.00     0.083 H 
ATOM     61  C8  396 d   1       1.241  53.997  29.567  0.00  0.00     0.045 A 
ATOM     62  H26 396 d   1      -0.017  54.531  31.268  0.00  0.00     0.086 H 
ATOM     63 CL5  396 d   1       1.848  55.610  29.615  0.00  0.00    -0.083 Cl
ENDBRANCH  18  53
TORSDOF 7
