REMARK WARNING: 32 MAX_TORS EXCEEDED!!!
REMARK  66 active torsions:
REMARK  status: ('A' for Active; 'I' for Inactive)
REMARK    1  A    between atoms: N_1  and  CA_2 
REMARK    2  A    between atoms: CA_2  and  C_3 
REMARK    3  A    between atoms: CA_2  and  CB_5 
REMARK       I    between atoms: C_3  and  N_12 
REMARK    4  A    between atoms: CB_5  and  CG_6 
REMARK    5  A    between atoms: CG_6  and  CD_7 
REMARK    6  A    between atoms: CD_7  and  NE_8 
REMARK       I    between atoms: NE_8  and  CZ_9 
REMARK       I    between atoms: CZ_9  and  NH1_10 
REMARK    7  A    between atoms: N_12  and  CA_13 
REMARK    8  A    between atoms: CA_13  and  C_14 
REMARK    9  A    between atoms: CA_13  and  CB_16 
REMARK       I    between atoms: C_14  and  N_18 
REMARK   10  A    between atoms: CB_16  and  OG_17 
REMARK   11  A    between atoms: N_18  and  CA_19 
REMARK   12  A    between atoms: CA_19  and  C_20 
REMARK   13  A    between atoms: CA_19  and  CB_22 
REMARK       I    between atoms: C_20  and  N_27 
REMARK   14  A    between atoms: CB_22  and  CG_23 
REMARK   15  A    between atoms: CG_23  and  CD_24 
REMARK   16  A    between atoms: N_27  and  CA_28 
REMARK   17  A    between atoms: CA_28  and  C_29 
REMARK   18  A    between atoms: CA_28  and  CB_31 
REMARK       I    between atoms: C_29  and  N_35 
REMARK   19  A    between atoms: CB_31  and  CG1_32 
REMARK   20  A    between atoms: CB_31  and  CG2_33 
REMARK   21  A    between atoms: CG1_32  and  CD1_34 
REMARK   22  A    between atoms: N_35  and  CA_36 
REMARK   23  A    between atoms: CA_36  and  C_37 
REMARK   24  A    between atoms: CA_36  and  CB_39 
REMARK       I    between atoms: C_37  and  N_43 
REMARK   25  A    between atoms: CB_39  and  CG1_40 
REMARK   26  A    between atoms: CB_39  and  CG2_41 
REMARK   27  A    between atoms: CG1_40  and  CD1_42 
REMARK   28  A    between atoms: N_43  and  CA_44 
REMARK   29  A    between atoms: CA_44  and  C_45 
REMARK   30  A    between atoms: CA_44  and  CB_47 
REMARK       I    between atoms: C_45  and  N_49 
REMARK   31  A    between atoms: CB_47  and  OG_48 
REMARK   32  A    between atoms: N_49  and  CA_50 
REMARK   33  A    between atoms: CA_50  and  C_51 
REMARK   34  A    between atoms: CA_50  and  CB_53 
REMARK       I    between atoms: C_51  and  N_56 
REMARK   35  A    between atoms: CB_53  and  OG1_54 
REMARK   36  A    between atoms: CB_53  and  CG2_55 
REMARK   37  A    between atoms: N_56  and  CA_57 
REMARK   38  A    between atoms: CA_57  and  C_58 
REMARK   39  A    between atoms: CA_57  and  CB_60 
REMARK       I    between atoms: C_58  and  N_61 
REMARK   40  A    between atoms: CA_62  and  C_63 
REMARK       I    between atoms: C_63  and  N_68 
REMARK   41  A    between atoms: N_68  and  CA_69 
REMARK   42  A    between atoms: CA_69  and  C_70 
REMARK   43  A    between atoms: CA_69  and  CB_72 
REMARK       I    between atoms: C_70  and  N_74 
REMARK   44  A    between atoms: CB_72  and  OG_73 
REMARK   45  A    between atoms: N_74  and  CA_75 
REMARK   46  A    between atoms: CA_75  and  C_76 
REMARK   47  A    between atoms: CA_75  and  CB_78 
REMARK       I    between atoms: C_76  and  N_80 
REMARK   48  A    between atoms: CB_78  and  OG_79 
REMARK   49  A    between atoms: N_80  and  CA_81 
REMARK   50  A    between atoms: CA_81  and  C_82 
REMARK   51  A    between atoms: CA_81  and  CB_84 
REMARK       I    between atoms: C_82  and  N_94 
REMARK   52  A    between atoms: CB_84  and  CG_85 
REMARK   53  A    between atoms: N_94  and  CA_95 
REMARK   54  A    between atoms: CA_95  and  C_96 
REMARK   55  A    between atoms: CA_95  and  CB_98 
REMARK       I    between atoms: C_96  and  N_101 
REMARK   56  A    between atoms: CB_98  and  CG1_99 
REMARK   57  A    between atoms: CB_98  and  CG2_100 
REMARK   58  A    between atoms: N_101  and  CA_102 
REMARK   59  A    between atoms: CA_102  and  C_103 
REMARK   60  A    between atoms: CA_102  and  CB_105 
REMARK       I    between atoms: C_103  and  N_108 
REMARK   61  A    between atoms: CB_105  and  CG1_106 
REMARK   62  A    between atoms: CB_105  and  CG2_107 
REMARK   63  A    between atoms: CA_109  and  C_110 
REMARK       I    between atoms: C_110  and  N_115 
REMARK   64  A    between atoms: N_115  and  CA_116 
REMARK   65  A    between atoms: CA_116  and  C_117 
REMARK       I    between atoms: C_117  and  N_119 
REMARK   66  A    between atoms: CA_120  and  C_121 
ROOT
ATOM      1  C   ALA d   1     -59.347 -24.852 -34.935  0.00  0.00     0.243 C 
ATOM      2  O   ALA d   1     -60.484 -24.422 -34.668  0.00  0.00    -0.271 OA
ATOM      3  N   PRO d   1     -58.259 -24.478 -34.227  0.00  0.00    -0.330 N 
ATOM      4  CA  PRO d   1     -58.341 -23.339 -33.301  0.00  0.00     0.108 C 
ATOM      5  CB  PRO d   1     -57.057 -23.430 -32.476  0.00  0.00    -0.075 C 
ATOM      6  CG  PRO d   1     -56.234 -24.508 -33.081  0.00  0.00    -0.087 C 
ATOM      7  CD  PRO d   1     -56.923 -25.096 -34.256  0.00  0.00     0.014 C 
ATOM      8  H   PRO d   1     -59.247 -23.373 -32.696  0.00  0.00     0.094 H 
ATOM      9  H   PRO d   1     -56.796 -22.821 -31.610  0.00  0.00     0.080 H 
ATOM     10  H   PRO d   1     -55.258 -24.824 -32.712  0.00  0.00     0.079 H 
ATOM     11  H   PRO d   1     -56.395 -24.898 -35.188  0.00  0.00     0.070 H 
ATOM     12  H   PRO d   1     -56.968 -26.184 -34.208  0.00  0.00     0.070 H 
ENDROOT
BRANCH   1  13
ATOM     13  CA  ALA d   1     -59.135 -25.901 -36.072  0.00  0.00     0.086 C 
ATOM     14  H   ALA d   1     -58.101 -26.233 -35.977  0.00  0.00     0.086 H 
BRANCH  13  15
ATOM     15  N   ALA d   1     -59.998 -27.054 -35.932  0.00  0.00    -0.346 N 
ATOM     16  C   THR d   1     -59.930 -27.846 -34.871  0.00  0.00     0.243 C 
ATOM     17  O   THR d   1     -59.160 -27.655 -33.920  0.00  0.00    -0.271 OA
ATOM     18  H   ALA d   1     -60.674 -27.262 -36.667  0.00  0.00     0.163 HD
BRANCH  16  19
ATOM     19  CA  THR d   1     -60.860 -29.032 -34.891  0.00  0.00     0.113 C 
ATOM     20  H   THR d   1     -61.636 -28.932 -34.132  0.00  0.00     0.091 H 
BRANCH  19  21
ATOM     21  N   THR d   1     -61.462 -29.103 -36.217  0.00  0.00    -0.344 N 
ATOM     22  C   SER d   1     -62.702 -28.709 -36.501  0.00  0.00     0.243 C 
ATOM     23  O   SER d   1     -63.420 -28.097 -35.708  0.00  0.00    -0.271 OA
ATOM     24  H   THR d   1     -60.896 -29.479 -36.977  0.00  0.00     0.163 HD
BRANCH  22  25
ATOM     25  CA  SER d   1     -63.180 -29.039 -37.924  0.00  0.00     0.109 C 
ATOM     26  H   SER d   1     -62.556 -29.849 -38.301  0.00  0.00     0.090 H 
BRANCH  25  27
ATOM     27  N   SER d   1     -64.556 -29.579 -37.994  0.00  0.00    -0.344 N 
ATOM     28  C   ILE d   1     -64.843 -30.804 -38.459  0.00  0.00     0.241 C 
ATOM     29  O   ILE d   1     -64.011 -31.536 -38.991  0.00  0.00    -0.271 OA
ATOM     30  H   SER d   1     -65.325 -28.990 -37.673  0.00  0.00     0.163 HD
BRANCH  28  31
ATOM     31  CA  ILE d   1     -66.292 -31.277 -38.310  0.00  0.00     0.092 C 
ATOM     32  H   ILE d   1     -66.877 -30.399 -38.036  0.00  0.00     0.088 H 
BRANCH  31  33
ATOM     33  N   ILE d   1     -66.837 -31.810 -39.553  0.00  0.00    -0.346 N 
ATOM     34  C   ILE d   1     -67.720 -31.159 -40.314  0.00  0.00     0.241 C 
ATOM     35  O   ILE d   1     -68.064 -29.989 -40.103  0.00  0.00    -0.271 OA
ATOM     36  H   ILE d   1     -66.526 -32.732 -39.858  0.00  0.00     0.163 HD
BRANCH  34  37
ATOM     37  CA  ILE d   1     -68.298 -31.956 -41.509  0.00  0.00     0.092 C 
ATOM     38  H   ILE d   1     -68.464 -32.969 -41.143  0.00  0.00     0.088 H 
BRANCH  37  39
ATOM     39  N   ILE d   1     -69.610 -31.458 -41.949  0.00  0.00    -0.346 N 
ATOM     40  C   GLU d   1     -70.732 -32.150 -41.754  0.00  0.00     0.241 C 
ATOM     41  O   GLU d   1     -70.742 -33.259 -41.216  0.00  0.00    -0.271 OA
ATOM     42  H   ILE d   1     -69.663 -30.554 -42.418  0.00  0.00     0.163 HD
BRANCH  40  43
ATOM     43  CA  GLU d   1     -72.042 -31.501 -42.249  0.00  0.00     0.090 C 
ATOM     44  H   GLU d   1     -71.762 -30.489 -42.540  0.00  0.00     0.087 H 
BRANCH  43  45
ATOM     45  N   GLU d   1     -72.602 -32.123 -43.471  0.00  0.00    -0.346 N 
ATOM     46  C   SER d   1     -72.132 -31.874 -44.700  0.00  0.00     0.243 C 
ATOM     47  O   SER d   1     -71.168 -31.126 -44.928  0.00  0.00    -0.271 OA
ATOM     48  H   GLU d   1     -73.383 -32.772 -43.372  0.00  0.00     0.163 HD
BRANCH  46  49
ATOM     49  CA  SER d   1     -72.856 -32.589 -45.856  0.00  0.00     0.109 C 
ATOM     50  H   SER d   1     -73.841 -32.875 -45.487  0.00  0.00     0.090 H 
BRANCH  49  51
ATOM     51  N   SER d   1     -73.080 -31.708 -47.016  0.00  0.00    -0.344 N 
ATOM     52  C   ARG d   1     -73.890 -32.049 -48.021  0.00  0.00     0.249 C 
ATOM     53  O   ARG d   1     -74.465 -33.140 -48.089  0.00  0.00    -0.271 OA
ATOM     54  H   SER d   1     -72.601 -30.808 -47.052  0.00  0.00     0.163 HD
BRANCH  52  55
ATOM     55  CA  ARG d   1     -74.079 -31.008 -49.123  0.00  0.00     0.176 C 
ATOM     56  H   ARG d   1     -73.283 -30.273 -49.005  0.00  0.00     0.099 H 
BRANCH  55  57
ATOM     57  N   ARG d   1     -73.956 -31.616 -50.485  0.00  0.00    -0.067 N 
ATOM     58  H   ARG d   1     -73.055 -32.087 -50.566  0.00  0.00     0.275 HD
ATOM     59  H   ARG d   1     -74.707 -32.292 -50.623  0.00  0.00     0.275 HD
ATOM     60  H   ARG d   1     -74.022 -30.883 -51.191  0.00  0.00     0.275 HD
ENDBRANCH  55  57
BRANCH  55  61
ATOM     61  CB  ARG d   1     -75.434 -30.294 -48.986  0.00  0.00    -0.029 C 
ATOM     62  H   ARG d   1     -76.192 -31.077 -48.965  0.00  0.00     0.036 H 
ATOM     63  H   ARG d   1     -75.495 -29.591 -49.817  0.00  0.00     0.036 H 
BRANCH  61  64
ATOM     64  CG  ARG d   1     -75.634 -29.467 -47.707  0.00  0.00    -0.047 C 
ATOM     65  H   ARG d   1     -75.009 -28.575 -47.759  0.00  0.00     0.035 H 
ATOM     66  H   ARG d   1     -75.358 -30.074 -46.845  0.00  0.00     0.035 H 
BRANCH  64  67
ATOM     67  CD  ARG d   1     -77.095 -29.044 -47.571  0.00  0.00     0.009 C 
ATOM     68  H   ARG d   1     -77.425 -28.648 -48.531  0.00  0.00     0.064 H 
ATOM     69  H   ARG d   1     -77.161 -28.301 -46.776  0.00  0.00     0.064 H 
BRANCH  67  70
ATOM     70  NE  ARG d   1     -77.967 -30.173 -47.217  0.00  0.00    -0.227 N 
ATOM     71  CZ  ARG d   1     -78.654 -30.925 -48.083  0.00  0.00     0.665 C 
ATOM     72  NH1 ARG d   1     -79.404 -31.925 -47.638  0.00  0.00    -0.235 N 
ATOM     73  NH2 ARG d   1     -78.596 -30.689 -49.390  0.00  0.00    -0.235 N 
ATOM     74  H   ARG d   1     -79.455 -32.118 -46.638  0.00  0.00     0.174 HD
ATOM     75  H   ARG d   1     -79.929 -32.501 -48.296  0.00  0.00     0.174 HD
ATOM     76  H   ARG d   1     -78.021 -29.925 -49.745  0.00  0.00     0.174 HD
ATOM     77  H   ARG d   1     -79.126 -31.272 -50.038  0.00  0.00     0.174 HD
ATOM     78  H   ARG d   1     -78.055 -30.402 -46.227  0.00  0.00     0.177 HD
ENDBRANCH  67  70
ENDBRANCH  64  67
ENDBRANCH  61  64
ENDBRANCH  55  61
ENDBRANCH  52  55
ENDBRANCH  49  51
BRANCH  49  79
ATOM     79  CB  SER d   1     -72.090 -33.865 -46.271  0.00  0.00     0.044 C 
ATOM     80  H   SER d   1     -71.021 -33.650 -46.266  0.00  0.00     0.077 H 
ATOM     81  H   SER d   1     -72.421 -34.165 -47.265  0.00  0.00     0.077 H 
BRANCH  79  82
ATOM     82  OG  SER d   1     -72.351 -34.942 -45.351  0.00  0.00    -0.398 OA
ATOM     83  H   SER d   1     -71.866 -35.723 -45.628  0.00  0.00     0.209 HD
ENDBRANCH  79  82
ENDBRANCH  49  79
ENDBRANCH  46  49
ENDBRANCH  43  45
BRANCH  43  84
ATOM     84  CB  GLU d   1     -73.105 -31.393 -41.121  0.00  0.00    -0.029 C 
ATOM     85  H   GLU d   1     -73.460 -30.363 -41.139  0.00  0.00     0.037 H 
ATOM     86  H   GLU d   1     -72.610 -31.721 -40.207  0.00  0.00     0.037 H 
BRANCH  84  87
ATOM     87  CG  GLU d   1     -74.369 -32.287 -41.271  0.00  0.00     0.018 C 
ATOM     88  H   GLU d   1     -74.451 -32.548 -42.326  0.00  0.00     0.049 H 
ATOM     89  H   GLU d   1     -75.211 -31.717 -40.879  0.00  0.00     0.049 H 
BRANCH  87  90
ATOM     90  CD  GLU d   1     -74.314 -33.612 -40.481  0.00  0.00     0.172 C 
ATOM     91  OE1 GLU d   1     -75.346 -34.321 -40.436  0.00  0.00    -0.648 OA
ATOM     92  OE2 GLU d   1     -73.255 -33.953 -39.904  0.00  0.00    -0.648 OA
ENDBRANCH  87  90
ENDBRANCH  84  87
ENDBRANCH  43  84
ENDBRANCH  40  43
ENDBRANCH  37  39
BRANCH  37  93
ATOM     93  CB  ILE d   1     -67.278 -32.053 -42.702  0.00  0.00    -0.030 C 
ATOM     94  H   ILE d   1     -67.614 -32.878 -43.331  0.00  0.00     0.043 H 
BRANCH  93  95
ATOM     95  CG1 ILE d   1     -65.846 -32.393 -42.228  0.00  0.00    -0.063 C 
ATOM     96  H   ILE d   1     -65.659 -31.784 -41.344  0.00  0.00     0.033 H 
ATOM     97  H   ILE d   1     -65.187 -32.206 -43.076  0.00  0.00     0.033 H 
BRANCH  95  98
ATOM     98  CD1 ILE d   1     -65.614 -33.862 -41.806  0.00  0.00    -0.076 C 
ATOM     99  H   ILE d   1     -66.279 -34.110 -40.979  0.00  0.00     0.027 H 
ATOM    100  H   ILE d   1     -65.822 -34.519 -42.651  0.00  0.00     0.027 H 
ATOM    101  H   ILE d   1     -64.578 -33.989 -41.492  0.00  0.00     0.027 H 
ENDBRANCH  95  98
ENDBRANCH  93  95
BRANCH  93 102
ATOM    102  CG2 ILE d   1     -67.280 -30.773 -43.541  0.00  0.00    -0.071 C 
ATOM    103  H   ILE d   1     -68.277 -30.609 -43.949  0.00  0.00     0.028 H 
ATOM    104  H   ILE d   1     -67.000 -29.928 -42.913  0.00  0.00     0.028 H 
ATOM    105  H   ILE d   1     -66.564 -30.874 -44.357  0.00  0.00     0.028 H 
ENDBRANCH  93 102
ENDBRANCH  37  93
ENDBRANCH  34  37
ENDBRANCH  31  33
BRANCH  31 106
ATOM    106  CB  ILE d   1     -66.402 -32.355 -37.201  0.00  0.00    -0.030 C 
ATOM    107  H   ILE d   1     -66.216 -33.339 -37.632  0.00  0.00     0.043 H 
BRANCH 106 108
ATOM    108  CG1 ILE d   1     -67.834 -32.374 -36.625  0.00  0.00    -0.063 C 
ATOM    109  H   ILE d   1     -68.510 -32.408 -37.480  0.00  0.00     0.033 H 
ATOM    110  H   ILE d   1     -67.921 -31.495 -35.987  0.00  0.00     0.033 H 
BRANCH 108 111
ATOM    111  CD1 ILE d   1     -68.181 -33.574 -35.754  0.00  0.00    -0.076 C 
ATOM    112  H   ILE d   1     -68.074 -34.488 -36.338  0.00  0.00     0.027 H 
ATOM    113  H   ILE d   1     -67.507 -33.607 -34.898  0.00  0.00     0.027 H 
ATOM    114  H   ILE d   1     -69.209 -33.483 -35.405  0.00  0.00     0.027 H 
ENDBRANCH 108 111
ENDBRANCH 106 108
BRANCH 106 115
ATOM    115  CG2 ILE d   1     -65.324 -32.152 -36.128  0.00  0.00    -0.071 C 
ATOM    116  H   ILE d   1     -64.338 -32.222 -36.588  0.00  0.00     0.028 H 
ATOM    117  H   ILE d   1     -65.446 -31.169 -35.674  0.00  0.00     0.028 H 
ATOM    118  H   ILE d   1     -65.425 -32.922 -35.363  0.00  0.00     0.028 H 
ENDBRANCH 106 115
ENDBRANCH  31 106
ENDBRANCH  28  31
ENDBRANCH  25  27
BRANCH  25 119
ATOM    119  CB  SER d   1     -63.018 -27.801 -38.789  0.00  0.00     0.044 C 
ATOM    120  H   SER d   1     -63.845 -27.116 -38.602  0.00  0.00     0.077 H 
ATOM    121  H   SER d   1     -63.017 -28.090 -39.840  0.00  0.00     0.077 H 
BRANCH 119 122
ATOM    122  OG  SER d   1     -61.798 -27.164 -38.474  0.00  0.00    -0.398 OA
ATOM    123  H   SER d   1     -61.696 -26.382 -39.021  0.00  0.00     0.209 HD
ENDBRANCH 119 122
ENDBRANCH  25 119
ENDBRANCH  22  25
ENDBRANCH  19  21
BRANCH  19 124
ATOM    124  CB  THR d   1     -60.050 -30.320 -34.604  0.00  0.00     0.060 C 
ATOM    125  H   THR d   1     -59.317 -30.433 -35.403  0.00  0.00     0.086 H 
BRANCH 124 126
ATOM    126  OG1 THR d   1     -60.946 -31.432 -34.556  0.00  0.00    -0.393 OA
ATOM    127  H   THR d   1     -60.450 -32.234 -34.378  0.00  0.00     0.210 HD
ENDBRANCH 124 126
BRANCH 124 128
ATOM    128  CG2 THR d   1     -59.292 -30.246 -33.268  0.00  0.00    -0.050 C 
ATOM    129  H   THR d   1     -58.596 -29.407 -33.292  0.00  0.00     0.031 H 
ATOM    130  H   THR d   1     -60.004 -30.106 -32.455  0.00  0.00     0.031 H 
ATOM    131  H   THR d   1     -58.740 -31.173 -33.113  0.00  0.00     0.031 H 
ENDBRANCH 124 128
ENDBRANCH  19 124
ENDBRANCH  16  19
ENDBRANCH  13  15
BRANCH  13 132
ATOM    132  CB  ALA d   1     -59.341 -25.289 -37.441  0.00  0.00    -0.049 C 
ATOM    133  H   ALA d   1     -59.097 -26.025 -38.207  0.00  0.00     0.030 H 
ATOM    134  H   ALA d   1     -60.382 -24.983 -37.548  0.00  0.00     0.030 H 
ATOM    135  H   ALA d   1     -58.692 -24.420 -37.550  0.00  0.00     0.030 H 
ENDBRANCH  13 132
ENDBRANCH   1  13
BRANCH   4 136
ATOM    136  C   PRO d   1     -58.365 -22.012 -34.062  0.00  0.00     0.245 C 
ATOM    137  O   PRO d   1     -57.870 -21.937 -35.191  0.00  0.00    -0.271 OA
ATOM    138  N   SER d   1     -58.950 -20.989 -33.438  0.00  0.00    -0.344 N 
ATOM    139  H   SER d   1     -59.389 -21.160 -32.533  0.00  0.00     0.163 HD
BRANCH 138 140
ATOM    140  CA  SER d   1     -58.993 -19.637 -33.985  0.00  0.00     0.109 C 
ATOM    141  H   SER d   1     -59.356 -19.669 -35.012  0.00  0.00     0.090 H 
BRANCH 140 142
ATOM    142  C   SER d   1     -57.595 -19.028 -33.984  0.00  0.00     0.243 C 
ATOM    143  O   SER d   1     -56.858 -19.174 -33.007  0.00  0.00    -0.271 OA
ATOM    144  N   SER d   1     -57.225 -18.351 -35.068  0.00  0.00    -0.344 N 
ATOM    145  H   SER d   1     -57.843 -18.341 -35.879  0.00  0.00     0.163 HD
BRANCH 144 146
ATOM    146  CA  SER d   1     -55.954 -17.618 -35.133  0.00  0.00     0.109 C 
ATOM    147  H   SER d   1     -55.178 -18.261 -34.717  0.00  0.00     0.090 H 
BRANCH 146 148
ATOM    148  C   SER d   1     -56.011 -16.333 -34.316  0.00  0.00     0.243 C 
ATOM    149  O   SER d   1     -54.972 -15.740 -33.965  0.00  0.00    -0.271 OA
ATOM    150  N   TRP d   1     -57.230 -15.894 -34.010  0.00  0.00    -0.346 N 
ATOM    151  H   TRP d   1     -58.047 -16.433 -34.299  0.00  0.00     0.163 HD
BRANCH 150 152
ATOM    152  CA  TRP d   1     -57.412 -14.652 -33.267  0.00  0.00     0.093 C 
ATOM    153  H   TRP d   1     -56.516 -14.068 -33.476  0.00  0.00     0.088 H 
BRANCH 152 154
ATOM    154  C   TRP d   1     -57.483 -14.839 -31.761  0.00  0.00     0.241 C 
ATOM    155  O   TRP d   1     -58.448 -15.430 -31.256  0.00  0.00    -0.271 OA
ATOM    156  N   VAL d   1     -56.483 -14.314 -31.051  0.00  0.00    -0.346 N 
ATOM    157  H   VAL d   1     -55.713 -13.860 -31.542  0.00  0.00     0.163 HD
BRANCH 156 158
ATOM    158  CA  VAL d   1     -56.457 -14.369 -29.590  0.00  0.00     0.092 C 
ATOM    159  H   VAL d   1     -57.416 -14.751 -29.238  0.00  0.00     0.088 H 
BRANCH 158 160
ATOM    160  C   VAL d   1     -56.221 -12.946 -29.068  0.00  0.00     0.241 C 
ATOM    161  O   VAL d   1     -55.274 -12.266 -29.468  0.00  0.00    -0.271 OA
ATOM    162  N   VAL d   1     -57.121 -12.480 -28.209  0.00  0.00    -0.346 N 
ATOM    163  H   VAL d   1     -57.885 -13.085 -27.909  0.00  0.00     0.163 HD
BRANCH 162 164
ATOM    164  CA  VAL d   1     -57.039 -11.124 -27.688  0.00  0.00     0.092 C 
ATOM    165  H   VAL d   1     -56.938 -10.418 -28.512  0.00  0.00     0.088 H 
BRANCH 164 166
ATOM    166  C   VAL d   1     -55.833 -11.080 -26.769  0.00  0.00     0.243 C 
ATOM    167  O   VAL d   1     -55.700 -11.922 -25.860  0.00  0.00    -0.271 OA
ATOM    168  N   PRO d   1     -54.933 -10.127 -27.012  0.00  0.00    -0.337 N 
ATOM    169  CA  PRO d   1     -53.753  -9.934 -26.185  0.00  0.00     0.091 C 
ATOM    170  CD  PRO d   1     -54.992  -9.175 -28.134  0.00  0.00    -0.001 C 
ATOM    171  CB  PRO d   1     -53.122  -8.685 -26.801  0.00  0.00    -0.036 C 
ATOM    172  H   PRO d   1     -53.113 -10.816 -26.180  0.00  0.00     0.087 H 
ATOM    173  CG  PRO d   1     -53.601  -8.669 -28.222  0.00  0.00    -0.048 C 
ATOM    174  H   PRO d   1     -52.034  -8.711 -26.742  0.00  0.00     0.036 H 
ATOM    175  H   PRO d   1     -53.412  -7.780 -26.267  0.00  0.00     0.036 H 
ATOM    176  H   PRO d   1     -52.978  -9.280 -28.876  0.00  0.00     0.035 H 
ATOM    177  H   PRO d   1     -53.549  -7.675 -28.666  0.00  0.00     0.035 H 
ATOM    178  H   PRO d   1     -55.719  -8.380 -27.973  0.00  0.00     0.064 H 
ATOM    179  H   PRO d   1     -55.331  -9.638 -29.061  0.00  0.00     0.064 H 
BRANCH 169 180
ATOM    180  C   PRO d   1     -54.072  -9.703 -24.677  0.00  0.00     0.241 C 
ATOM    181  O   PRO d   1     -55.239  -9.492 -24.293  0.00  0.00    -0.271 OA
ATOM    182  N   GLY d   1     -53.041  -9.748 -23.823  0.00  0.00    -0.351 N 
ATOM    183  H   GLY d   1     -52.138 -10.088 -24.153  0.00  0.00     0.163 HD
BRANCH 182 184
ATOM    184  CA  GLY d   1     -53.178  -9.316 -22.409  0.00  0.00     0.069 C 
ATOM    185  H   GLY d   1     -52.882 -10.175 -21.807  0.00  0.00     0.078 H 
ATOM    186  H   GLY d   1     -54.205  -8.964 -22.305  0.00  0.00     0.078 H 
BRANCH 184 187
ATOM    187  C   GLY d   1     -52.281  -8.142 -21.936  0.00  0.00     0.238 C 
ATOM    188  O   GLY d   1     -52.300  -7.808 -20.717  0.00  0.00    -0.272 OA
ATOM    189  N   PRO d   1     -51.539  -7.468 -22.883  0.00  0.00    -0.336 N 
ATOM    190  CA  PRO d   1     -50.331  -6.663 -22.556  0.00  0.00     0.098 C 
ATOM    191  CD  PRO d   1     -51.849  -7.368 -24.333  0.00  0.00    -0.001 C 
ATOM    192  CB  PRO d   1     -49.742  -6.305 -23.948  0.00  0.00    -0.035 C 
ATOM    193  H   PRO d   1     -49.673  -7.242 -21.908  0.00  0.00     0.089 H 
ATOM    194  CG  PRO d   1     -50.931  -6.247 -24.864  0.00  0.00    -0.048 C 
ATOM    195  H   PRO d   1     -49.009  -7.040 -24.280  0.00  0.00     0.036 H 
ATOM    196  H   PRO d   1     -49.199  -5.360 -23.928  0.00  0.00     0.036 H 
ATOM    197  H   PRO d   1     -50.660  -6.389 -25.910  0.00  0.00     0.035 H 
ATOM    198  H   PRO d   1     -51.416  -5.271 -24.858  0.00  0.00     0.035 H 
ATOM    199  H   PRO d   1     -52.901  -7.143 -24.506  0.00  0.00     0.064 H 
ATOM    200  H   PRO d   1     -51.672  -8.312 -24.849  0.00  0.00     0.064 H 
BRANCH 190 201
ATOM    201  C   PRO d   1     -50.576  -5.384 -21.735  0.00  0.00     0.196 C 
ATOM    202  O   PRO d   1     -51.693  -4.860 -21.573  0.00  0.00    -0.646 OA
ATOM    203  OXT PRO d   1     -49.596  -4.845 -21.209  0.00  0.00    -0.646 OA
ENDBRANCH 190 201
ENDBRANCH 184 187
ENDBRANCH 182 184
ENDBRANCH 169 180
ENDBRANCH 164 166
BRANCH 164 204
ATOM    204  CB  VAL d   1     -58.344 -10.696 -26.918  0.00  0.00    -0.033 C 
ATOM    205  H   VAL d   1     -58.528 -11.451 -26.153  0.00  0.00     0.042 H 
BRANCH 204 206
ATOM    206  CG1 VAL d   1     -58.177  -9.368 -26.238  0.00  0.00    -0.071 C 
ATOM    207  H   VAL d   1     -57.359  -9.429 -25.520  0.00  0.00     0.028 H 
ATOM    208  H   VAL d   1     -57.952  -8.605 -26.983  0.00  0.00     0.028 H 
ATOM    209  H   VAL d   1     -59.099  -9.109 -25.718  0.00  0.00     0.028 H 
ENDBRANCH 204 206
BRANCH 204 210
ATOM    210  CG2 VAL d   1     -59.518 -10.640 -27.853  0.00  0.00    -0.071 C 
ATOM    211  H   VAL d   1     -59.319  -9.914 -28.641  0.00  0.00     0.028 H 
ATOM    212  H   VAL d   1     -59.676 -11.624 -28.295  0.00  0.00     0.028 H 
ATOM    213  H   VAL d   1     -60.408 -10.342 -27.299  0.00  0.00     0.028 H 
ENDBRANCH 204 210
ENDBRANCH 164 204
ENDBRANCH 162 164
ENDBRANCH 158 160
BRANCH 158 214
ATOM    214  CB  VAL d   1     -55.383 -15.386 -29.019  0.00  0.00    -0.033 C 
ATOM    215  H   VAL d   1     -54.415 -15.020 -29.362  0.00  0.00     0.042 H 
BRANCH 214 216
ATOM    216  CG1 VAL d   1     -55.412 -15.415 -27.497  0.00  0.00    -0.071 C 
ATOM    217  H   VAL d   1     -55.191 -14.420 -27.112  0.00  0.00     0.028 H 
ATOM    218  H   VAL d   1     -56.401 -15.725 -27.160  0.00  0.00     0.028 H 
ATOM    219  H   VAL d   1     -54.665 -16.121 -27.134  0.00  0.00     0.028 H 
ENDBRANCH 214 216
BRANCH 214 220
ATOM    220  CG2 VAL d   1     -55.562 -16.830 -29.566  0.00  0.00    -0.071 C 
ATOM    221  H   VAL d   1     -56.549 -17.201 -29.291  0.00  0.00     0.028 H 
ATOM    222  H   VAL d   1     -55.465 -16.820 -30.652  0.00  0.00     0.028 H 
ATOM    223  H   VAL d   1     -54.797 -17.477 -29.137  0.00  0.00     0.028 H 
ENDBRANCH 214 220
ENDBRANCH 158 214
ENDBRANCH 156 158
ENDBRANCH 152 154
BRANCH 152 224
ATOM    224  CB  TRP d   1     -58.653 -13.887 -33.745  0.00  0.00    -0.012 C 
ATOM    225  H   TRP d   1     -59.531 -14.523 -33.632  0.00  0.00     0.044 H 
ATOM    226  H   TRP d   1     -58.523 -13.612 -34.792  0.00  0.00     0.044 H 
BRANCH 224 227
ATOM    227  CG  TRP d   1     -58.834 -12.667 -32.944  0.00  0.00    -0.028 A 
ATOM    228  CD1 TRP d   1     -59.963 -12.288 -32.298  0.00  0.00    -0.015 A 
ATOM    229  NE1 TRP d   1     -59.743 -11.108 -31.621  0.00  0.00    -0.365 N 
ATOM    230  H   TRP d   1     -60.906 -12.835 -32.312  0.00  0.00     0.112 H 
ATOM    231  CE2 TRP d   1     -58.444 -10.712 -31.792  0.00  0.00     0.042 A 
ATOM    232  H   TRP d   1     -60.443 -10.605 -31.075  0.00  0.00     0.165 HD
ATOM    233  CD2 TRP d   1     -57.828 -11.675 -32.626  0.00  0.00    -0.002 A 
ATOM    234  CZ2 TRP d   1     -57.768  -9.588 -31.298  0.00  0.00    -0.056 A 
ATOM    235  CE3 TRP d   1     -56.479 -11.508 -32.970  0.00  0.00    -0.070 A 
ATOM    236  CZ3 TRP d   1     -55.798 -10.384 -32.487  0.00  0.00    -0.082 A 
ATOM    237  H   TRP d   1     -55.971 -12.238 -33.600  0.00  0.00     0.084 H 
ATOM    238  CH2 TRP d   1     -56.456  -9.428 -31.667  0.00  0.00    -0.081 A 
ATOM    239  H   TRP d   1     -54.748 -10.240 -32.744  0.00  0.00     0.083 H 
ATOM    240  H   TRP d   1     -55.908  -8.550 -31.324  0.00  0.00     0.083 H 
ATOM    241  H   TRP d   1     -58.265  -8.869 -30.646  0.00  0.00     0.086 H 
ENDBRANCH 224 227
ENDBRANCH 152 224
ENDBRANCH 150 152
ENDBRANCH 146 148
BRANCH 146 242
ATOM    242  CB  SER d   1     -55.627 -17.272 -36.584  0.00  0.00     0.044 C 
ATOM    243  H   SER d   1     -55.372 -18.193 -37.108  0.00  0.00     0.077 H 
ATOM    244  H   SER d   1     -54.799 -16.564 -36.591  0.00  0.00     0.077 H 
BRANCH 242 245
ATOM    245  OG  SER d   1     -56.750 -16.665 -37.251  0.00  0.00    -0.398 OA
ATOM    246  H   SER d   1     -57.492 -17.274 -37.244  0.00  0.00     0.209 HD
ENDBRANCH 242 245
ENDBRANCH 146 242
ENDBRANCH 144 146
ENDBRANCH 140 142
BRANCH 140 247
ATOM    247  CB  SER d   1     -59.943 -18.779 -33.125  0.00  0.00     0.044 C 
ATOM    248  H   SER d   1     -59.800 -19.067 -32.083  0.00  0.00     0.077 H 
ATOM    249  H   SER d   1     -60.960 -18.953 -33.477  0.00  0.00     0.077 H 
BRANCH 247 250
ATOM    250  OG  SER d   1     -59.679 -17.386 -33.231  0.00  0.00    -0.398 OA
ATOM    251  H   SER d   1     -58.781 -17.209 -32.941  0.00  0.00     0.209 HD
ENDBRANCH 247 250
ENDBRANCH 140 247
ENDBRANCH 138 140
ENDBRANCH   4 136
TORSDOF 66
