REMARK  9 active torsions:
REMARK  status: ('A' for Active; 'I' for Inactive)
REMARK    1  A    between atoms: C26_1  and  N3_2 
REMARK    2  A    between atoms: N3_2  and  C25_3 
REMARK    3  A    between atoms: N3_2  and  C24_4 
REMARK    4  A    between atoms: C24_4  and  C23_5 
REMARK    5  A    between atoms: C23_5  and  C22_6 
REMARK    6  A    between atoms: C22_6  and  O4_7 
REMARK    7  A    between atoms: O4_7  and  C20_8 
REMARK    8  A    between atoms: N2_15  and  C21_16 
REMARK    9  A    between atoms: C2_27  and  C7_28 
ROOT
ATOM      1  C20 61E d   1       5.641  54.733  21.295  0.00  0.00     0.117 A 
ATOM      2  C18 61E d   1       4.319  54.337  21.671  0.00  0.00    -0.021 A 
ATOM      3  C19 61E d   1       6.647  54.981  22.258  0.00  0.00     0.186 A 
ATOM      4  O3  61E d   1       7.806  55.281  21.876  0.00  0.00    -0.290 OA
ATOM      5  C17 61E d   1       6.332  54.773  23.635  0.00  0.00     0.024 A 
ATOM      6  C15 61E d   1       5.013  54.444  24.023  0.00  0.00    -0.010 A 
ATOM      7  C16 61E d   1       4.009  54.199  23.041  0.00  0.00     0.045 A 
ATOM      8  N2  61E d   1       2.885  53.859  23.686  0.00  0.00    -0.350 N 
ATOM      9  C14 61E d   1       3.074  53.898  24.991  0.00  0.00     0.047 A 
ATOM     10  C1  61E d   1       2.170  53.541  26.018  0.00  0.00    -0.044 A 
ATOM     11  C13 61E d   1       4.405  54.254  25.255  0.00  0.00     0.017 A 
ATOM     12  C4  61E d   1       4.862  54.312  26.611  0.00  0.00     0.062 A 
ATOM     13  C5  61E d   1       6.068  54.606  27.280  0.00  0.00     0.260 A 
ATOM     14  O1  61E d   1       7.098  55.005  26.746  0.00  0.00    -0.267 OA
ATOM     15  N1  61E d   1       5.960  54.515  28.638  0.00  0.00    -0.289 N 
ATOM     16  C6  61E d   1       4.728  54.126  28.874  0.00  0.00     0.260 A 
ATOM     17  O2  61E d   1       4.317  53.928  30.015  0.00  0.00    -0.267 OA
ATOM     18  C3  61E d   1       3.948  53.993  27.643  0.00  0.00     0.060 A 
ATOM     19  C2  61E d   1       2.596  53.638  27.342  0.00  0.00    -0.005 A 
ATOM     20  H   61E d   1       3.562  54.145  20.911  0.00  0.00     0.091 H 
ATOM     21  H   61E d   1       6.518  55.739  24.104  0.00  0.00     0.052 H 
ATOM     22  H   61E d   1       6.922  53.902  23.918  0.00  0.00     0.052 H 
ATOM     23  H   61E d   1       1.163  53.198  25.780  0.00  0.00     0.088 H 
ATOM     24  H   61E d   1       6.686  54.709  29.327  0.00  0.00     0.172 HD
ENDROOT
BRANCH   1  25
ATOM     25  O4  61E d   1       6.020  54.923  19.978  0.00  0.00    -0.347 OA
BRANCH  25  26
ATOM     26  C22 61E d   1       4.999  54.779  18.903  0.00  0.00     0.028 C 
ATOM     27  H   61E d   1       4.509  53.808  18.972  0.00  0.00     0.075 H 
ATOM     28  H   61E d   1       4.230  55.545  19.004  0.00  0.00     0.075 H 
BRANCH  26  29
ATOM     29  C23 61E d   1       5.736  54.923  17.525  0.00  0.00    -0.020 C 
ATOM     30  H   61E d   1       5.169  54.331  16.806  0.00  0.00     0.038 H 
ATOM     31  H   61E d   1       5.792  55.991  17.312  0.00  0.00     0.038 H 
BRANCH  29  32
ATOM     32  C24 61E d   1       7.225  54.376  17.488  0.00  0.00     0.114 C 
ATOM     33  H   61E d   1       7.845  55.147  17.031  0.00  0.00     0.079 H 
ATOM     34  H   61E d   1       7.510  54.136  18.512  0.00  0.00     0.079 H 
BRANCH  32  35
ATOM     35  N3  61E d   1       7.391  53.105  16.658  0.00  0.00     0.080 N 
BRANCH  35  36
ATOM     36  C26 61E d   1       8.818  52.804  16.363  0.00  0.00     0.095 C 
ATOM     37  H   61E d   1       9.255  53.632  15.804  0.00  0.00     0.071 H 
ATOM     38  H   61E d   1       9.361  52.669  17.299  0.00  0.00     0.071 H 
ATOM     39  H   61E d   1       8.880  51.891  15.771  0.00  0.00     0.071 H 
ENDBRANCH  35  36
BRANCH  35  40
ATOM     40  C25 61E d   1       6.660  53.031  15.330  0.00  0.00     0.095 C 
ATOM     41  H   61E d   1       5.588  53.124  15.501  0.00  0.00     0.071 H 
ATOM     42  H   61E d   1       6.998  53.842  14.685  0.00  0.00     0.071 H 
ATOM     43  H   61E d   1       6.871  52.074  14.853  0.00  0.00     0.071 H 
ENDBRANCH  35  40
ENDBRANCH  32  35
ENDBRANCH  29  32
ENDBRANCH  26  29
ENDBRANCH  25  26
ENDBRANCH   1  25
BRANCH   8  44
ATOM     44  C21 61E d   1       1.533  53.503  23.080  0.00  0.00    -0.013 C 
ATOM     45  H   61E d   1       1.164  54.347  22.498  0.00  0.00     0.057 H 
ATOM     46  H   61E d   1       1.644  52.634  22.432  0.00  0.00     0.057 H 
ATOM     47  H   61E d   1       0.827  53.274  23.879  0.00  0.00     0.057 H 
ENDBRANCH   8  44
BRANCH  19  48
ATOM     48  C7  61E d   1       1.638  53.376  28.358  0.00  0.00    -0.003 A 
ATOM     49  C12 61E d   1       0.986  52.103  28.420  0.00  0.00    -0.070 A 
ATOM     50  C11 61E d   1       0.027  51.903  29.441  0.00  0.00    -0.082 A 
ATOM     51  H   61E d   1       1.220  51.315  27.705  0.00  0.00     0.084 H 
ATOM     52  C10 61E d   1      -0.261  52.874  30.430  0.00  0.00    -0.081 A 
ATOM     53  H   61E d   1      -0.515  50.958  29.467  0.00  0.00     0.083 H 
ATOM     54  C9  61E d   1       0.350  54.151  30.378  0.00  0.00    -0.061 A 
ATOM     55  H   61E d   1      -0.956  52.638  31.235  0.00  0.00     0.083 H 
ATOM     56  C8  61E d   1       1.264  54.418  29.303  0.00  0.00     0.045 A 
ATOM     57  H   61E d   1       0.133  54.908  31.131  0.00  0.00     0.086 H 
ATOM     58 CL1  61E d   1       1.898  56.029  29.367  0.00  0.00    -0.083 Cl
ENDBRANCH  19  48
TORSDOF 9
