REMARK  10 active torsions:
REMARK  status: ('A' for Active; 'I' for Inactive)
REMARK    1  A    between atoms: C26_1  and  C25_2 
REMARK    2  A    between atoms: C25_2  and  C24_3 
REMARK    3  A    between atoms: C24_3  and  C23_4 
REMARK    4  A    between atoms: N20_8  and  C21_9 
REMARK    5  A    between atoms: C13_14  and  C12_15 
REMARK    6  A    between atoms: C5_17  and  S2_18 
REMARK    7  A    between atoms: S2_18  and  N1_21 
REMARK    8  A    between atoms: C8_23  and  O9_24 
REMARK    9  A    between atoms: O9_24  and  C10_25 
REMARK   10  A    between atoms: C10_25  and  C11_26 
ROOT
ATOM      1  C23 WAN d   1      43.136  14.409  49.956  0.00  0.00     0.086 A 
ATOM      2  C18 WAN d   1      43.679  15.174  48.932  0.00  0.00     0.119 A 
ATOM      3  N17 WAN d   1      43.969  14.936  47.645  0.00  0.00    -0.226 NA
ATOM      4  N22 WAN d   1      43.074  15.188  51.034  0.00  0.00    -0.174 NA
ATOM      5  N20 WAN d   1      43.506  16.312  50.773  0.00  0.00    -0.266 N 
ATOM      6  C19 WAN d   1      43.909  16.416  49.509  0.00  0.00     0.151 A 
ATOM      7  C15 WAN d   1      44.455  17.435  48.740  0.00  0.00     0.278 A 
ATOM      8  O16 WAN d   1      44.660  18.552  49.213  0.00  0.00    -0.265 OA
ATOM      9  N14 WAN d   1      44.754  17.167  47.399  0.00  0.00    -0.305 N 
ATOM     10  C13 WAN d   1      44.495  15.896  46.871  0.00  0.00     0.144 A 
ATOM     11  H11 WAN d   1      45.151  17.880  46.821  0.00  0.00     0.170 HD
ENDROOT
BRANCH  10  12
ATOM     12  C12 WAN d   1      44.764  15.643  45.530  0.00  0.00     0.052 A 
ATOM     13  C6  WAN d   1      43.940  15.050  44.661  0.00  0.00    -0.037 A 
ATOM     14  C5  WAN d   1      44.396  14.967  43.412  0.00  0.00     0.123 A 
ATOM     15  H12 WAN d   1      42.965  14.662  44.953  0.00  0.00     0.088 H 
ATOM     16  S7  WAN d   1      45.956  15.663  43.305  0.00  0.00    -0.051 SA
ATOM     17  C8  WAN d   1      45.966  16.066  44.970  0.00  0.00     0.125 A 
BRANCH  14  18
ATOM     18  S2  WAN d   1      43.510  14.318  42.051  0.00  0.00     0.263 S 
ATOM     19  O3  WAN d   1      42.047  14.286  42.380  0.00  0.00    -0.200 OA
ATOM     20  O4  WAN d   1      43.996  12.929  41.764  0.00  0.00    -0.200 OA
BRANCH  18  21
ATOM     21  N1  WAN d   1      43.759  15.274  40.756  0.00  0.00    -0.324 N 
ATOM     22  H13 WAN d   1      43.327  15.054  39.882  0.00  0.00     0.169 HD
ATOM     23  H14 WAN d   1      44.344  16.081  40.835  0.00  0.00     0.169 HD
ENDBRANCH  18  21
ENDBRANCH  14  18
BRANCH  17  24
ATOM     24  O9  WAN d   1      46.970  16.699  45.635  0.00  0.00    -0.343 OA
BRANCH  24  25
ATOM     25  C10 WAN d   1      47.867  17.315  44.698  0.00  0.00     0.023 C 
ATOM     26  H15 WAN d   1      47.384  18.194  44.247  0.00  0.00     0.074 H 
ATOM     27  H16 WAN d   1      48.128  16.595  43.908  0.00  0.00     0.074 H 
BRANCH  25  28
ATOM     28  C11 WAN d   1      49.134  17.748  45.438  0.00  0.00    -0.056 C 
ATOM     29  H17 WAN d   1      49.829  18.222  44.729  0.00  0.00     0.030 H 
ATOM     30  H18 WAN d   1      49.614  16.867  45.889  0.00  0.00     0.030 H 
ATOM     31  H19 WAN d   1      48.870  18.466  46.228  0.00  0.00     0.030 H 
ENDBRANCH  25  28
ENDBRANCH  24  25
ENDBRANCH  17  24
ENDBRANCH  10  12
BRANCH   1  32
ATOM     32  C24 WAN d   1      42.678  12.952  49.856  0.00  0.00    -0.021 C 
ATOM     33  H6  WAN d   1      42.127  12.685  50.770  0.00  0.00     0.042 H 
ATOM     34  H7  WAN d   1      42.017  12.842  48.984  0.00  0.00     0.042 H 
BRANCH  32  35
ATOM     35  C25 WAN d   1      43.872  12.009  49.699  0.00  0.00    -0.063 C 
ATOM     36  H4  WAN d   1      44.007  11.773  48.633  0.00  0.00     0.033 H 
ATOM     37  H5  WAN d   1      44.776  12.506  50.082  0.00  0.00     0.033 H 
BRANCH  35  38
ATOM     38  C26 WAN d   1      43.648  10.709  50.475  0.00  0.00    -0.076 C 
ATOM     39  H1  WAN d   1      44.519  10.050  50.346  0.00  0.00     0.027 H 
ATOM     40  H2  WAN d   1      42.748  10.205  50.094  0.00  0.00     0.027 H 
ATOM     41  H3  WAN d   1      43.516  10.937  51.543  0.00  0.00     0.027 H 
ENDBRANCH  35  38
ENDBRANCH  32  35
ENDBRANCH   1  32
BRANCH   5  42
ATOM     42  C21 WAN d   1      43.538  17.427  51.746  0.00  0.00     0.003 C 
ATOM     43  H8  WAN d   1      43.968  18.319  51.267  0.00  0.00     0.059 H 
ATOM     44  H9  WAN d   1      44.155  17.141  52.611  0.00  0.00     0.059 H 
ATOM     45  H10 WAN d   1      42.515  17.649  52.083  0.00  0.00     0.059 H 
ENDBRANCH   5  42
TORSDOF 10
