REMARK  5 active torsions:
REMARK  status: ('A' for Active; 'I' for Inactive)
REMARK    1  A    between atoms: C2_2  and  C1_1 
REMARK    2  A    between atoms: C6_17  and  C2_2 
REMARK    3  A    between atoms: C2_2  and  N7_18 
REMARK    4  A    between atoms: C8_4  and  O15_21 
REMARK    5  A    between atoms: C18_23  and  C22_13 
REMARK       I    between atoms: N11_19  and  C6_17 
ROOT
ATOM      1  C1  NON d   1      66.443  72.415  71.099  0.00  0.00     0.000 C 
ATOM      2  C3  NON d   1      67.947  72.139  71.021  0.00  0.00    -0.027 C 
ATOM      3  C8  NON d   1      68.559  71.960  72.419  0.00  0.00     0.059 C 
ATOM      4  C9  NON d   1      66.816  73.463  73.404  0.00  0.00    -0.050 C 
ATOM      5  C10 NON d   1      66.387  70.940  73.233  0.00  0.00    -0.050 C 
ATOM      6  C13 NON d   1      68.305  73.249  73.246  0.00  0.00    -0.033 C 
ATOM      7  C14 NON d   1      67.912  70.694  73.081  0.00  0.00    -0.033 C 
ATOM      8  C16 NON d   1      66.229  72.223  74.135  0.00  0.00    -0.058 C 
ATOM      9  C4  NON d   1      66.229  73.691  71.976  0.00  0.00    -0.052 C 
ATOM     10  C5  NON d   1      65.780  71.218  71.815  0.00  0.00    -0.052 C 
ATOM     11  H2  NON d   1      68.440  72.985  70.520  0.00  0.00     0.038 H 
ATOM     12  H3  NON d   1      68.112  71.221  70.438  0.00  0.00     0.038 H 
ATOM     13  H4  NON d   1      66.625  74.358  74.015  0.00  0.00     0.040 H 
ATOM     14  H5  NON d   1      65.893  70.074  73.697  0.00  0.00     0.040 H 
ATOM     15  H6  NON d   1      68.746  74.112  72.725  0.00  0.00     0.037 H 
ATOM     16  H7  NON d   1      68.767  73.145  74.239  0.00  0.00     0.037 H 
ATOM     17  H8  NON d   1      68.360  70.523  74.071  0.00  0.00     0.037 H 
ATOM     18  H9  NON d   1      68.084  69.814  72.444  0.00  0.00     0.037 H 
ATOM     19  H10 NON d   1      65.162  72.394  74.342  0.00  0.00     0.034 H 
ATOM     20  H11 NON d   1      66.767  72.070  75.082  0.00  0.00     0.034 H 
ATOM     21  H19 NON d   1      65.152  73.903  72.055  0.00  0.00     0.034 H 
ATOM     22  H20 NON d   1      66.737  74.546  71.506  0.00  0.00     0.034 H 
ATOM     23  H21 NON d   1      65.914  70.320  71.194  0.00  0.00     0.034 H 
ATOM     24  H22 NON d   1      64.706  71.428  71.928  0.00  0.00     0.034 H 
ENDROOT
BRANCH   1  25
ATOM     25  C2  NON d   1      65.887  72.696  69.649  0.00  0.00     0.183 C 
ATOM     26  H1  NON d   1      66.493  73.523  69.249  0.00  0.00     0.100 H 
BRANCH  25  27
ATOM     27  C6  NON d   1      65.928  71.553  68.613  0.00  0.00     0.252 C 
ATOM     28  N11 NON d   1      66.888  71.512  67.694  0.00  0.00    -0.336 N 
ATOM     29  C17 NON d   1      67.752  72.620  67.148  0.00  0.00     0.019 A 
ATOM     30  C18 NON d   1      66.864  70.524  66.570  0.00  0.00     0.047 C 
ATOM     31  C19 NON d   1      68.638  72.013  66.154  0.00  0.00    -0.030 A 
ATOM     32  C20 NON d   1      68.999  71.970  67.611  0.00  0.00    -0.040 A 
ATOM     33  H27 NON d   1      67.421  73.668  67.181  0.00  0.00     0.073 H 
ATOM     34  C21 NON d   1      67.724  71.041  65.446  0.00  0.00    -0.036 C 
ATOM     35  H12 NON d   1      69.303  72.546  65.458  0.00  0.00     0.043 H 
ATOM     36  H15 NON d   1      68.296  70.227  64.977  0.00  0.00     0.037 H 
ATOM     37  H16 NON d   1      67.117  71.550  64.683  0.00  0.00     0.037 H 
ATOM     38  H13 NON d   1      69.832  72.579  67.993  0.00  0.00     0.036 H 
ATOM     39  H14 NON d   1      68.956  71.020  68.164  0.00  0.00     0.036 H 
ATOM     40  H28 NON d   1      65.834  70.350  66.226  0.00  0.00     0.081 H 
ATOM     41  O12 NON d   1      65.054  70.698  68.637  0.00  0.00    -0.271 OA
BRANCH  30  42
ATOM     42  C22 NON d   1      67.518  69.191  67.090  0.00  0.00    -0.005 C 
ATOM     43  N23 NON d   1      67.021  68.727  68.246  0.00  0.00    -0.314 NA
ATOM     44  H18 NON d   1      67.386  67.877  68.647  0.00  0.00     0.185 HD
ATOM     45  H17 NON d   1      68.316  68.682  66.551  0.00  0.00     0.110 H 
ENDBRANCH  30  42
ENDBRANCH  25  27
BRANCH  25  46
ATOM     46  N7  NON d   1      64.515  73.101  69.669  0.00  0.00    -0.066 N 
ATOM     47  H23 NON d   1      64.201  73.270  68.726  0.00  0.00     0.275 HD
ATOM     48  H24 NON d   1      64.422  73.946  70.210  0.00  0.00     0.275 HD
ATOM     49  H25 NON d   1      63.956  72.373  70.084  0.00  0.00     0.275 HD
ENDBRANCH  25  46
ENDBRANCH   1  25
BRANCH   3  50
ATOM     50  O15 NON d   1      69.958  71.864  72.292  0.00  0.00    -0.390 OA
ATOM     51  H26 NON d   1      70.350  71.806  73.155  0.00  0.00     0.210 HD
ENDBRANCH   3  50
TORSDOF 5
