REMARK  1 active torsions:
REMARK  status: ('A' for Active; 'I' for Inactive)
REMARK    1  A    between atoms: NAP_9  and  OAC_10 
ROOT
ATOM      1  OAA FQX d   1       2.833  -1.585   5.664  0.00  0.00    -0.262 OA
ATOM      2  CAJ FQX d   1       2.250  -2.466   6.283  0.00  0.00     0.314 A 
ATOM      3  CAK FQX d   1       1.139  -3.194   5.810  0.00  0.00     0.314 A 
ATOM      4  OAB FQX d   1       0.604  -3.034   4.722  0.00  0.00    -0.262 OA
ATOM      5  NAH FQX d   1       0.555  -4.189   6.618  0.00  0.00    -0.317 N 
ATOM      6  CAN FQX d   1       1.059  -4.481   7.906  0.00  0.00     0.064 A 
ATOM      7  CAE FQX d   1       0.472  -5.482   8.698  0.00  0.00    -0.022 A 
ATOM      8  CAO FQX d   1       1.022  -5.740   9.973  0.00  0.00     0.123 A 
ATOM      9  NAP FQX d   1       0.682  -6.608  10.906  0.00  0.00    -0.098 N 
ATOM     10  OAI FQX d   1       1.555  -6.473  12.023  0.00  0.00    -0.102 OA
ATOM     11  NAF FQX d   1       2.451  -5.440  11.663  0.00  0.00    -0.102 NA
ATOM     12  CAL FQX d   1       2.125  -5.017  10.443  0.00  0.00     0.120 A 
ATOM     13  CAD FQX d   1       2.719  -4.011   9.654  0.00  0.00    -0.022 A 
ATOM     14  CAM FQX d   1       2.178  -3.748   8.383  0.00  0.00     0.064 A 
ATOM     15  NAG FQX d   1       2.754  -2.759   7.572  0.00  0.00    -0.317 N 
ATOM     16  H1  FQX d   1      -0.233  -4.700   6.273  0.00  0.00     0.169 HD
ATOM     17  H2  FQX d   1      -0.383  -6.043   8.339  0.00  0.00     0.090 H 
ATOM     18  H4  FQX d   1       3.574  -3.453  10.019  0.00  0.00     0.090 H 
ATOM     19  H5  FQX d   1       3.542  -2.247   7.914  0.00  0.00     0.169 HD
ENDROOT
BRANCH   9  20
ATOM     20  OAC FQX d   1      -0.410  -7.508  10.726  0.00  0.00    -0.261 OA
ATOM     21  H3  FQX d   1      -1.057  -7.359  11.405  0.00  0.00     0.247 HD
ENDBRANCH   9  20
TORSDOF 1
