REMARK WARNING: 32 MAX_TORS EXCEEDED!!!
REMARK  97 active torsions:
REMARK  status: ('A' for Active; 'I' for Inactive)
REMARK    1  A    between atoms: N_1  and  CA_2 
REMARK    2  A    between atoms: CA_2  and  C_3 
REMARK    3  A    between atoms: CA_2  and  CB_5 
REMARK       I    between atoms: C_3  and  N_8 
REMARK    4  A    between atoms: CB_5  and  OG1_6 
REMARK    5  A    between atoms: CB_5  and  CG2_7 
REMARK    6  A    between atoms: N_8  and  CA_9 
REMARK    7  A    between atoms: CA_9  and  C_10 
REMARK    8  A    between atoms: CA_9  and  CB_12 
REMARK       I    between atoms: C_10  and  N_16 
REMARK    9  A    between atoms: CB_12  and  CG_13 
REMARK   10  A    between atoms: CG_13  and  SD_14 
REMARK   11  A    between atoms: SD_14  and  CE_15 
REMARK   12  A    between atoms: N_16  and  CA_17 
REMARK   13  A    between atoms: CA_17  and  C_18 
REMARK   14  A    between atoms: CA_17  and  CB_20 
REMARK       I    between atoms: C_18  and  N_25 
REMARK   15  A    between atoms: CB_20  and  CG_21 
REMARK   16  A    between atoms: CG_21  and  CD_22 
REMARK   17  A    between atoms: N_25  and  CA_26 
REMARK   18  A    between atoms: CA_26  and  C_27 
REMARK   19  A    between atoms: CA_26  and  CB_29 
REMARK       I    between atoms: C_27  and  N_33 
REMARK   20  A    between atoms: CB_29  and  CG_30 
REMARK       I    between atoms: CG_30  and  ND2_32 
REMARK   21  A    between atoms: N_33  and  CA_34 
REMARK   22  A    between atoms: CA_34  and  C_35 
REMARK   23  A    between atoms: CA_34  and  CB_37 
REMARK       I    between atoms: C_35  and  N_41 
REMARK   24  A    between atoms: CB_37  and  CG_38 
REMARK   25  A    between atoms: CG_38  and  CD1_39 
REMARK   26  A    between atoms: CG_38  and  CD2_40 
REMARK   27  A    between atoms: N_41  and  CA_42 
REMARK   28  A    between atoms: CA_42  and  C_43 
REMARK   29  A    between atoms: CA_42  and  CB_45 
REMARK       I    between atoms: C_43  and  N_47 
REMARK   30  A    between atoms: CB_45  and  OG_46 
REMARK   31  A    between atoms: N_47  and  CA_48 
REMARK   32  A    between atoms: CA_48  and  C_49 
REMARK   33  A    between atoms: CA_48  and  CB_51 
REMARK       I    between atoms: C_49  and  N_58 
REMARK   34  A    between atoms: CB_51  and  CG_52 
REMARK   35  A    between atoms: CG_52  and  CD_53 
REMARK   36  A    between atoms: CD_53  and  NE_54 
REMARK       I    between atoms: NE_54  and  CZ_55 
REMARK       I    between atoms: CZ_55  and  NH1_56 
REMARK       I    between atoms: CZ_55  and  NH2_57 
REMARK   37  A    between atoms: N_58  and  CA_59 
REMARK   38  A    between atoms: CA_59  and  C_60 
REMARK   39  A    between atoms: CA_59  and  CB_62 
REMARK       I    between atoms: C_60  and  N_69 
REMARK   40  A    between atoms: CB_62  and  CG_63 
REMARK   41  A    between atoms: CG_63  and  CD_64 
REMARK   42  A    between atoms: CD_64  and  NE_65 
REMARK       I    between atoms: NE_65  and  CZ_66 
REMARK       I    between atoms: CZ_66  and  NH1_67 
REMARK   43  A    between atoms: N_69  and  CA_70 
REMARK   44  A    between atoms: CA_70  and  C_71 
REMARK   45  A    between atoms: CA_70  and  CB_73 
REMARK       I    between atoms: C_71  and  N_77 
REMARK   46  A    between atoms: CB_73  and  CG_74 
REMARK   47  A    between atoms: CG_74  and  CD1_75 
REMARK   48  A    between atoms: CG_74  and  CD2_76 
REMARK   49  A    between atoms: N_77  and  CA_78 
REMARK   50  A    between atoms: CA_78  and  C_79 
REMARK   51  A    between atoms: CA_78  and  CB_81 
REMARK       I    between atoms: C_79  and  N_86 
REMARK   52  A    between atoms: CB_81  and  CG_82 
REMARK   53  A    between atoms: CG_82  and  CD_83 
REMARK   54  A    between atoms: CD_83  and  CE_84 
REMARK   55  A    between atoms: CE_84  and  NZ_85 
REMARK   56  A    between atoms: N_86  and  CA_87 
REMARK   57  A    between atoms: CA_87  and  C_88 
REMARK   58  A    between atoms: CA_87  and  CB_90 
REMARK       I    between atoms: C_88  and  N_93 
REMARK   59  A    between atoms: CB_90  and  CG1_91 
REMARK   60  A    between atoms: CB_90  and  CG2_92 
REMARK   61  A    between atoms: N_93  and  CA_94 
REMARK   62  A    between atoms: CA_94  and  C_95 
REMARK   63  A    between atoms: CA_94  and  CB_97 
REMARK       I    between atoms: C_95  and  N_100 
REMARK   64  A    between atoms: CB_97  and  OG1_98 
REMARK   65  A    between atoms: CB_97  and  CG2_99 
REMARK   66  A    between atoms: N_100  and  CA_101 
REMARK   67  A    between atoms: CA_101  and  C_102 
REMARK       I    between atoms: C_102  and  N_104 
REMARK   68  A    between atoms: N_104  and  CA_105 
REMARK   69  A    between atoms: CA_105  and  C_106 
REMARK   70  A    between atoms: CA_105  and  CB_108 
REMARK       I    between atoms: C_106  and  N_112 
REMARK   71  A    between atoms: CB_108  and  CG_109 
REMARK   72  A    between atoms: N_112  and  CA_113 
REMARK   73  A    between atoms: CA_113  and  C_114 
REMARK   74  A    between atoms: CA_113  and  CB_116 
REMARK       I    between atoms: C_114  and  N_120 
REMARK   75  A    between atoms: CB_116  and  CG_117 
REMARK   76  A    between atoms: CG_117  and  CD1_118 
REMARK   77  A    between atoms: CG_117  and  CD2_119 
REMARK   78  A    between atoms: N_120  and  CA_121 
REMARK   79  A    between atoms: CA_121  and  C_122 
REMARK   80  A    between atoms: CA_121  and  CB_124 
REMARK       I    between atoms: C_122  and  N_131 
REMARK   81  A    between atoms: CB_124  and  CG_125 
REMARK   82  A    between atoms: N_131  and  CA_132 
REMARK   83  A    between atoms: CA_132  and  C_133 
REMARK   84  A    between atoms: CA_132  and  CB_135 
REMARK       I    between atoms: C_133  and  N_139 
REMARK   85  A    between atoms: CB_135  and  CG_136 
REMARK   86  A    between atoms: N_139  and  CA_140 
REMARK   87  A    between atoms: CA_140  and  C_141 
REMARK   88  A    between atoms: CA_140  and  CB_143 
REMARK       I    between atoms: C_141  and  N_147 
REMARK   89  A    between atoms: CB_143  and  CG1_144 
REMARK   90  A    between atoms: CB_143  and  CG2_145 
REMARK   91  A    between atoms: CG1_144  and  CD1_146 
REMARK   92  A    between atoms: N_147  and  CA_148 
REMARK   93  A    between atoms: CA_148  and  C_149 
REMARK   94  A    between atoms: CA_148  and  CB_151 
REMARK   95  A    between atoms: CB_151  and  CG_152 
REMARK   96  A    between atoms: CG_152  and  SD_153 
REMARK   97  A    between atoms: SD_153  and  CE_154 
ROOT
ATOM      1  C   LEU d   1       0.950   3.763  25.672  0.00  0.00     0.241 C 
ATOM      2  O   LEU d   1       2.003   3.401  25.148  0.00  0.00    -0.271 OA
ATOM      3  N   LYS d   1       0.779   4.984  26.177  0.00  0.00    -0.346 N 
ATOM      4  H84 LYS d   1      -0.104   5.234  26.574  0.00  0.00     0.163 HD
ENDROOT
BRANCH   1   5
ATOM      5  CA  LEU d   1      -0.236   2.810  25.763  0.00  0.00     0.089 C 
ATOM      6  H74 LEU d   1       0.141   1.777  25.775  0.00  0.00     0.087 H 
BRANCH   5   7
ATOM      7  N   LEU d   1      -0.980   3.048  26.991  0.00  0.00    -0.346 N 
ATOM      8  C   ARG d   1      -0.478   2.735  28.185  0.00  0.00     0.241 C 
ATOM      9  O   ARG d   1       0.643   2.220  28.332  0.00  0.00    -0.271 OA
ATOM     10  H73 LEU d   1      -1.891   3.457  26.937  0.00  0.00     0.163 HD
BRANCH   8  11
ATOM     11  CA  ARG d   1      -1.363   3.056  29.400  0.00  0.00     0.089 C 
ATOM     12  H61 ARG d   1      -0.711   3.134  30.282  0.00  0.00     0.087 H 
BRANCH  11  13
ATOM     13  N   ARG d   1      -2.073   4.322  29.247  0.00  0.00    -0.346 N 
ATOM     14  C   ARG d   1      -1.436   5.485  29.157  0.00  0.00     0.241 C 
ATOM     15  O   ARG d   1      -0.209   5.587  29.187  0.00  0.00    -0.271 OA
ATOM     16  H60 ARG d   1      -3.072   4.314  29.209  0.00  0.00     0.163 HD
BRANCH  14  17
ATOM     17  CA  ARG d   1      -2.320   6.713  28.995  0.00  0.00     0.089 C 
ATOM     18  H48 ARG d   1      -1.720   7.537  28.580  0.00  0.00     0.087 H 
BRANCH  17  19
ATOM     19  N   ARG d   1      -3.408   6.408  28.071  0.00  0.00    -0.346 N 
ATOM     20  C   SER d   1      -3.162   6.290  26.770  0.00  0.00     0.243 C 
ATOM     21  O   SER d   1      -2.032   6.428  26.296  0.00  0.00    -0.271 OA
ATOM     22  H47 ARG d   1      -4.339   6.288  28.417  0.00  0.00     0.163 HD
BRANCH  20  23
ATOM     23  CA  SER d   1      -4.350   5.970  25.865  0.00  0.00     0.109 C 
ATOM     24  H43 SER d   1      -3.969   5.503  24.945  0.00  0.00     0.090 H 
BRANCH  23  25
ATOM     25  N   SER d   1      -5.273   5.047  26.498  0.00  0.00    -0.344 N 
ATOM     26  C   LEU d   1      -4.917   3.814  26.832  0.00  0.00     0.241 C 
ATOM     27  O   LEU d   1      -3.794   3.354  26.634  0.00  0.00    -0.271 OA
ATOM     28  H42 SER d   1      -6.207   5.350  26.688  0.00  0.00     0.163 HD
BRANCH  26  29
ATOM     29  CA  LEU d   1      -6.009   2.982  27.480  0.00  0.00     0.089 C 
ATOM     30  H32 LEU d   1      -5.561   2.172  28.075  0.00  0.00     0.087 H 
BRANCH  29  31
ATOM     31  N   LEU d   1      -6.794   3.848  28.346  0.00  0.00    -0.346 N 
ATOM     32  C   ASN d   1      -6.225   4.550  29.322  0.00  0.00     0.241 C 
ATOM     33  O   ASN d   1      -5.016   4.510  29.561  0.00  0.00    -0.271 OA
ATOM     34  H31 LEU d   1      -7.782   3.917  28.205  0.00  0.00     0.163 HD
BRANCH  32  35
ATOM     35  CA  ASN d   1      -7.154   5.430  30.148  0.00  0.00     0.097 C 
ATOM     36  H26 ASN d   1      -6.555   6.146  30.730  0.00  0.00     0.088 H 
BRANCH  35  37
ATOM     37  N   ASN d   1      -8.032   6.160  29.249  0.00  0.00    -0.346 N 
ATOM     38  C   GLU d   1      -7.552   7.128  28.480  0.00  0.00     0.241 C 
ATOM     39  O   GLU d   1      -6.373   7.470  28.504  0.00  0.00    -0.271 OA
ATOM     40  H25 ASN d   1      -9.005   5.931  29.210  0.00  0.00     0.163 HD
BRANCH  38  41
ATOM     41  CA  GLU d   1      -8.540   7.814  27.548  0.00  0.00     0.090 C 
ATOM     42  H20 GLU d   1      -7.978   8.221  26.694  0.00  0.00     0.087 H 
BRANCH  41  43
ATOM     43  N   GLU d   1      -9.534   6.885  27.043  0.00  0.00    -0.346 N 
ATOM     44  C   MET d   1      -9.237   5.954  26.148  0.00  0.00     0.241 C 
ATOM     45  O   MET d   1      -8.104   5.790  25.697  0.00  0.00    -0.271 OA
ATOM     46  H19 GLU d   1     -10.473   6.949  27.381  0.00  0.00     0.163 HD
BRANCH  44  47
ATOM     47  CA  MET d   1     -10.401   5.070  25.722  0.00  0.00     0.090 C 
ATOM     48  H11 MET d   1     -10.040   4.043  25.562  0.00  0.00     0.087 H 
BRANCH  47  49
ATOM     49  N   MET d   1     -11.387   5.084  26.793  0.00  0.00    -0.346 N 
ATOM     50  C   THR d   1     -11.174   4.480  27.956  0.00  0.00     0.251 C 
ATOM     51  O   THR d   1     -10.150   3.844  28.212  0.00  0.00    -0.271 OA
ATOM     52  H10 MET d   1     -12.252   5.564  26.648  0.00  0.00     0.163 HD
BRANCH  50  53
ATOM     53  CA  THR d   1     -12.294   4.611  28.979  0.00  0.00     0.199 C 
ATOM     54  H4  THR d   1     -13.262   4.641  28.457  0.00  0.00     0.103 H 
BRANCH  53  55
ATOM     55  N   THR d   1     -12.289   3.440  29.903  0.00  0.00    -0.064 N 
ATOM     56  H1  THR d   1     -12.424   2.593  29.373  0.00  0.00     0.275 HD
ATOM     57  H2  THR d   1     -13.034   3.539  30.575  0.00  0.00     0.275 HD
ATOM     58  H3  THR d   1     -11.405   3.397  30.386  0.00  0.00     0.275 HD
ENDBRANCH  53  55
BRANCH  53  59
ATOM     59  CB  THR d   1     -12.089   5.948  29.743  0.00  0.00     0.068 C 
ATOM     60  H5  THR d   1     -11.097   5.941  30.218  0.00  0.00     0.086 H 
BRANCH  59  61
ATOM     61  OG1 THR d   1     -13.097   6.089  30.750  0.00  0.00    -0.393 OA
ATOM     62  H6  THR d   1     -12.967   6.908  31.214  0.00  0.00     0.210 HD
ENDBRANCH  59  61
BRANCH  59  63
ATOM     63  CG2 THR d   1     -12.179   7.136  28.786  0.00  0.00    -0.050 C 
ATOM     64  H7  THR d   1     -12.031   8.071  29.347  0.00  0.00     0.031 H 
ATOM     65  H8  THR d   1     -13.170   7.148  28.308  0.00  0.00     0.031 H 
ATOM     66  H9  THR d   1     -11.401   7.045  28.014  0.00  0.00     0.031 H 
ENDBRANCH  59  63
ENDBRANCH  53  59
ENDBRANCH  50  53
ENDBRANCH  47  49
BRANCH  47  67
ATOM     67  CB  MET d   1     -11.045   5.584  24.422  0.00  0.00    -0.030 C 
ATOM     68  H12 MET d   1     -11.807   6.328  24.696  0.00  0.00     0.037 H 
ATOM     69  H13 MET d   1     -11.528   4.730  23.925  0.00  0.00     0.037 H 
BRANCH  67  70
ATOM     70  CG  MET d   1     -10.097   6.235  23.415  0.00  0.00    -0.021 C 
ATOM     71  H14 MET d   1     -10.583   6.240  22.428  0.00  0.00     0.049 H 
ATOM     72  H15 MET d   1      -9.174   5.639  23.366  0.00  0.00     0.049 H 
BRANCH  70  73
ATOM     73  SD  MET d   1      -9.661   7.943  23.856  0.00  0.00    -0.173 SA
BRANCH  73  74
ATOM     74  CE  MET d   1     -11.150   8.810  23.343  0.00  0.00    -0.035 C 
ATOM     75  H16 MET d   1     -11.038   9.884  23.550  0.00  0.00     0.041 H 
ATOM     76  H17 MET d   1     -12.013   8.417  23.900  0.00  0.00     0.041 H 
ATOM     77  H18 MET d   1     -11.309   8.659  22.265  0.00  0.00     0.041 H 
ENDBRANCH  73  74
ENDBRANCH  70  73
ENDBRANCH  67  70
ENDBRANCH  47  67
ENDBRANCH  44  47
ENDBRANCH  41  43
BRANCH  41  78
ATOM     78  CB  GLU d   1      -9.247   8.963  28.256  0.00  0.00    -0.029 C 
ATOM     79  H21 GLU d   1      -8.492   9.670  28.631  0.00  0.00     0.037 H 
ATOM     80  H22 GLU d   1      -9.825   8.560  29.101  0.00  0.00     0.037 H 
BRANCH  78  81
ATOM     81  CG  GLU d   1     -10.189   9.699  27.322  0.00  0.00     0.018 C 
ATOM     82  H23 GLU d   1     -10.927   8.982  26.933  0.00  0.00     0.049 H 
ATOM     83  H24 GLU d   1      -9.603  10.112  26.488  0.00  0.00     0.049 H 
BRANCH  81  84
ATOM     84  CD  GLU d   1     -10.927  10.829  27.996  0.00  0.00     0.172 C 
ATOM     85  OE1 GLU d   1     -11.568  11.620  27.267  0.00  0.00    -0.648 OA
ATOM     86  OE2 GLU d   1     -10.871  10.920  29.245  0.00  0.00    -0.648 OA
ENDBRANCH  81  84
ENDBRANCH  78  81
ENDBRANCH  41  78
ENDBRANCH  38  41
ENDBRANCH  35  37
BRANCH  35  87
ATOM     87  CB  ASN d   1      -7.971   4.571  31.109  0.00  0.00     0.036 C 
ATOM     88  H27 ASN d   1      -7.292   3.880  31.630  0.00  0.00     0.051 H 
ATOM     89  H28 ASN d   1      -8.707   3.994  30.529  0.00  0.00     0.051 H 
BRANCH  87  90
ATOM     90  CG  ASN d   1      -8.706   5.398  32.139  0.00  0.00     0.217 C 
ATOM     91  OD1 ASN d   1      -8.091   6.145  32.906  0.00  0.00    -0.274 OA
ATOM     92  ND2 ASN d   1     -10.029   5.271  32.168  0.00  0.00    -0.370 N 
ATOM     93  H29 ASN d   1     -10.567   5.794  32.829  0.00  0.00     0.159 HD
ATOM     94  H30 ASN d   1     -10.486   4.652  31.529  0.00  0.00     0.159 HD
ENDBRANCH  87  90
ENDBRANCH  35  87
ENDBRANCH  32  35
ENDBRANCH  29  31
BRANCH  29  95
ATOM     95  CB  LEU d   1      -6.888   2.384  26.384  0.00  0.00    -0.035 C 
ATOM     96  H33 LEU d   1      -7.447   3.200  25.903  0.00  0.00     0.037 H 
ATOM     97  H34 LEU d   1      -7.594   1.681  26.850  0.00  0.00     0.037 H 
BRANCH  95  98
ATOM     98  CG  LEU d   1      -6.100   1.636  25.306  0.00  0.00    -0.059 C 
ATOM     99  H35 LEU d   1      -5.308   2.293  24.918  0.00  0.00     0.038 H 
BRANCH  98 100
ATOM    100  CD1 LEU d   1      -5.461   0.403  25.915  0.00  0.00    -0.073 C 
ATOM    101  H36 LEU d   1      -4.894  -0.136  25.142  0.00  0.00     0.028 H 
ATOM    102  H37 LEU d   1      -6.245  -0.254  26.320  0.00  0.00     0.028 H 
ATOM    103  H38 LEU d   1      -4.781   0.705  26.725  0.00  0.00     0.028 H 
ENDBRANCH  98 100
BRANCH  98 104
ATOM    104  CD2 LEU d   1      -7.023   1.254  24.161  0.00  0.00    -0.073 C 
ATOM    105  H39 LEU d   1      -7.474   2.162  23.735  0.00  0.00     0.028 H 
ATOM    106  H40 LEU d   1      -7.817   0.591  24.535  0.00  0.00     0.028 H 
ATOM    107  H41 LEU d   1      -6.446   0.732  23.383  0.00  0.00     0.028 H 
ENDBRANCH  98 104
ENDBRANCH  95  98
ENDBRANCH  29  95
ENDBRANCH  26  29
ENDBRANCH  23  25
BRANCH  23 108
ATOM    108  CB  SER d   1      -5.081   7.257  25.494  0.00  0.00     0.044 C 
ATOM    109  H44 SER d   1      -5.417   7.760  26.413  0.00  0.00     0.077 H 
ATOM    110  H45 SER d   1      -5.953   7.011  24.871  0.00  0.00     0.077 H 
BRANCH 108 111
ATOM    111  OG  SER d   1      -4.224   8.123  24.775  0.00  0.00    -0.398 OA
ATOM    112  H46 SER d   1      -4.694   8.918  24.552  0.00  0.00     0.209 HD
ENDBRANCH 108 111
ENDBRANCH  23 108
ENDBRANCH  20  23
ENDBRANCH  17  19
BRANCH  17 113
ATOM    113  CB  ARG d   1      -2.867   7.138  30.356  0.00  0.00    -0.036 C 
ATOM    114  H49 ARG d   1      -3.167   6.235  30.908  0.00  0.00     0.036 H 
ATOM    115  H50 ARG d   1      -3.747   7.777  30.193  0.00  0.00     0.036 H 
BRANCH 113 116
ATOM    116  CG  ARG d   1      -1.863   7.907  31.200  0.00  0.00    -0.048 C 
ATOM    117  H51 ARG d   1      -1.726   8.910  30.770  0.00  0.00     0.035 H 
ATOM    118  H52 ARG d   1      -0.903   7.371  31.193  0.00  0.00     0.035 H 
BRANCH 116 119
ATOM    119  CD  ARG d   1      -2.346   8.044  32.637  0.00  0.00     0.009 C 
ATOM    120  H53 ARG d   1      -2.409   7.043  33.087  0.00  0.00     0.064 H 
ATOM    121  H54 ARG d   1      -3.343   8.509  32.634  0.00  0.00     0.064 H 
BRANCH 119 122
ATOM    122  NE  ARG d   1      -1.443   8.868  33.442  0.00  0.00    -0.227 N 
ATOM    123  CZ  ARG d   1      -1.476   8.950  34.770  0.00  0.00     0.665 C 
ATOM    124  NH1 ARG d   1      -2.368   8.257  35.467  0.00  0.00    -0.235 N 
ATOM    125  NH2 ARG d   1      -0.611   9.729  35.403  0.00  0.00    -0.235 N 
ATOM    126  H56 ARG d   1      -2.386   8.327  36.495  0.00  0.00     0.174 HD
ATOM    127  H57 ARG d   1      -3.042   7.649  34.980  0.00  0.00     0.174 HD
ATOM    128  H58 ARG d   1       0.084  10.269  34.867  0.00  0.00     0.174 HD
ATOM    129  H59 ARG d   1      -0.633   9.794  36.431  0.00  0.00     0.174 HD
ATOM    130  H55 ARG d   1      -0.732   9.424  32.946  0.00  0.00     0.177 HD
ENDBRANCH 119 122
ENDBRANCH 116 119
ENDBRANCH 113 116
ENDBRANCH  17 113
ENDBRANCH  14  17
ENDBRANCH  11  13
BRANCH  11 131
ATOM    131  CB  ARG d   1      -2.374   1.928  29.643  0.00  0.00    -0.036 C 
ATOM    132  H62 ARG d   1      -1.827   0.976  29.705  0.00  0.00     0.036 H 
ATOM    133  H63 ARG d   1      -3.071   1.895  28.793  0.00  0.00     0.036 H 
BRANCH 131 134
ATOM    134  CG  ARG d   1      -3.186   2.107  30.932  0.00  0.00    -0.048 C 
ATOM    135  H64 ARG d   1      -3.899   2.933  30.788  0.00  0.00     0.035 H 
ATOM    136  H65 ARG d   1      -2.496   2.357  31.751  0.00  0.00     0.035 H 
BRANCH 134 137
ATOM    137  CD  ARG d   1      -3.967   0.846  31.316  0.00  0.00     0.009 C 
ATOM    138  H66 ARG d   1      -3.301  -0.026  31.236  0.00  0.00     0.064 H 
ATOM    139  H67 ARG d   1      -4.814   0.725  30.625  0.00  0.00     0.064 H 
BRANCH 137 140
ATOM    140  NE  ARG d   1      -4.477   0.932  32.686  0.00  0.00    -0.227 N 
ATOM    141  CZ  ARG d   1      -5.071  -0.061  33.346  0.00  0.00     0.665 C 
ATOM    142  NH1 ARG d   1      -5.245  -1.242  32.770  0.00  0.00    -0.235 N 
ATOM    143  NH2 ARG d   1      -5.491   0.125  34.591  0.00  0.00    -0.235 N 
ATOM    144  H69 ARG d   1      -5.705  -2.005  33.287  0.00  0.00     0.174 HD
ATOM    145  H70 ARG d   1      -4.920  -1.397  31.805  0.00  0.00     0.174 HD
ATOM    146  H71 ARG d   1      -5.360   1.039  35.047  0.00  0.00     0.174 HD
ATOM    147  H72 ARG d   1      -5.948  -0.645  35.101  0.00  0.00     0.174 HD
ATOM    148  H68 ARG d   1      -4.368   1.831  33.178  0.00  0.00     0.177 HD
ENDBRANCH 137 140
ENDBRANCH 134 137
ENDBRANCH 131 134
ENDBRANCH  11 131
ENDBRANCH   8  11
ENDBRANCH   5   7
BRANCH   5 149
ATOM    149  CB  LEU d   1      -1.148   2.988  24.538  0.00  0.00    -0.035 C 
ATOM    150  H75 LEU d   1      -0.502   3.033  23.648  0.00  0.00     0.037 H 
ATOM    151  H76 LEU d   1      -1.677   3.945  24.655  0.00  0.00     0.037 H 
BRANCH 149 152
ATOM    152  CG  LEU d   1      -2.207   1.902  24.287  0.00  0.00    -0.059 C 
ATOM    153  H77 LEU d   1      -2.780   1.742  25.213  0.00  0.00     0.038 H 
BRANCH 152 154
ATOM    154  CD1 LEU d   1      -3.162   2.375  23.195  0.00  0.00    -0.073 C 
ATOM    155  H78 LEU d   1      -3.922   1.601  23.012  0.00  0.00     0.028 H 
ATOM    156  H79 LEU d   1      -2.598   2.561  22.269  0.00  0.00     0.028 H 
ATOM    157  H80 LEU d   1      -3.655   3.304  23.517  0.00  0.00     0.028 H 
ENDBRANCH 152 154
BRANCH 152 158
ATOM    158  CD2 LEU d   1      -1.535   0.580  23.896  0.00  0.00    -0.073 C 
ATOM    159  H81 LEU d   1      -0.854   0.263  24.700  0.00  0.00     0.028 H 
ATOM    160  H82 LEU d   1      -0.965   0.720  22.966  0.00  0.00     0.028 H 
ATOM    161  H83 LEU d   1      -2.304  -0.191  23.743  0.00  0.00     0.028 H 
ENDBRANCH 152 158
ENDBRANCH 149 152
ENDBRANCH   5 149
ENDBRANCH   1   5
BRANCH   3 162
ATOM    162  CA  LYS d   1       1.864   5.965  26.160  0.00  0.00     0.089 C 
ATOM    163  H85 LYS d   1       2.308   5.979  25.154  0.00  0.00     0.087 H 
BRANCH 162 164
ATOM    164  C   LYS d   1       2.931   5.560  27.159  0.00  0.00     0.241 C 
ATOM    165  O   LYS d   1       4.125   5.690  26.888  0.00  0.00    -0.271 OA
ATOM    166  N   VAL d   1       2.497   5.062  28.312  0.00  0.00    -0.346 N 
ATOM    167  H97 VAL d   1       1.513   4.996  28.477  0.00  0.00     0.163 HD
BRANCH 166 168
ATOM    168  CA  VAL d   1       3.424   4.611  29.339  0.00  0.00     0.092 C 
ATOM    169  H98 VAL d   1       4.090   5.442  29.614  0.00  0.00     0.088 H 
BRANCH 168 170
ATOM    170  C   VAL d   1       4.244   3.453  28.794  0.00  0.00     0.241 C 
ATOM    171  O   VAL d   1       5.469   3.401  28.966  0.00  0.00    -0.271 OA
ATOM    172  N   THR d   1       3.553   2.530  28.132  0.00  0.00    -0.344 N 
ATOM    173 6H10 THR d   1       2.566   2.646  28.026  0.00  0.00     0.163 HD
BRANCH 172 174
ATOM    174  CA  THR d   1       4.192   1.355  27.557  0.00  0.00     0.113 C 
ATOM    175 7H10 THR d   1       4.798   0.875  28.340  0.00  0.00     0.091 H 
BRANCH 174 176
ATOM    176  C   THR d   1       5.111   1.747  26.398  0.00  0.00     0.243 C 
ATOM    177  O   THR d   1       6.221   1.226  26.274  0.00  0.00    -0.271 OA
ATOM    178  N   GLY d   1       4.650   2.669  25.558  0.00  0.00    -0.350 N 
ATOM    179 3H11 GLY d   1       3.745   3.068  25.706  0.00  0.00     0.163 HD
BRANCH 178 180
ATOM    180  CA  GLY d   1       5.453   3.099  24.428  0.00  0.00     0.069 C 
ATOM    181 4H11 GLY d   1       4.865   3.800  23.817  0.00  0.00     0.078 H 
ATOM    182 5H11 GLY d   1       5.721   2.220  23.823  0.00  0.00     0.078 H 
BRANCH 180 183
ATOM    183  C   GLY d   1       6.720   3.787  24.884  0.00  0.00     0.236 C 
ATOM    184  O   GLY d   1       7.794   3.578  24.312  0.00  0.00    -0.272 OA
ATOM    185  N   ASP d   1       6.604   4.614  25.919  0.00  0.00    -0.346 N 
ATOM    186 6H11 ASP d   1       5.709   4.753  26.342  0.00  0.00     0.163 HD
BRANCH 185 187
ATOM    187  CA  ASP d   1       7.764   5.319  26.443  0.00  0.00     0.098 C 
ATOM    188 7H11 ASP d   1       8.274   5.813  25.603  0.00  0.00     0.088 H 
BRANCH 187 189
ATOM    189  C   ASP d   1       8.748   4.352  27.097  0.00  0.00     0.241 C 
ATOM    190  O   ASP d   1       9.966   4.490  26.941  0.00  0.00    -0.271 OA
ATOM    191  N   LEU d   1       8.222   3.369  27.820  0.00  0.00    -0.346 N 
ATOM    192 0H12 LEU d   1       7.228   3.302  27.911  0.00  0.00     0.163 HD
BRANCH 191 193
ATOM    193  CA  LEU d   1       9.072   2.385  28.483  0.00  0.00     0.089 C 
ATOM    194 1H12 LEU d   1       9.946   2.905  28.901  0.00  0.00     0.087 H 
BRANCH 193 195
ATOM    195  C   LEU d   1       9.550   1.324  27.504  0.00  0.00     0.241 C 
ATOM    196  O   LEU d   1      10.465   0.567  27.809  0.00  0.00    -0.271 OA
ATOM    197  N   PHE d   1       8.918   1.265  26.336  0.00  0.00    -0.346 N 
ATOM    198 1H13 PHE d   1       8.178   1.911  26.149  0.00  0.00     0.163 HD
BRANCH 197 199
ATOM    199  CA  PHE d   1       9.278   0.282  25.322  0.00  0.00     0.093 C 
ATOM    200 2H13 PHE d   1       9.282  -0.715  25.787  0.00  0.00     0.088 H 
BRANCH 199 201
ATOM    201  C   PHE d   1      10.660   0.566  24.756  0.00  0.00     0.241 C 
ATOM    202  O   PHE d   1      11.495  -0.331  24.652  0.00  0.00    -0.271 OA
ATOM    203  N   ASP d   1      10.885   1.819  24.373  0.00  0.00    -0.345 N 
ATOM    204 0H14 ASP d   1      10.156   2.496  24.474  0.00  0.00     0.163 HD
BRANCH 203 205
ATOM    205  CA  ASP d   1      12.166   2.235  23.810  0.00  0.00     0.098 C 
ATOM    206 1H14 ASP d   1      12.341   1.680  22.877  0.00  0.00     0.088 H 
BRANCH 205 207
ATOM    207  C   ASP d   1      13.300   1.930  24.786  0.00  0.00     0.241 C 
ATOM    208  O   ASP d   1      14.468   1.854  24.400  0.00  0.00    -0.271 OA
ATOM    209  N   ILE d   1      12.938   1.754  26.052  0.00  0.00    -0.346 N 
ATOM    210 4H14 ILE d   1      11.969   1.824  26.290  0.00  0.00     0.163 HD
BRANCH 209 211
ATOM    211  CA  ILE d   1      13.899   1.463  27.104  0.00  0.00     0.092 C 
ATOM    212 5H14 ILE d   1      14.889   1.827  26.792  0.00  0.00     0.088 H 
BRANCH 211 213
ATOM    213  C   ILE d   1      13.976  -0.044  27.359  0.00  0.00     0.241 C 
ATOM    214  O   ILE d   1      14.730  -0.766  26.704  0.00  0.00    -0.271 OA
ATOM    215  N   MET d   1      13.177  -0.492  28.321  0.00  0.00    -0.345 N 
ATOM    216 5H15 MET d   1      12.600   0.174  28.794  0.00  0.00     0.163 HD
BRANCH 215 217
ATOM    217  CA  MET d   1      13.082  -1.887  28.735  0.00  0.00     0.097 C 
ATOM    218 6H15 MET d   1      13.994  -2.133  29.299  0.00  0.00     0.089 H 
BRANCH 217 219
ATOM    219  C   MET d   1      12.975  -2.890  27.583  0.00  0.00     0.196 C 
ATOM    220  O   MET d   1      13.794  -3.834  27.541  0.00  0.00    -0.646 OA
ATOM    221  OXT MET d   1      12.069  -2.732  26.742  0.00  0.00    -0.646 OA
ENDBRANCH 217 219
BRANCH 217 222
ATOM    222  CB  MET d   1      11.880  -2.019  29.668  0.00  0.00    -0.029 C 
ATOM    223 7H15 MET d   1      11.040  -1.474  29.213  0.00  0.00     0.037 H 
ATOM    224 8H15 MET d   1      12.145  -1.550  30.627  0.00  0.00     0.037 H 
BRANCH 222 225
ATOM    225  CG  MET d   1      11.417  -3.423  29.954  0.00  0.00    -0.021 C 
ATOM    226 9H15 MET d   1      12.245  -4.003  30.388  0.00  0.00     0.049 H 
ATOM    227 0H16 MET d   1      11.086  -3.900  29.020  0.00  0.00     0.049 H 
BRANCH 225 228
ATOM    228  SD  MET d   1      10.042  -3.362  31.123  0.00  0.00    -0.173 SA
BRANCH 228 229
ATOM    229  CE  MET d   1       8.876  -2.294  30.257  0.00  0.00    -0.035 C 
ATOM    230 1H16 MET d   1       7.971  -2.167  30.869  0.00  0.00     0.041 H 
ATOM    231 2H16 MET d   1       8.606  -2.751  29.293  0.00  0.00     0.041 H 
ATOM    232 3H16 MET d   1       9.339  -1.312  30.081  0.00  0.00     0.041 H 
ENDBRANCH 228 229
ENDBRANCH 225 228
ENDBRANCH 222 225
ENDBRANCH 217 222
ENDBRANCH 215 217
ENDBRANCH 211 213
BRANCH 211 233
ATOM    233  CB  ILE d   1      13.488   2.168  28.416  0.00  0.00    -0.030 C 
ATOM    234 6H14 ILE d   1      12.572   1.697  28.801  0.00  0.00     0.043 H 
BRANCH 233 235
ATOM    235  CG1 ILE d   1      13.205   3.647  28.143  0.00  0.00    -0.063 C 
ATOM    236 7H14 ILE d   1      12.453   3.715  27.343  0.00  0.00     0.033 H 
ATOM    237 8H14 ILE d   1      14.139   4.123  27.810  0.00  0.00     0.033 H 
BRANCH 235 238
ATOM    238  CD1 ILE d   1      12.688   4.402  29.349  0.00  0.00    -0.076 C 
ATOM    239 2H15 ILE d   1      12.509   5.452  29.075  0.00  0.00     0.027 H 
ATOM    240 3H15 ILE d   1      13.432   4.356  30.157  0.00  0.00     0.027 H 
ATOM    241 4H15 ILE d   1      11.747   3.947  29.691  0.00  0.00     0.027 H 
ENDBRANCH 235 238
ENDBRANCH 233 235
BRANCH 233 242
ATOM    242  CG2 ILE d   1      14.587   2.020  29.456  0.00  0.00    -0.071 C 
ATOM    243 9H14 ILE d   1      14.777   0.952  29.639  0.00  0.00     0.028 H 
ATOM    244 0H15 ILE d   1      14.273   2.503  30.393  0.00  0.00     0.028 H 
ATOM    245 1H15 ILE d   1      15.507   2.498  29.088  0.00  0.00     0.028 H 
ENDBRANCH 233 242
ENDBRANCH 211 233
ENDBRANCH 209 211
ENDBRANCH 205 207
BRANCH 205 246
ATOM    246  CB  ASP d   1      12.141   3.736  23.499  0.00  0.00     0.043 C 
ATOM    247 2H14 ASP d   1      13.126   4.031  23.109  0.00  0.00     0.052 H 
ATOM    248 3H14 ASP d   1      11.935   4.285  24.430  0.00  0.00     0.052 H 
BRANCH 246 249
ATOM    249  CG  ASP d   1      11.082   4.104  22.473  0.00  0.00     0.175 C 
ATOM    250  OD1 ASP d   1      11.200   3.684  21.303  0.00  0.00    -0.648 OA
ATOM    251  OD2 ASP d   1      10.125   4.815  22.838  0.00  0.00    -0.648 OA
ENDBRANCH 246 249
ENDBRANCH 205 246
ENDBRANCH 203 205
ENDBRANCH 199 201
BRANCH 199 252
ATOM    252  CB  PHE d   1       8.261   0.294  24.180  0.00  0.00    -0.014 C 
ATOM    253 3H13 PHE d   1       8.280   1.288  23.708  0.00  0.00     0.043 H 
ATOM    254 4H13 PHE d   1       7.263   0.108  24.602  0.00  0.00     0.043 H 
BRANCH 252 255
ATOM    255  CG  PHE d   1       8.529  -0.739  23.122  0.00  0.00    -0.056 A 
ATOM    256  CD1 PHE d   1       8.033  -2.033  23.252  0.00  0.00    -0.077 A 
ATOM    257  CE1 PHE d   1       8.295  -3.000  22.286  0.00  0.00    -0.082 A 
ATOM    258 5H13 PHE d   1       7.434  -2.291  24.118  0.00  0.00     0.084 H 
ATOM    259  CZ  PHE d   1       9.063  -2.678  21.173  0.00  0.00    -0.083 A 
ATOM    260 7H13 PHE d   1       7.901  -4.003  22.401  0.00  0.00     0.083 H 
ATOM    261  CE2 PHE d   1       9.567  -1.384  21.029  0.00  0.00    -0.082 A 
ATOM    262 9H13 PHE d   1       9.270  -3.429  20.419  0.00  0.00     0.083 H 
ATOM    263  CD2 PHE d   1       9.297  -0.425  22.001  0.00  0.00    -0.077 A 
ATOM    264 8H13 PHE d   1      10.166  -1.127  20.163  0.00  0.00     0.083 H 
ATOM    265 6H13 PHE d   1       9.689   0.579  21.885  0.00  0.00     0.084 H 
ENDBRANCH 252 255
ENDBRANCH 199 252
ENDBRANCH 197 199
ENDBRANCH 193 195
BRANCH 193 266
ATOM    266  CB  LEU d   1       8.316   1.688  29.618  0.00  0.00    -0.035 C 
ATOM    267 2H12 LEU d   1       8.974   0.902  30.017  0.00  0.00     0.037 H 
ATOM    268 3H12 LEU d   1       7.418   1.228  29.180  0.00  0.00     0.037 H 
BRANCH 266 269
ATOM    269  CG  LEU d   1       7.860   2.544  30.800  0.00  0.00    -0.059 C 
ATOM    270 4H12 LEU d   1       7.169   3.320  30.439  0.00  0.00     0.038 H 
BRANCH 269 271
ATOM    271  CD1 LEU d   1       7.136   1.658  31.791  0.00  0.00    -0.073 C 
ATOM    272 5H12 LEU d   1       6.802   2.262  32.647  0.00  0.00     0.028 H 
ATOM    273 6H12 LEU d   1       7.816   0.869  32.142  0.00  0.00     0.028 H 
ATOM    274 7H12 LEU d   1       6.263   1.200  31.303  0.00  0.00     0.028 H 
ENDBRANCH 269 271
BRANCH 269 275
ATOM    275  CD2 LEU d   1       9.059   3.222  31.461  0.00  0.00    -0.073 C 
ATOM    276 8H12 LEU d   1       9.571   3.860  30.726  0.00  0.00     0.028 H 
ATOM    277 9H12 LEU d   1       9.757   2.455  31.829  0.00  0.00     0.028 H 
ATOM    278 0H13 LEU d   1       8.713   3.838  32.304  0.00  0.00     0.028 H 
ENDBRANCH 269 275
ENDBRANCH 266 269
ENDBRANCH 193 266
ENDBRANCH 191 193
ENDBRANCH 187 189
BRANCH 187 279
ATOM    279  CB  ASP d   1       7.330   6.392  27.442  0.00  0.00     0.043 C 
ATOM    280 8H11 ASP d   1       8.227   6.893  27.834  0.00  0.00     0.052 H 
ATOM    281 9H11 ASP d   1       6.791   5.907  28.269  0.00  0.00     0.052 H 
BRANCH 279 282
ATOM    282  CG  ASP d   1       6.419   7.442  26.813  0.00  0.00     0.175 C 
ATOM    283  OD1 ASP d   1       6.582   7.719  25.603  0.00  0.00    -0.648 OA
ATOM    284  OD2 ASP d   1       5.550   7.996  27.529  0.00  0.00    -0.648 OA
ENDBRANCH 279 282
ENDBRANCH 187 279
ENDBRANCH 185 187
ENDBRANCH 180 183
ENDBRANCH 178 180
ENDBRANCH 174 176
BRANCH 174 285
ATOM    285  CB  THR d   1       3.141   0.332  27.050  0.00  0.00     0.060 C 
ATOM    286 8H10 THR d   1       2.612   0.758  26.185  0.00  0.00     0.086 H 
BRANCH 285 287
ATOM    287  OG1 THR d   1       2.197   0.053  28.094  0.00  0.00    -0.393 OA
ATOM    288 9H10 THR d   1       1.759   0.857  28.346  0.00  0.00     0.210 HD
ENDBRANCH 285 287
BRANCH 285 289
ATOM    289  CG2 THR d   1       3.829  -0.983  26.627  0.00  0.00    -0.050 C 
ATOM    290 0H11 THR d   1       3.070  -1.696  26.271  0.00  0.00     0.031 H 
ATOM    291 1H11 THR d   1       4.360  -1.413  27.489  0.00  0.00     0.031 H 
ATOM    292 2H11 THR d   1       4.547  -0.778  25.819  0.00  0.00     0.031 H 
ENDBRANCH 285 289
ENDBRANCH 174 285
ENDBRANCH 172 174
ENDBRANCH 168 170
BRANCH 168 293
ATOM    293  CB  VAL d   1       2.674   4.121  30.594  0.00  0.00    -0.033 C 
ATOM    294  H99 VAL d   1       1.862   3.447  30.284  0.00  0.00     0.042 H 
BRANCH 293 295
ATOM    295  CG1 VAL d   1       3.620   3.358  31.499  0.00  0.00    -0.071 C 
ATOM    296 0H10 VAL d   1       3.076   3.013  32.391  0.00  0.00     0.028 H 
ATOM    297 1H10 VAL d   1       4.446   4.017  31.805  0.00  0.00     0.028 H 
ATOM    298 2H10 VAL d   1       4.025   2.490  30.958  0.00  0.00     0.028 H 
ENDBRANCH 293 295
BRANCH 293 299
ATOM    299  CG2 VAL d   1       2.068   5.316  31.333  0.00  0.00    -0.071 C 
ATOM    300 3H10 VAL d   1       1.385   5.856  30.660  0.00  0.00     0.028 H 
ATOM    301 4H10 VAL d   1       2.872   5.992  31.659  0.00  0.00     0.028 H 
ATOM    302 5H10 VAL d   1       1.510   4.960  32.212  0.00  0.00     0.028 H 
ENDBRANCH 293 299
ENDBRANCH 168 293
ENDBRANCH 166 168
ENDBRANCH 162 164
BRANCH 162 303
ATOM    303  CB  LYS d   1       1.341   7.370  26.480  0.00  0.00    -0.038 C 
ATOM    304  H86 LYS d   1       2.174   7.979  26.863  0.00  0.00     0.036 H 
ATOM    305  H87 LYS d   1       0.561   7.290  27.251  0.00  0.00     0.036 H 
BRANCH 303 306
ATOM    306  CG  LYS d   1       0.753   8.059  25.260  0.00  0.00    -0.061 C 
ATOM    307  H88 LYS d   1      -0.062   7.435  24.864  0.00  0.00     0.033 H 
ATOM    308  H89 LYS d   1       1.541   8.158  24.499  0.00  0.00     0.033 H 
BRANCH 306 309
ATOM    309  CD  LYS d   1       0.203   9.434  25.565  0.00  0.00    -0.043 C 
ATOM    310  H90 LYS d   1       0.150  10.013  24.631  0.00  0.00     0.035 H 
ATOM    311  H91 LYS d   1       0.877   9.940  26.272  0.00  0.00     0.035 H 
BRANCH 309 312
ATOM    312  CE  LYS d   1      -1.178   9.355  26.173  0.00  0.00     0.080 C 
ATOM    313  H92 LYS d   1      -1.089   9.196  27.258  0.00  0.00     0.075 H 
ATOM    314  H93 LYS d   1      -1.726   8.514  25.723  0.00  0.00     0.075 H 
BRANCH 312 315
ATOM    315  NZ  LYS d   1      -1.928  10.626  25.919  0.00  0.00    -0.079 N 
ATOM    316  H94 LYS d   1      -2.847  10.562  26.329  0.00  0.00     0.274 HD
ATOM    317  H95 LYS d   1      -2.013  10.773  24.925  0.00  0.00     0.274 HD
ATOM    318  H96 LYS d   1      -1.429  11.399  26.332  0.00  0.00     0.274 HD
ENDBRANCH 312 315
ENDBRANCH 309 312
ENDBRANCH 306 309
ENDBRANCH 303 306
ENDBRANCH 162 303
ENDBRANCH   3 162
TORSDOF 97
