REMARK  7 active torsions:
REMARK  status: ('A' for Active; 'I' for Inactive)
REMARK    1  A    between atoms: C2_7  and  C13_8 
REMARK    2  A    between atoms: C13_8  and  N15_9 
REMARK    3  A    between atoms: C19_12  and  C28_15 
REMARK    4  A    between atoms: C28_15  and  O30_16 
REMARK    5  A    between atoms: O30_16  and  C32_17 
REMARK    6  A    between atoms: C45_19  and  N54_20 
REMARK    7  A    between atoms: C47_22  and  N56_23 
ROOT
ATOM      1  N15 DD1 d   1       6.359  -1.027  19.027  0.00  0.00    -0.067 N 
ATOM      2  C21 DD1 d   1       6.717  -2.079  19.979  0.00  0.00     0.084 C 
ATOM      3  C20 DD1 d   1       5.751  -2.008  21.174  0.00  0.00    -0.037 C 
ATOM      4  C19 DD1 d   1       5.667  -0.607  21.794  0.00  0.00    -0.030 C 
ATOM      5  C18 DD1 d   1       5.366   0.431  20.705  0.00  0.00    -0.037 C 
ATOM      6  C17 DD1 d   1       5.205  -0.173  19.312  0.00  0.00     0.084 C 
ATOM      7  H7  DD1 d   1       6.979  -0.388  19.499  0.00  0.00     0.280 HD
ATOM      8  H8  DD1 d   1       7.749  -1.928  20.327  0.00  0.00     0.076 H 
ATOM      9  H9  DD1 d   1       6.634  -3.062  19.493  0.00  0.00     0.076 H 
ATOM     10  H10 DD1 d   1       6.095  -2.713  21.945  0.00  0.00     0.036 H 
ATOM     11  H11 DD1 d   1       4.747  -2.300  20.831  0.00  0.00     0.036 H 
ATOM     12  H12 DD1 d   1       6.660  -0.366  22.202  0.00  0.00     0.043 H 
ATOM     13  H13 DD1 d   1       6.194   1.155  20.676  0.00  0.00     0.036 H 
ATOM     14  H14 DD1 d   1       4.433   0.951  20.968  0.00  0.00     0.036 H 
ATOM     15  H15 DD1 d   1       4.284  -0.773  19.274  0.00  0.00     0.076 H 
ATOM     16  H16 DD1 d   1       5.149   0.632  18.565  0.00  0.00     0.076 H 
ENDROOT
BRANCH   4  17
ATOM     17  C28 DD1 d   1       4.679  -0.573  22.980  0.00  0.00     0.029 C 
ATOM     18  H17 DD1 d   1       5.267  -0.353  23.884  0.00  0.00     0.075 H 
ATOM     19  H18 DD1 d   1       4.240  -1.578  23.064  0.00  0.00     0.075 H 
BRANCH  17  20
ATOM     20  O30 DD1 d   1       3.577   0.371  22.948  0.00  0.00    -0.350 OA
BRANCH  20  21
ATOM     21  C32 DD1 d   1       3.001   0.860  24.107  0.00  0.00     0.085 A 
ATOM     22  C38 DD1 d   1       1.982   1.948  24.066  0.00  0.00     0.073 A 
ATOM     23  C45 DD1 d   1       1.501   2.587  22.813  0.00  0.00     0.155 A 
ATOM     24  C37 DD1 d   1       1.381   2.448  25.340  0.00  0.00     0.092 A 
ATOM     25  N46 DD1 d   1       0.587   3.562  22.903  0.00  0.00    -0.045 NA
ATOM     26  C47 DD1 d   1       0.086   3.974  24.099  0.00  0.00     0.722 A 
ATOM     27  N48 DD1 d   1       0.458   3.431  25.288  0.00  0.00    -0.062 NA
ATOM     28  C36 DD1 d   1       1.772   1.895  26.544  0.00  0.00    -0.053 A 
ATOM     29  C35 DD1 d   1       2.733   0.884  26.545  0.00  0.00    -0.078 A 
ATOM     30  H23 DD1 d   1       1.338   2.242  27.475  0.00  0.00     0.087 H 
ATOM     31  C34 DD1 d   1       3.330   0.384  25.372  0.00  0.00    -0.050 A 
ATOM     32  H24 DD1 d   1       3.035   0.462  27.497  0.00  0.00     0.083 H 
ATOM     33  H25 DD1 d   1       4.073  -0.401  25.458  0.00  0.00     0.087 H 
BRANCH  23  34
ATOM     34  N54 DD1 d   1       1.962   2.225  21.598  0.00  0.00    -0.383 N 
ATOM     35  H19 DD1 d   1       1.605   2.691  20.752  0.00  0.00     0.157 HD
ATOM     36  H20 DD1 d   1       2.671   1.483  21.517  0.00  0.00     0.157 HD
ENDBRANCH  23  34
BRANCH  26  37
ATOM     37  N56 DD1 d   1      -0.839   4.954  24.094  0.00  0.00    -0.231 N 
ATOM     38  H21 DD1 d   1      -1.135   5.379  23.203  0.00  0.00     0.174 HD
ATOM     39  H22 DD1 d   1      -1.250   5.278  24.981  0.00  0.00     0.174 HD
ENDBRANCH  26  37
ENDBRANCH  20  21
ENDBRANCH  17  20
ENDBRANCH   4  17
BRANCH   1  40
ATOM     40  C13 DD1 d   1       7.070  -0.796  17.758  0.00  0.00     0.110 C 
ATOM     41  H5  DD1 d   1       6.483  -1.284  16.966  0.00  0.00     0.083 H 
ATOM     42  H6  DD1 d   1       7.082   0.291  17.588  0.00  0.00     0.083 H 
BRANCH  40  43
ATOM     43  C2  DD1 d   1       8.504  -1.286  17.617  0.00  0.00     0.006 A 
ATOM     44  C1  DD1 d   1       8.848  -2.729  17.426  0.00  0.00     0.124 A 
ATOM     45  F58 DD1 d   1       7.892  -3.671  17.408  0.00  0.00    -0.206 F 
ATOM     46  C6  DD1 d   1      10.180  -3.108  17.279  0.00  0.00    -0.045 A 
ATOM     47  C5  DD1 d   1      11.183  -2.144  17.291  0.00  0.00    -0.080 A 
ATOM     48  H1  DD1 d   1      10.435  -4.154  17.155  0.00  0.00     0.088 H 
ATOM     49  C4  DD1 d   1      10.873  -0.792  17.447  0.00  0.00    -0.082 A 
ATOM     50  H2  DD1 d   1      12.218  -2.446  17.178  0.00  0.00     0.083 H 
ATOM     51  C3  DD1 d   1       9.550  -0.364  17.602  0.00  0.00    -0.072 A 
ATOM     52  H3  DD1 d   1      11.672  -0.060  17.448  0.00  0.00     0.083 H 
ATOM     53  H4  DD1 d   1       9.336   0.693  17.711  0.00  0.00     0.084 H 
ENDBRANCH  40  43
ENDBRANCH   1  40
TORSDOF 7
