REMARK  7 active torsions:
REMARK  status: ('A' for Active; 'I' for Inactive)
REMARK    1  A    between atoms: C9_7  and  C2_2 
REMARK    2  A    between atoms: N10_21  and  C9_7 
REMARK    3  A    between atoms: O17_11  and  C18_12 
REMARK    4  A    between atoms: C16_24  and  O17_11 
REMARK    5  A    between atoms: C24_17  and  N29_26 
REMARK    6  A    between atoms: C26_18  and  N28_28 
REMARK    7  A    between atoms: C13_22  and  C16_24 
ROOT
ATOM      1  C11 DD2 d   1       0.537   4.982 -13.225  0.00  0.00     0.084 C 
ATOM      2  C14 DD2 d   1       0.632   7.158 -15.208  0.00  0.00    -0.037 C 
ATOM      3  C15 DD2 d   1       1.330   7.401 -13.858  0.00  0.00     0.084 C 
ATOM      4  N10 DD2 d   1       1.215   6.255 -12.956  0.00  0.00    -0.067 N 
ATOM      5  C13 DD2 d   1      -0.523   6.163 -15.177  0.00  0.00    -0.030 C 
ATOM      6  C12 DD2 d   1       0.009   4.845 -14.651  0.00  0.00    -0.037 C 
ATOM      7  H6  DD2 d   1      -0.312   4.890 -12.532  0.00  0.00     0.076 H 
ATOM      8  H7  DD2 d   1       1.250   4.165 -13.041  0.00  0.00     0.076 H 
ATOM      9  H8  DD2 d   1       1.385   6.782 -15.917  0.00  0.00     0.036 H 
ATOM     10  H9  DD2 d   1       0.240   8.122 -15.566  0.00  0.00     0.036 H 
ATOM     11  H10 DD2 d   1       0.872   8.277 -13.376  0.00  0.00     0.076 H 
ATOM     12  H11 DD2 d   1       2.396   7.600 -14.042  0.00  0.00     0.076 H 
ATOM     13  H15 DD2 d   1       2.096   5.891 -13.283  0.00  0.00     0.280 HD
ATOM     14  H16 DD2 d   1      -1.341   6.540 -14.546  0.00  0.00     0.043 H 
ATOM     15  H17 DD2 d   1      -0.803   4.103 -14.662  0.00  0.00     0.036 H 
ATOM     16  H18 DD2 d   1       0.826   4.504 -15.303  0.00  0.00     0.036 H 
ENDROOT
BRANCH   5  17
ATOM     17  C16 DD2 d   1      -1.008   5.908 -16.596  0.00  0.00     0.029 C 
ATOM     18  H19 DD2 d   1      -1.366   6.853 -17.032  0.00  0.00     0.075 H 
ATOM     19  H20 DD2 d   1      -0.175   5.518 -17.199  0.00  0.00     0.075 H 
BRANCH  17  20
ATOM     20  O17 DD2 d   1      -2.069   4.961 -16.595  0.00  0.00    -0.350 OA
BRANCH  20  21
ATOM     21  C18 DD2 d   1      -2.557   4.535 -17.811  0.00  0.00     0.085 A 
ATOM     22  C19 DD2 d   1      -2.180   5.127 -19.013  0.00  0.00    -0.050 A 
ATOM     23  C20 DD2 d   1      -2.733   4.689 -20.231  0.00  0.00    -0.078 A 
ATOM     24  H12 DD2 d   1      -1.454   5.932 -19.011  0.00  0.00     0.087 H 
ATOM     25  C21 DD2 d   1      -3.637   3.655 -20.291  0.00  0.00    -0.053 A 
ATOM     26  H13 DD2 d   1      -2.437   5.182 -21.150  0.00  0.00     0.083 H 
ATOM     27  C22 DD2 d   1      -4.057   3.010 -19.156  0.00  0.00     0.092 A 
ATOM     28  H14 DD2 d   1      -4.025   3.344 -21.254  0.00  0.00     0.087 H 
ATOM     29  C23 DD2 d   1      -3.532   3.439 -17.837  0.00  0.00     0.073 A 
ATOM     30  N27 DD2 d   1      -4.939   2.006 -19.210  0.00  0.00    -0.062 NA
ATOM     31  C24 DD2 d   1      -4.026   2.735 -16.634  0.00  0.00     0.155 A 
ATOM     32  N25 DD2 d   1      -4.878   1.719 -16.822  0.00  0.00    -0.045 NA
ATOM     33  C26 DD2 d   1      -5.306   1.374 -18.076  0.00  0.00     0.722 A 
BRANCH  31  34
ATOM     34  N29 DD2 d   1      -3.611   3.039 -15.384  0.00  0.00    -0.383 N 
ATOM     35  H21 DD2 d   1      -3.985   2.520 -14.577  0.00  0.00     0.157 HD
ATOM     36  H22 DD2 d   1      -2.921   3.790 -15.239  0.00  0.00     0.157 HD
ENDBRANCH  31  34
BRANCH  33  37
ATOM     37  N28 DD2 d   1      -6.191   0.372 -18.181  0.00  0.00    -0.231 N 
ATOM     38  H23 DD2 d   1      -6.497  -0.136 -17.338  0.00  0.00     0.174 HD
ATOM     39  H24 DD2 d   1      -6.565   0.110 -19.104  0.00  0.00     0.174 HD
ENDBRANCH  33  37
ENDBRANCH  20  21
ENDBRANCH  17  20
ENDBRANCH   5  17
BRANCH   4  40
ATOM     40  C9  DD2 d   1       1.678   6.394 -11.591  0.00  0.00     0.109 C 
ATOM     41  H4  DD2 d   1       0.915   6.958 -11.035  0.00  0.00     0.083 H 
ATOM     42  H5  DD2 d   1       1.770   5.384 -11.165  0.00  0.00     0.083 H 
BRANCH  40  43
ATOM     43  C2  DD2 d   1       3.005   7.099 -11.397  0.00  0.00    -0.009 A 
ATOM     44  C1  DD2 d   1       4.212   6.291 -11.234  0.00  0.00     0.063 A 
ATOM     45  C6  DD2 d   1       5.477   6.988 -11.016  0.00  0.00     0.056 A 
ATOM     46 CL8  DD2 d   1       4.177   4.506 -11.372  0.00  0.00    -0.082 Cl
ATOM     47  C5  DD2 d   1       5.523   8.364 -10.952  0.00  0.00    -0.060 A 
ATOM     48 CL7  DD2 d   1       6.926   5.990 -10.837  0.00  0.00    -0.083 Cl
ATOM     49  C4  DD2 d   1       4.348   9.093 -11.090  0.00  0.00    -0.081 A 
ATOM     50  H3  DD2 d   1       6.467   8.873 -10.795  0.00  0.00     0.086 H 
ATOM     51  C3  DD2 d   1       3.117   8.478 -11.301  0.00  0.00    -0.073 A 
ATOM     52  H2  DD2 d   1       4.391  10.175 -11.031  0.00  0.00     0.083 H 
ATOM     53  H1  DD2 d   1       2.227   9.090 -11.392  0.00  0.00     0.084 H 
ENDBRANCH  40  43
ENDBRANCH   4  40
TORSDOF 7
