REMARK  5 active torsions:
REMARK  status: ('A' for Active; 'I' for Inactive)
REMARK    1  A    between atoms: C12_3  and  C14_1 
REMARK    2  A    between atoms: C12_3  and  C13_2 
REMARK    3  A    between atoms: O11_17  and  C12_3 
REMARK    4  A    between atoms: C10_8  and  O11_17 
REMARK    5  A    between atoms: C4_12  and  N22_20 
ROOT
ATOM      1  N3  DD3 d   1       0.314   4.331  22.970  0.00  0.00    -0.045 NA
ATOM      2  C10 DD3 d   1       2.787   1.554  23.786  0.00  0.00     0.086 A 
ATOM      3  C8  DD3 d   1       2.691   1.301  26.200  0.00  0.00    -0.078 A 
ATOM      4  C7  DD3 d   1       1.732   2.306  26.337  0.00  0.00    -0.053 A 
ATOM      5  C5  DD3 d   1       1.773   2.629  23.894  0.00  0.00     0.073 A 
ATOM      6  C4  DD3 d   1       1.233   3.377  22.733  0.00  0.00     0.155 A 
ATOM      7  C9  DD3 d   1       3.216   0.926  24.963  0.00  0.00    -0.050 A 
ATOM      8  C6  DD3 d   1       1.246   2.993  25.227  0.00  0.00     0.092 A 
ATOM      9  N1  DD3 d   1       0.310   3.974  25.315  0.00  0.00    -0.062 NA
ATOM     10  C2  DD3 d   1      -0.134   4.617  24.208  0.00  0.00     0.722 A 
ATOM     11  N21 DD3 d   1      -1.059   5.590  24.290  0.00  0.00    -0.231 N 
ATOM     12  H7  DD3 d   1       3.042   0.792  27.090  0.00  0.00     0.083 H 
ATOM     13  H8  DD3 d   1       1.359   2.556  27.324  0.00  0.00     0.087 H 
ATOM     14  H10 DD3 d   1       3.963   0.142  24.912  0.00  0.00     0.087 H 
ATOM     15  H14 DD3 d   1      -1.383   6.066  23.436  0.00  0.00     0.174 HD
ATOM     16  H15 DD3 d   1      -1.444   5.859  25.207  0.00  0.00     0.174 HD
ENDROOT
BRANCH   2  17
ATOM     17  O11 DD3 d   1       3.255   1.259  22.532  0.00  0.00    -0.341 OA
BRANCH  17  18
ATOM     18  C12 DD3 d   1       3.836   0.026  22.134  0.00  0.00     0.067 C 
ATOM     19  H4  DD3 d   1       3.306  -0.808  22.618  0.00  0.00     0.091 H 
BRANCH  18  20
ATOM     20  C14 DD3 d   1       5.265  -0.007  22.520  0.00  0.00    -0.028 A 
ATOM     21  C15 DD3 d   1       6.062   1.134  22.429  0.00  0.00    -0.053 A 
ATOM     22  C16 DD3 d   1       7.403   1.077  22.808  0.00  0.00     0.034 A 
ATOM     23  H6  DD3 d   1       5.640   2.063  22.064  0.00  0.00     0.087 H 
ATOM     24  C17 DD3 d   1       7.952  -0.108  23.277  0.00  0.00    -0.062 A 
ATOM     25 CL2  DD3 d   1       8.442   2.534  22.695  0.00  0.00    -0.084 Cl
ATOM     26  C18 DD3 d   1       7.163  -1.253  23.357  0.00  0.00    -0.081 A 
ATOM     27  H5  DD3 d   1       8.992  -0.142  23.580  0.00  0.00     0.086 H 
ATOM     28  C19 DD3 d   1       5.817  -1.198  22.990  0.00  0.00    -0.074 A 
ATOM     29  H11 DD3 d   1       7.593  -2.186  23.704  0.00  0.00     0.083 H 
ATOM     30  H9  DD3 d   1       5.199  -2.085  23.071  0.00  0.00     0.084 H 
ENDBRANCH  18  20
BRANCH  18  31
ATOM     31  C13 DD3 d   1       3.714  -0.093  20.622  0.00  0.00    -0.048 C 
ATOM     32  H1  DD3 d   1       2.652  -0.068  20.337  0.00  0.00     0.031 H 
ATOM     33  H2  DD3 d   1       4.160  -1.043  20.292  0.00  0.00     0.031 H 
ATOM     34  H3  DD3 d   1       4.241   0.746  20.144  0.00  0.00     0.031 H 
ENDBRANCH  18  31
ENDBRANCH  17  18
ENDBRANCH   2  17
BRANCH   6  35
ATOM     35  N22 DD3 d   1       1.614   3.168  21.455  0.00  0.00    -0.383 N 
ATOM     36  H12 DD3 d   1       2.315   2.446  21.238  0.00  0.00     0.157 HD
ATOM     37  H13 DD3 d   1       1.203   3.731  20.697  0.00  0.00     0.157 HD
ENDBRANCH   6  35
TORSDOF 5
