REMARK  6 active torsions:
REMARK  status: ('A' for Active; 'I' for Inactive)
REMARK    1  A    between atoms: C1_1  and  N1_2 
REMARK    2  A    between atoms: C14_5  and  C8_8 
REMARK    3  A    between atoms: C13_6  and  O3_28 
REMARK    4  A    between atoms: C2_11  and  C21_21 
REMARK    5  A    between atoms: C5_16  and  O5_17 
REMARK    6  A    between atoms: C7_19  and  O7_20 
ROOT
ATOM      1  C8  CPB d   1      51.484 -16.397 -12.750  0.00  0.00     0.017 A 
ATOM      2  C9  CPB d   1      52.813 -16.066 -12.998  0.00  0.00     0.102 A 
ATOM      3  O1  CPB d   1      53.758 -17.050 -12.914  0.00  0.00    -0.308 OA
ATOM      4  C2  CPB d   1      55.078 -16.814 -13.168  0.00  0.00     0.091 A 
ATOM      5  C3  CPB d   1      55.533 -15.543 -13.492  0.00  0.00    -0.000 A 
ATOM      6  C4  CPB d   1      54.627 -14.502 -13.591  0.00  0.00     0.190 A 
ATOM      7  O4  CPB d   1      55.023 -13.364 -13.894  0.00  0.00    -0.287 OA
ATOM      8  C10 CPB d   1      53.191 -14.774 -13.331  0.00  0.00     0.082 A 
ATOM      9  C5  CPB d   1      52.228 -13.777 -13.406  0.00  0.00     0.085 A 
ATOM     10  C6  CPB d   1      50.899 -14.091 -13.148  0.00  0.00    -0.017 A 
ATOM     11  C7  CPB d   1      50.522 -15.385 -12.802  0.00  0.00     0.077 A 
ATOM     12  H13 CPB d   1      56.593 -15.367 -13.667  0.00  0.00     0.094 H 
ATOM     13  H15 CPB d   1      50.144 -13.316 -13.217  0.00  0.00     0.092 H 
ENDROOT
BRANCH   1  14
ATOM     14  C14 CPB d   1      51.217 -17.820 -12.368  0.00  0.00     0.005 C 
ATOM     15  C15 CPB d   1      50.857 -17.939 -10.898  0.00  0.00    -0.033 C 
ATOM     16  C16 CPB d   1      50.970 -19.394 -10.465  0.00  0.00     0.084 C 
ATOM     17  H7  CPB d   1      51.546 -17.324 -10.301  0.00  0.00     0.036 H 
ATOM     18  H8  CPB d   1      49.826 -17.589 -10.743  0.00  0.00     0.036 H 
ATOM     19  N1  CPB d   1      50.202 -20.238 -11.384  0.00  0.00    -0.072 N 
ATOM     20  H5  CPB d   1      52.026 -19.701 -10.482  0.00  0.00     0.076 H 
ATOM     21  H6  CPB d   1      50.572 -19.505  -9.446  0.00  0.00     0.076 H 
ATOM     22  C12 CPB d   1      50.131 -20.036 -12.840  0.00  0.00     0.107 C 
ATOM     23  H4  CPB d   1      49.398 -19.642 -11.267  0.00  0.00     0.279 HD
ATOM     24  C13 CPB d   1      50.179 -18.556 -13.211  0.00  0.00     0.066 C 
ATOM     25  H11 CPB d   1      49.190 -20.466 -13.213  0.00  0.00     0.080 H 
ATOM     26  H12 CPB d   1      50.982 -20.549 -13.312  0.00  0.00     0.080 H 
ATOM     27  H10 CPB d   1      50.449 -18.455 -14.272  0.00  0.00     0.086 H 
ATOM     28  H9  CPB d   1      52.167 -18.355 -12.514  0.00  0.00     0.051 H 
BRANCH  19  29
ATOM     29  C1  CPB d   1      49.498 -21.364 -10.792  0.00  0.00     0.066 C 
ATOM     30  H1  CPB d   1      49.657 -21.364  -9.704  0.00  0.00     0.068 H 
ATOM     31  H2  CPB d   1      49.882 -22.302 -11.219  0.00  0.00     0.068 H 
ATOM     32  H3  CPB d   1      48.422 -21.277 -11.006  0.00  0.00     0.068 H 
ENDBRANCH  19  29
BRANCH  24  33
ATOM     33  O3  CPB d   1      48.876 -18.011 -13.001  0.00  0.00    -0.393 OA
ATOM     34  H21 CPB d   1      48.880 -17.088 -13.226  0.00  0.00     0.210 HD
ENDBRANCH  24  33
ENDBRANCH   1  14
BRANCH  11  35
ATOM     35  O7  CPB d   1      49.204 -15.619 -12.561  0.00  0.00    -0.360 OA
ATOM     36  H16 CPB d   1      49.082 -16.534 -12.337  0.00  0.00     0.217 HD
ENDBRANCH  11  35
BRANCH   4  37
ATOM     37  C21 CPB d   1      56.037 -17.929 -12.996  0.00  0.00     0.020 A 
ATOM     38  C22 CPB d   1      55.682 -19.267 -13.131  0.00  0.00     0.047 A 
ATOM     39 CL1  CPB d   1      54.034 -19.767 -13.643  0.00  0.00    -0.083 Cl
ATOM     40  C23 CPB d   1      56.642 -20.248 -12.893  0.00  0.00    -0.061 A 
ATOM     41  C24 CPB d   1      57.929 -19.895 -12.501  0.00  0.00    -0.081 A 
ATOM     42  H17 CPB d   1      56.384 -21.294 -13.014  0.00  0.00     0.086 H 
ATOM     43  C25 CPB d   1      58.272 -18.559 -12.333  0.00  0.00    -0.082 A 
ATOM     44  H18 CPB d   1      58.669 -20.667 -12.325  0.00  0.00     0.083 H 
ATOM     45  C26 CPB d   1      57.316 -17.581 -12.569  0.00  0.00    -0.069 A 
ATOM     46  H19 CPB d   1      59.273 -18.284 -12.022  0.00  0.00     0.083 H 
ATOM     47  H20 CPB d   1      57.567 -16.537 -12.420  0.00  0.00     0.085 H 
ENDBRANCH   4  37
BRANCH   9  48
ATOM     48  O5  CPB d   1      52.579 -12.504 -13.732  0.00  0.00    -0.360 OA
ATOM     49  H14 CPB d   1      53.198 -12.174 -13.092  0.00  0.00     0.217 HD
ENDBRANCH   9  48
TORSDOF 6
