REMARK  4 active torsions:
REMARK  status: ('A' for Active; 'I' for Inactive)
REMARK    1  A    between atoms: C1_4  and  B_1 
REMARK    2  A    between atoms: B_1  and  O1_2 
REMARK    3  A    between atoms: B_1  and  O2_3 
REMARK    4  A    between atoms: C3_6  and  N1_10 
ROOT
ATOM      1  C1  APB d   1      25.667   5.322  18.864  0.00  0.00    -0.030 A 
ATOM      2  C2  APB d   1      24.510   4.777  19.423  0.00  0.00    -0.057 A 
ATOM      3  C3  APB d   1      24.164   5.026  20.753  0.00  0.00     0.025 A 
ATOM      4  C4  APB d   1      24.978   5.894  21.486  0.00  0.00    -0.058 A 
ATOM      5  C5  APB d   1      26.120   6.469  20.919  0.00  0.00    -0.081 A 
ATOM      6  C6  APB d   1      26.451   6.212  19.591  0.00  0.00    -0.082 A 
ATOM      7  H3  APB d   1      23.869   4.150  18.814  0.00  0.00     0.086 H 
ATOM      8  H4  APB d   1      24.720   6.126  22.513  0.00  0.00     0.086 H 
ATOM      9  H5  APB d   1      26.750   7.118  21.516  0.00  0.00     0.083 H 
ATOM     10  H6  APB d   1      27.305   6.697  19.132  0.00  0.00     0.083 H 
ENDROOT
BRANCH   1  11
ATOM     11  B   APB d   1      25.985   5.053  17.246  0.00  0.00     0.529 B 
BRANCH  11  12
ATOM     12  O1  APB d   1      24.850   4.071  16.692  0.00  0.00    -0.433 OA
ATOM     13  H1  APB d   1      23.995   4.450  16.860  0.00  0.00     0.185 HD
ENDBRANCH  11  12
BRANCH  11  14
ATOM     14  O2  APB d   1      25.889   6.539  16.490  0.00  0.00    -0.433 OA
ATOM     15  H2  APB d   1      26.568   7.110  16.829  0.00  0.00     0.185 HD
ENDBRANCH  11  14
ENDBRANCH   1  11
BRANCH   3  16
ATOM     16  N1  APB d   1      23.030   4.463  21.292  0.00  0.00    -0.399 N 
ATOM     17  H7  APB d   1      22.451   3.827  20.725  0.00  0.00     0.156 HD
ATOM     18  H8  APB d   1      22.760   4.678  22.262  0.00  0.00     0.156 HD
ENDBRANCH   3  16
TORSDOF 4
