REMARK  4 active torsions:
REMARK  status: ('A' for Active; 'I' for Inactive)
REMARK    1  A    between atoms: C6_6  and  O1_7 
REMARK    2  A    between atoms: O1_7  and  S_8 
REMARK    3  A    between atoms: S_8  and  C7_11 
REMARK    4  A    between atoms: C7_11  and  C8_12 
ROOT
ATOM      1  C1  PSY d   1      22.609  37.766  73.841  0.00  0.00    -0.083 A 
ATOM      2  C2  PSY d   1      21.862  38.430  72.816  0.00  0.00    -0.080 A 
ATOM      3  C3  PSY d   1      21.900  36.937  74.755  0.00  0.00    -0.080 A 
ATOM      4  C4  PSY d   1      20.443  38.266  72.716  0.00  0.00    -0.049 A 
ATOM      5  C5  PSY d   1      20.487  36.767  74.658  0.00  0.00    -0.049 A 
ATOM      6  C6  PSY d   1      19.747  37.430  73.638  0.00  0.00     0.089 A 
ATOM      7  H1  PSY d   1      23.683  37.891  73.919  0.00  0.00     0.083 H 
ATOM      8  H2  PSY d   1      22.378  39.066  72.106  0.00  0.00     0.083 H 
ATOM      9  H3  PSY d   1      22.444  36.425  75.540  0.00  0.00     0.083 H 
ATOM     10  H4  PSY d   1      19.895  38.780  71.935  0.00  0.00     0.087 H 
ATOM     11  H5  PSY d   1      19.973  36.128  75.367  0.00  0.00     0.087 H 
ENDROOT
BRANCH   6  12
ATOM     12  O1  PSY d   1      18.335  37.283  73.544  0.00  0.00    -0.233 OA
BRANCH  12  13
ATOM     13  S   PSY d   1      17.427  35.975  73.835  0.00  0.00     0.270 S 
ATOM     14  O2  PSY d   1      15.984  36.298  73.598  0.00  0.00    -0.198 OA
ATOM     15  O3  PSY d   1      17.774  34.897  72.955  0.00  0.00    -0.198 OA
BRANCH  13  16
ATOM     16  C7  PSY d   1      17.527  35.447  75.329  0.00  0.00     0.049 C 
ATOM     17  H6  PSY d   1      18.202  36.117  75.882  0.00  0.00     0.059 H 
ATOM     18  H7  PSY d   1      17.955  34.434  75.304  0.00  0.00     0.059 H 
BRANCH  16  19
ATOM     19  C8  PSY d   1      16.203  35.382  76.083  0.00  0.00    -0.062 C 
ATOM     20  H8  PSY d   1      16.379  35.006  77.102  0.00  0.00     0.028 H 
ATOM     21  H9  PSY d   1      15.514  34.705  75.557  0.00  0.00     0.028 H 
ATOM     22  H10 PSY d   1      15.761  36.388  76.135  0.00  0.00     0.028 H 
ENDBRANCH  16  19
ENDBRANCH  13  16
ENDBRANCH  12  13
ENDBRANCH   6  12
TORSDOF 4
