REMARK  9 active torsions:
REMARK  status: ('A' for Active; 'I' for Inactive)
REMARK    1  A    between atoms: C1_1  and  B_30 
REMARK    2  A    between atoms: N1_2  and  C3_12 
REMARK    3  A    between atoms: S1_23  and  N1_2 
REMARK    4  A    between atoms: S2_26  and  C8_8 
REMARK    5  A    between atoms: B_30  and  O1_10 
REMARK    6  A    between atoms: C4_13  and  C01_21 
REMARK    7  A    between atoms: C10_15  and  S1_23 
REMARK    8  A    between atoms: B_30  and  O2_25 
REMARK    9  A    between atoms: S2_26  and  C11_29 
ROOT
ATOM      1  O4  C9P d   1      74.493   4.649  33.988  0.00  0.00    -0.200 OA
ATOM      2  O3  C9P d   1      74.044   3.424  31.895  0.00  0.00    -0.200 OA
ATOM      3  S1  C9P d   1      74.202   4.694  32.578  0.00  0.00     0.269 S 
ENDROOT
BRANCH   3   4
ATOM      4  N1  C9P d   1      72.750   5.584  32.377  0.00  0.00    -0.279 N 
ATOM      5  H   C9P d   1      72.114   5.675  33.169  0.00  0.00     0.179 HD
BRANCH   4   6
ATOM      6  C3  C9P d   1      72.383   6.233  31.076  0.00  0.00     0.059 A 
ATOM      7  C2  C9P d   1      71.855   5.413  29.985  0.00  0.00    -0.055 A 
ATOM      8  C1  C9P d   1      71.507   6.021  28.717  0.00  0.00    -0.030 A 
ATOM      9  H   C9P d   1      71.723   4.340  30.127  0.00  0.00     0.086 H 
ATOM     10  C6  C9P d   1      71.680   7.445  28.542  0.00  0.00    -0.081 A 
ATOM     11  C5  C9P d   1      72.203   8.258  29.602  0.00  0.00    -0.064 A 
ATOM     12  H   C9P d   1      71.410   7.907  27.593  0.00  0.00     0.083 H 
ATOM     13  C4  C9P d   1      72.564   7.684  30.856  0.00  0.00     0.068 A 
ATOM     14  H   C9P d   1      72.326   9.330  29.446  0.00  0.00     0.085 H 
BRANCH   8  15
ATOM     15  B   C9P d   1      70.969   5.145  27.524  0.00  0.00     0.529 B 
BRANCH  15  16
ATOM     16  O1  C9P d   1      72.032   4.136  27.177  0.00  0.00    -0.433 OA
ATOM     17  H   C9P d   1      72.233   3.605  27.951  0.00  0.00     0.185 HD
ENDBRANCH  15  16
BRANCH  15  18
ATOM     18  O2  C9P d   1      70.670   5.954  26.324  0.00  0.00    -0.433 OA
ATOM     19  H   C9P d   1      69.993   6.601  26.536  0.00  0.00     0.185 HD
ENDBRANCH  15  18
ENDBRANCH   8  15
BRANCH  13  20
ATOM     20  C01 C9P d   1      73.139   8.526  31.972  0.00  0.00     0.211 C 
ATOM     21  O01 C9P d   1      73.499   8.107  33.137  0.00  0.00    -0.644 OA
ATOM     22  O02 C9P d   1      73.293   9.772  31.729  0.00  0.00    -0.644 OA
ENDBRANCH  13  20
ENDBRANCH   4   6
ENDBRANCH   3   4
BRANCH   3  23
ATOM     23  C10 C9P d   1      75.525   5.589  31.808  0.00  0.00     0.121 A 
ATOM     24  C9  C9P d   1      75.643   5.843  30.487  0.00  0.00    -0.032 A 
ATOM     25  C8  C9P d   1      76.837   6.602  30.197  0.00  0.00     0.072 A 
ATOM     26  H   C9P d   1      74.927   5.516  29.733  0.00  0.00     0.089 H 
ATOM     27  C7  C9P d   1      77.565   6.886  31.290  0.00  0.00    -0.022 A 
ATOM     28  S3  C9P d   1      76.844   6.247  32.779  0.00  0.00    -0.087 SA
ATOM     29  H   C9P d   1      78.498   7.449  31.264  0.00  0.00     0.097 H 
BRANCH  25  30
ATOM     30  S2  C9P d   1      77.261   7.085  28.586  0.00  0.00     0.207 S 
ATOM     31  O5  C9P d   1      76.994   5.946  27.692  0.00  0.00    -0.217 OA
ATOM     32  O6  C9P d   1      78.472   7.800  28.604  0.00  0.00    -0.217 OA
BRANCH  30  33
ATOM     33  C11 C9P d   1      76.099   8.350  28.085  0.00  0.00     0.064 A 
ATOM     34  C16 C9P d   1      75.154   8.121  26.973  0.00  0.00    -0.062 A 
ATOM     35  C15 C9P d   1      74.212   9.168  26.573  0.00  0.00    -0.082 A 
ATOM     36  H   C9P d   1      75.158   7.166  26.447  0.00  0.00     0.085 H 
ATOM     37  C14 C9P d   1      74.201  10.456  27.279  0.00  0.00    -0.083 A 
ATOM     38  H   C9P d   1      73.519   8.992  25.751  0.00  0.00     0.083 H 
ATOM     39  C13 C9P d   1      75.122  10.706  28.378  0.00  0.00    -0.082 A 
ATOM     40  H   C9P d   1      73.497  11.231  26.977  0.00  0.00     0.083 H 
ATOM     41  C12 C9P d   1      76.070   9.668  28.787  0.00  0.00    -0.062 A 
ATOM     42  H   C9P d   1      75.106  11.665  28.896  0.00  0.00     0.083 H 
ATOM     43  H   C9P d   1      76.759   9.858  29.610  0.00  0.00     0.085 H 
ENDBRANCH  30  33
ENDBRANCH  25  30
ENDBRANCH   3  23
TORSDOF 9
