REMARK  4 active torsions:
REMARK  status: ('A' for Active; 'I' for Inactive)
REMARK    1  A    between atoms: C6_6  and  O1_7 
REMARK    2  A    between atoms: O1_7  and  S_8 
REMARK    3  A    between atoms: S_8  and  C7_11 
REMARK    4  A    between atoms: C7_11  and  C8_12 
ROOT
ATOM      1  C1  PSY d   1      47.648  16.138  23.083  0.00  0.00    -0.083 A 
ATOM      2  C2  PSY d   1      46.523  15.680  23.819  0.00  0.00    -0.080 A 
ATOM      3  C3  PSY d   1      47.711  17.521  22.747  0.00  0.00    -0.080 A 
ATOM      4  C4  PSY d   1      45.486  16.580  24.210  0.00  0.00    -0.049 A 
ATOM      5  C5  PSY d   1      46.685  18.427  23.131  0.00  0.00    -0.049 A 
ATOM      6  C6  PSY d   1      45.575  17.957  23.860  0.00  0.00     0.089 A 
ATOM      7  H1  PSY d   1      48.436  15.455  22.786  0.00  0.00     0.083 H 
ATOM      8  H2  PSY d   1      46.451  14.632  24.088  0.00  0.00     0.083 H 
ATOM      9  H3  PSY d   1      48.561  17.891  22.185  0.00  0.00     0.083 H 
ATOM     10  H4  PSY d   1      44.633  16.216  24.772  0.00  0.00     0.087 H 
ATOM     11  H5  PSY d   1      46.757  19.475  22.864  0.00  0.00     0.087 H 
ENDROOT
BRANCH   6  12
ATOM     12  O1  PSY d   1      44.598  18.876  24.231  0.00  0.00    -0.233 OA
BRANCH  12  13
ATOM     13  S   PSY d   1      43.337  19.398  23.364  0.00  0.00     0.270 S 
ATOM     14  O2  PSY d   1      42.623  20.377  24.150  0.00  0.00    -0.198 OA
ATOM     15  O3  PSY d   1      43.778  20.033  22.148  0.00  0.00    -0.198 OA
BRANCH  13  16
ATOM     16  C7  PSY d   1      42.374  18.378  23.035  0.00  0.00     0.049 C 
ATOM     17  H6  PSY d   1      41.879  18.068  23.967  0.00  0.00     0.059 H 
ATOM     18  H7  PSY d   1      42.920  17.524  22.608  0.00  0.00     0.059 H 
BRANCH  16  19
ATOM     19  C8  PSY d   1      41.340  18.763  22.089  0.00  0.00    -0.062 C 
ATOM     20  H8  PSY d   1      40.667  17.911  21.915  0.00  0.00     0.028 H 
ATOM     21  H9  PSY d   1      41.806  19.063  21.139  0.00  0.00     0.028 H 
ATOM     22  H10 PSY d   1      40.765  19.607  22.498  0.00  0.00     0.028 H 
ENDBRANCH  16  19
ENDBRANCH  13  16
ENDBRANCH  12  13
ENDBRANCH   6  12
TORSDOF 4
