REMARK  4 active torsions:
REMARK  status: ('A' for Active; 'I' for Inactive)
REMARK    1  A    between atoms: C6_6  and  O1_7 
REMARK    2  A    between atoms: C7_10  and  C8_11 
REMARK    3  A    between atoms: C11_14  and  O4_18 
REMARK    4  A    between atoms: C13_16  and  O3_17 
ROOT
ATOM      1  C1  BXZ d   1      -0.872  37.473  26.817  0.00  0.00    -0.050 A 
ATOM      2  C2  BXZ d   1      -0.270  36.418  26.115  0.00  0.00    -0.065 A 
ATOM      3  C3  BXZ d   1       0.875  35.809  26.664  0.00  0.00     0.032 A 
ATOM      4  C4  BXZ d   1       1.360  36.274  27.871  0.00  0.00     0.116 A 
ATOM      5  C5  BXZ d   1       0.799  37.311  28.598  0.00  0.00    -0.015 A 
ATOM      6  C6  BXZ d   1      -0.337  37.899  28.034  0.00  0.00     0.068 A 
ATOM      7  O2  BXZ d   1       2.460  35.552  28.213  0.00  0.00    -0.212 OA
ATOM      8  N1  BXZ d   1       2.716  34.596  27.242  0.00  0.00    -0.126 NA
ATOM      9  C7  BXZ d   1       1.763  34.752  26.314  0.00  0.00     0.110 A 
ATOM     10  H1  BXZ d   1      -1.754  37.958  26.414  0.00  0.00     0.087 H 
ATOM     11  H2  BXZ d   1      -0.678  36.079  25.170  0.00  0.00     0.085 H 
ATOM     12  H3  BXZ d   1       1.214  37.645  29.542  0.00  0.00     0.092 H 
ENDROOT
BRANCH   9  13
ATOM     13  C8  BXZ d   1       1.688  33.947  25.106  0.00  0.00     0.030 A 
ATOM     14  C9  BXZ d   1       0.447  33.438  24.713  0.00  0.00    -0.048 A 
ATOM     15  C10 BXZ d   1       0.366  32.671  23.552  0.00  0.00     0.045 A 
ATOM     16  H5  BXZ d   1      -0.440  33.637  25.303  0.00  0.00     0.087 H 
ATOM     17  C11 BXZ d   1       1.483  32.404  22.782  0.00  0.00     0.085 A 
ATOM     18 BR1  BXZ d   1      -1.284  31.927  23.021  0.00  0.00    -0.048 Br
ATOM     19  C12 BXZ d   1       2.720  32.908  23.158  0.00  0.00    -0.017 A 
ATOM     20  C13 BXZ d   1       2.814  33.678  24.319  0.00  0.00     0.081 A 
ATOM     21  H6  BXZ d   1       3.601  32.707  22.559  0.00  0.00     0.092 H 
BRANCH  17  22
ATOM     22  O4  BXZ d   1       1.390  31.678  21.628  0.00  0.00    -0.359 OA
ATOM     23  H8  BXZ d   1       1.952  30.915  21.689  0.00  0.00     0.217 HD
ENDBRANCH  17  22
BRANCH  20  24
ATOM     24  O3  BXZ d   1       4.038  34.147  24.700  0.00  0.00    -0.360 OA
ATOM     25  H7  BXZ d   1       4.624  33.414  24.849  0.00  0.00     0.217 HD
ENDBRANCH  20  24
ENDBRANCH   9  13
BRANCH   6  26
ATOM     26  O1  BXZ d   1      -0.921  38.926  28.728  0.00  0.00    -0.361 OA
ATOM     27  H4  BXZ d   1      -1.678  39.241  28.248  0.00  0.00     0.217 HD
ENDBRANCH   6  26
TORSDOF 4
