REMARK  4 active torsions:
REMARK  status: ('A' for Active; 'I' for Inactive)
REMARK    1  A    between atoms: CAL_3  and  NAH_4 
REMARK    2  A    between atoms: NAH_4  and  CAK_5 
REMARK    3  A    between atoms: CAI_8  and  NAA_9 
REMARK    4  A    between atoms: CAJ_11  and  NAB_12 
ROOT
ATOM      1  CAK AX3 d   1       9.671 -10.934  14.263  0.00  0.00     0.754 A 
ATOM      2  NAG AX3 d   1      10.599  -9.969  14.364  0.00  0.00     0.131 NA
ATOM      3  NAF AX3 d   1       8.405 -10.649  14.624  0.00  0.00     0.131 NA
ATOM      4  CAI AX3 d   1       8.112  -9.408  15.062  0.00  0.00     0.751 A 
ATOM      5  NAE AX3 d   1       9.028  -8.437  15.161  0.00  0.00     0.130 NA
ATOM      6  CAJ AX3 d   1      10.281  -8.745  14.806  0.00  0.00     0.751 A 
ENDROOT
BRANCH   1   7
ATOM      7  NAH AX3 d   1      10.055 -12.140  13.811  0.00  0.00    -0.217 N 
ATOM      8  H   AX3 d   1       9.356 -12.851  13.552  0.00  0.00     0.178 HD
BRANCH   7   9
ATOM      9  CAL AX3 d   1      11.495 -12.426  13.693  0.00  0.00     0.026 A 
ATOM     10  CAC AX3 d   1      11.942 -13.890  13.538  0.00  0.00    -0.044 A 
ATOM     11  CAD AX3 d   1      12.064 -13.183  14.892  0.00  0.00    -0.044 A 
ATOM     12  H   AX3 d   1      11.193 -14.683  13.396  0.00  0.00     0.036 H 
ATOM     13  H   AX3 d   1      12.846 -14.132  12.959  0.00  0.00     0.036 H 
ATOM     14  H   AX3 d   1      13.056 -12.920  15.287  0.00  0.00     0.036 H 
ATOM     15  H   AX3 d   1      11.403 -13.471  15.723  0.00  0.00     0.036 H 
ATOM     16  H   AX3 d   1      12.036 -11.609  13.192  0.00  0.00     0.073 H 
ENDBRANCH   7   9
ENDBRANCH   1   7
BRANCH   6  17
ATOM     17  NAB AX3 d   1      11.264  -7.868  14.876  0.00  0.00    -0.230 N 
ATOM     18  H   AX3 d   1      12.217  -8.139  14.595  0.00  0.00     0.174 HD
ATOM     19  H   AX3 d   1      11.079  -6.912  15.212  0.00  0.00     0.174 HD
ENDBRANCH   6  17
BRANCH   4  20
ATOM     20  NAA AX3 d   1       6.865  -9.130  15.420  0.00  0.00    -0.230 N 
ATOM     21  H   AX3 d   1       6.137  -9.856  15.356  0.00  0.00     0.174 HD
ATOM     22  H   AX3 d   1       6.625  -8.189  15.762  0.00  0.00     0.174 HD
ENDBRANCH   4  20
TORSDOF 4
