REMARK  5 active torsions:
REMARK  status: ('A' for Active; 'I' for Inactive)
REMARK    1  A    between atoms: SAK_13  and  C4_1 
REMARK    2  A    between atoms: C6_3  and  NAB_16 
REMARK    3  A    between atoms: CAL_8  and  CAA_9 
REMARK    4  A    between atoms: CAO_12  and  SAK_13 
REMARK    5  A    between atoms: C2_14  and  NAC_15 
ROOT
ATOM      1  CAF AX4 d   1       7.788 -14.200  15.157  0.00  0.00    -0.066 A 
ATOM      2  CAD AX4 d   1       6.602 -14.818  15.529  0.00  0.00    -0.076 A 
ATOM      3  CAL AX4 d   1       5.512 -14.799  14.652  0.00  0.00    -0.062 A 
ATOM      4  CAE AX4 d   1       5.618 -14.198  13.409  0.00  0.00    -0.076 A 
ATOM      5  CAG AX4 d   1       6.815 -13.597  13.037  0.00  0.00    -0.066 A 
ATOM      6  CAO AX4 d   1       7.895 -13.586  13.919  0.00  0.00     0.007 A 
ATOM      7  H   AX4 d   1       8.633 -14.198  15.836  0.00  0.00     0.085 H 
ATOM      8  H   AX4 d   1       6.521 -15.311  16.491  0.00  0.00     0.084 H 
ATOM      9  H   AX4 d   1       4.773 -14.196  12.730  0.00  0.00     0.084 H 
ATOM     10  H   AX4 d   1       6.909 -13.136  12.060  0.00  0.00     0.085 H 
ENDROOT
BRANCH   6  11
ATOM     11  SAK AX4 d   1       9.370 -12.868  13.400  0.00  0.00    -0.070 SA
BRANCH  11  12
ATOM     12  C4  AX4 d   1       9.338 -11.235  14.019  0.00  0.00     0.121 A 
ATOM     13  C5  AX4 d   1       8.123 -10.793  14.452  0.00  0.00    -0.003 A 
ATOM     14  C6  AX4 d   1       8.071  -9.458  14.937  0.00  0.00     0.143 A 
ATOM     15  H   AX4 d   1       7.243 -11.426  14.428  0.00  0.00     0.093 H 
ATOM     16  N1  AX4 d   1       9.230  -8.713  14.950  0.00  0.00    -0.046 NA
ATOM     17  C2  AX4 d   1      10.416  -9.216  14.531  0.00  0.00     0.723 A 
ATOM     18  N3  AX4 d   1      10.477 -10.507  14.056  0.00  0.00    -0.056 NA
BRANCH  14  19
ATOM     19  NAB AX4 d   1       6.934  -8.890  15.390  0.00  0.00    -0.383 N 
ATOM     20  H   AX4 d   1       6.944  -7.919  15.732  0.00  0.00     0.157 HD
ATOM     21  H   AX4 d   1       6.056  -9.428  15.394  0.00  0.00     0.157 HD
ENDBRANCH  14  19
BRANCH  17  22
ATOM     22  NAC AX4 d   1      11.513  -8.435  14.593  0.00  0.00    -0.231 N 
ATOM     23  H   AX4 d   1      11.440  -7.473  14.953  0.00  0.00     0.174 HD
ATOM     24  H   AX4 d   1      12.424  -8.801  14.281  0.00  0.00     0.174 HD
ENDBRANCH  17  22
ENDBRANCH  11  12
ENDBRANCH   6  11
BRANCH   3  25
ATOM     25  CAA AX4 d   1       4.173 -15.431  15.031  0.00  0.00    -0.051 C 
ATOM     26  H   AX4 d   1       3.460 -15.304  14.203  0.00  0.00     0.033 H 
ATOM     27  H   AX4 d   1       3.778 -14.941  15.933  0.00  0.00     0.033 H 
ATOM     28  H   AX4 d   1       4.317 -16.503  15.230  0.00  0.00     0.033 H 
ENDBRANCH   3  25
TORSDOF 5
