REMARK  5 active torsions:
REMARK  status: ('A' for Active; 'I' for Inactive)
REMARK    1  A    between atoms: SAL_13  and  C4_1 
REMARK    2  A    between atoms: C6_3  and  NAA_16 
REMARK    3  A    between atoms: CAI_12  and  CAN_11 
REMARK    4  A    between atoms: CAI_12  and  SAL_13 
REMARK    5  A    between atoms: C2_14  and  NAB_15 
ROOT
ATOM      1  CAI AX5 d   1       7.421 -13.256  13.032  0.00  0.00     0.006 C 
ATOM      2  H   AX5 d   1       6.967 -12.263  12.900  0.00  0.00     0.056 H 
ATOM      3  H   AX5 d   1       7.346 -13.821  12.091  0.00  0.00     0.056 H 
ENDROOT
BRANCH   1   4
ATOM      4  CAN AX5 d   1       6.614 -14.006  14.100  0.00  0.00    -0.049 A 
ATOM      5  CAF AX5 d   1       7.228 -14.356  15.314  0.00  0.00    -0.076 A 
ATOM      6  CAD AX5 d   1       6.501 -15.050  16.284  0.00  0.00    -0.082 A 
ATOM      7  H   AX5 d   1       8.262 -14.088  15.497  0.00  0.00     0.084 H 
ATOM      8  CAC AX5 d   1       5.174 -15.427  16.039  0.00  0.00    -0.083 A 
ATOM      9  H   AX5 d   1       6.966 -15.298  17.231  0.00  0.00     0.083 H 
ATOM     10  CAE AX5 d   1       4.577 -15.092  14.828  0.00  0.00    -0.082 A 
ATOM     11  H   AX5 d   1       4.616 -15.976  16.788  0.00  0.00     0.083 H 
ATOM     12  CAG AX5 d   1       5.310 -14.413  13.847  0.00  0.00    -0.076 A 
ATOM     13  H   AX5 d   1       3.542 -15.357  14.643  0.00  0.00     0.083 H 
ATOM     14  H   AX5 d   1       4.857 -14.204  12.884  0.00  0.00     0.084 H 
ENDBRANCH   1   4
BRANCH   1  15
ATOM     15  SAL AX5 d   1       9.180 -13.021  13.402  0.00  0.00    -0.105 SA
BRANCH  15  16
ATOM     16  C4  AX5 d   1       9.307 -11.328  14.027  0.00  0.00     0.116 A 
ATOM     17  C5  AX5 d   1       8.111 -10.821  14.449  0.00  0.00    -0.004 A 
ATOM     18  C6  AX5 d   1       8.108  -9.495  14.906  0.00  0.00     0.143 A 
ATOM     19  H   AX5 d   1       7.205 -11.416  14.431  0.00  0.00     0.093 H 
ATOM     20  N1  AX5 d   1       9.277  -8.782  14.972  0.00  0.00    -0.046 NA
ATOM     21  C2  AX5 d   1      10.458  -9.300  14.558  0.00  0.00     0.723 A 
ATOM     22  N3  AX5 d   1      10.486 -10.615  14.097  0.00  0.00    -0.056 NA
BRANCH  18  23
ATOM     23  NAA AX5 d   1       6.948  -9.007  15.359  0.00  0.00    -0.383 N 
ATOM     24  H   AX5 d   1       6.897  -8.038  15.705  0.00  0.00     0.157 HD
ATOM     25  H   AX5 d   1       6.106  -9.600  15.362  0.00  0.00     0.157 HD
ENDBRANCH  18  23
BRANCH  21  26
ATOM     26  NAB AX5 d   1      11.578  -8.538  14.645  0.00  0.00    -0.231 N 
ATOM     27  H   AX5 d   1      11.517  -7.570  14.991  0.00  0.00     0.174 HD
ATOM     28  H   AX5 d   1      12.489  -8.928  14.365  0.00  0.00     0.174 HD
ENDBRANCH  21  26
ENDBRANCH  15  16
ENDBRANCH   1  15
TORSDOF 5
