REMARK  7 active torsions:
REMARK  status: ('A' for Active; 'I' for Inactive)
REMARK    1  A    between atoms: C6_6  and  N1_7 
REMARK    2  A    between atoms: N1_7  and  C7_8 
REMARK    3  A    between atoms: C7_8  and  C8_9 
REMARK    4  A    between atoms: C8_9  and  N2_10 
REMARK    5  A    between atoms: C13_16  and  C14_19 
REMARK    6  A    between atoms: C17_22  and  O4_26 
REMARK    7  A    between atoms: C19_24  and  O3_25 
ROOT
ATOM      1  C1  CXZ d   1      -0.485   4.565  21.925  0.00  0.00    -0.055 A 
ATOM      2  C2  CXZ d   1       0.522   5.327  22.579  0.00  0.00    -0.045 A 
ATOM      3  C3  CXZ d   1       1.827   5.125  22.129  0.00  0.00     0.114 A 
ATOM      4  C4  CXZ d   1       2.159   4.246  21.121  0.00  0.00     0.034 A 
ATOM      5  C5  CXZ d   1       1.151   3.514  20.502  0.00  0.00    -0.043 A 
ATOM      6  C6  CXZ d   1      -0.174   3.653  20.894  0.00  0.00     0.029 A 
ATOM      7  C13 CXZ d   1       3.557   4.344  20.991  0.00  0.00     0.110 A 
ATOM      8  N3  CXZ d   1       4.063   5.224  21.876  0.00  0.00    -0.126 NA
ATOM      9  O2  CXZ d   1       2.965   5.712  22.590  0.00  0.00    -0.212 OA
ATOM     10  H1  CXZ d   1      -1.519   4.688  22.227  0.00  0.00     0.087 H 
ATOM     11  H2  CXZ d   1       0.290   6.022  23.378  0.00  0.00     0.088 H 
ATOM     12  H3  CXZ d   1       1.403   2.826  19.703  0.00  0.00     0.088 H 
ENDROOT
BRANCH   6  13
ATOM     13  N1  CXZ d   1      -1.083   2.871  20.232  0.00  0.00    -0.388 N 
ATOM     14  H4  CXZ d   1      -2.041   3.229  20.111  0.00  0.00     0.159 HD
BRANCH  13  15
ATOM     15  C7  CXZ d   1      -0.756   1.542  19.684  0.00  0.00     0.015 C 
ATOM     16  H5  CXZ d   1      -1.114   0.775  20.387  0.00  0.00     0.066 H 
ATOM     17  H6  CXZ d   1       0.336   1.464  19.581  0.00  0.00     0.066 H 
BRANCH  15  18
ATOM     18  C8  CXZ d   1      -1.390   1.291  18.329  0.00  0.00     0.098 C 
ATOM     19  H7  CXZ d   1      -2.413   1.695  18.333  0.00  0.00     0.078 H 
ATOM     20  H8  CXZ d   1      -1.425   0.207  18.146  0.00  0.00     0.078 H 
BRANCH  18  21
ATOM     21  N2  CXZ d   1      -0.619   1.940  17.235  0.00  0.00    -0.066 N 
ATOM     22  C9  CXZ d   1      -1.369   1.921  15.905  0.00  0.00     0.103 C 
ATOM     23  C10 CXZ d   1      -0.498   2.578  14.840  0.00  0.00     0.042 C 
ATOM     24  H10 CXZ d   1      -2.313   2.477  16.005  0.00  0.00     0.079 H 
ATOM     25  H11 CXZ d   1      -1.584   0.881  15.617  0.00  0.00     0.079 H 
ATOM     26  O1  CXZ d   1      -0.187   3.918  15.199  0.00  0.00    -0.388 OA
ATOM     27  H12 CXZ d   1      -1.038   2.577  13.882  0.00  0.00     0.076 H 
ATOM     28  H13 CXZ d   1       0.436   2.007  14.735  0.00  0.00     0.076 H 
ATOM     29  C11 CXZ d   1       0.570   3.958  16.412  0.00  0.00     0.042 C 
ATOM     30  C12 CXZ d   1      -0.200   3.394  17.550  0.00  0.00     0.103 C 
ATOM     31  H14 CXZ d   1       0.829   5.003  16.638  0.00  0.00     0.076 H 
ATOM     32  H15 CXZ d   1       1.492   3.373  16.278  0.00  0.00     0.076 H 
ATOM     33  H16 CXZ d   1       0.426   3.405  18.454  0.00  0.00     0.079 H 
ATOM     34  H17 CXZ d   1      -1.100   4.004  17.719  0.00  0.00     0.079 H 
ATOM     35  H9  CXZ d   1       0.225   1.402  17.117  0.00  0.00     0.280 HD
ENDBRANCH  18  21
ENDBRANCH  15  18
ENDBRANCH  13  15
ENDBRANCH   6  13
BRANCH   7  36
ATOM     36  C14 CXZ d   1       4.370   3.622  20.019  0.00  0.00     0.031 A 
ATOM     37  C15 CXZ d   1       4.020   2.296  19.697  0.00  0.00    -0.044 A 
ATOM     38  C16 CXZ d   1       4.754   1.579  18.764  0.00  0.00     0.068 A 
ATOM     39  H18 CXZ d   1       3.169   1.832  20.183  0.00  0.00     0.087 H 
ATOM     40  C17 CXZ d   1       5.856   2.168  18.141  0.00  0.00     0.090 A 
ATOM     41 CL   CXZ d   1       4.280  -0.036  18.413  0.00  0.00    -0.081 Cl
ATOM     42  C18 CXZ d   1       6.220   3.491  18.444  0.00  0.00    -0.017 A 
ATOM     43  C19 CXZ d   1       5.473   4.209  19.386  0.00  0.00     0.081 A 
ATOM     44  H19 CXZ d   1       7.070   3.951  17.954  0.00  0.00     0.092 H 
BRANCH  40  45
ATOM     45  O4  CXZ d   1       6.601   1.494  17.206  0.00  0.00    -0.359 OA
ATOM     46  H21 CXZ d   1       7.503   1.442  17.499  0.00  0.00     0.217 HD
ENDBRANCH  40  45
BRANCH  43  47
ATOM     47  O3  CXZ d   1       5.809   5.497  19.678  0.00  0.00    -0.360 OA
ATOM     48  H20 CXZ d   1       6.696   5.523  20.017  0.00  0.00     0.217 HD
ENDBRANCH  43  47
ENDBRANCH   7  36
TORSDOF 7
