REMARK  9 active torsions:
REMARK  status: ('A' for Active; 'I' for Inactive)
REMARK    1  A    between atoms: CAR_7  and  N6_8 
REMARK    2  A    between atoms: N6_8  and  C6_9 
REMARK    3  A    between atoms: N9_14  and  CAW_15 
REMARK    4  A    between atoms: CAW_15  and  CAB_16 
REMARK    5  A    between atoms: CAW_15  and  CAA_17 
REMARK    6  A    between atoms: C2_20  and  N2_21 
REMARK    7  A    between atoms: N2_21  and  CAK_22 
REMARK    8  A    between atoms: CAK_22  and  CAJ_23 
REMARK    9  A    between atoms: CAJ_23  and  OAC_24 
ROOT
ATOM      1  C6  OLP d   1      14.724  18.668  54.502  0.00  0.00     0.180 A 
ATOM      2  N1  OLP d   1      14.914  17.463  53.920  0.00  0.00    -0.043 NA
ATOM      3  C5  OLP d   1      13.610  19.406  54.117  0.00  0.00     0.151 A 
ATOM      4  N7  OLP d   1      13.151  20.597  54.492  0.00  0.00    -0.236 NA
ATOM      5  C8  OLP d   1      12.025  20.821  53.812  0.00  0.00     0.069 A 
ATOM      6  N9  OLP d   1      11.791  19.783  53.007  0.00  0.00    -0.320 N 
ATOM      7  C4  OLP d   1      12.741  18.876  53.156  0.00  0.00     0.183 A 
ATOM      8  N3  OLP d   1      12.978  17.663  52.616  0.00  0.00    -0.042 NA
ATOM      9  C2  OLP d   1      14.074  16.952  52.985  0.00  0.00     0.726 A 
ATOM     10  H   OLP d   1      11.398  21.708  53.900  0.00  0.00     0.143 H 
ENDROOT
BRANCH   1  11
ATOM     11  N6  OLP d   1      15.579  19.169  55.411  0.00  0.00    -0.338 N 
ATOM     12  H   OLP d   1      15.364  20.088  55.798  0.00  0.00     0.167 HD
BRANCH  11  13
ATOM     13  CAR OLP d   1      16.702  18.556  55.855  0.00  0.00     0.035 A 
ATOM     14  CAH OLP d   1      17.472  17.728  55.039  0.00  0.00    -0.036 A 
ATOM     15  CAQ OLP d   1      18.615  17.126  55.551  0.00  0.00     0.036 A 
ATOM     16  H   OLP d   1      17.179  17.554  54.004  0.00  0.00     0.089 H 
ATOM     17 CL   OLP d   1      19.517  16.092  54.527  0.00  0.00    -0.084 Cl
ATOM     18  CAF OLP d   1      19.033  17.323  56.865  0.00  0.00    -0.062 A 
ATOM     19  CAE OLP d   1      18.276  18.146  57.691  0.00  0.00    -0.079 A 
ATOM     20  H   OLP d   1      19.936  16.841  57.239  0.00  0.00     0.086 H 
ATOM     21  CAG OLP d   1      17.130  18.762  57.180  0.00  0.00    -0.057 A 
ATOM     22  H   OLP d   1      18.573  18.309  58.727  0.00  0.00     0.083 H 
ATOM     23  H   OLP d   1      16.551  19.421  57.827  0.00  0.00     0.086 H 
ENDBRANCH  11  13
ENDBRANCH   1  11
BRANCH   9  24
ATOM     24  N2  OLP d   1      14.327  15.738  52.445  0.00  0.00    -0.220 N 
ATOM     25  H   OLP d   1      13.607  15.303  51.868  0.00  0.00     0.177 HD
BRANCH  24  26
ATOM     26  CAK OLP d   1      15.608  15.006  52.653  0.00  0.00     0.029 C 
ATOM     27  H   OLP d   1      16.313  15.692  53.123  0.00  0.00     0.068 H 
ATOM     28  H   OLP d   1      15.950  14.649  51.682  0.00  0.00     0.068 H 
BRANCH  26  29
ATOM     29  CAJ OLP d   1      15.451  13.772  53.586  0.00  0.00     0.032 C 
ATOM     30  H   OLP d   1      15.677  14.092  54.603  0.00  0.00     0.076 H 
ATOM     31  H   OLP d   1      16.125  12.995  53.227  0.00  0.00     0.076 H 
BRANCH  29  32
ATOM     32  OAC OLP d   1      14.111  13.231  53.581  0.00  0.00    -0.399 OA
ATOM     33  H   OLP d   1      14.070  12.475  54.171  0.00  0.00     0.209 HD
ENDBRANCH  29  32
ENDBRANCH  26  29
ENDBRANCH  24  26
ENDBRANCH   9  24
BRANCH   6  34
ATOM     34  CAW OLP d   1      10.619  19.715  52.122  0.00  0.00     0.012 C 
ATOM     35  H   OLP d   1      10.170  20.705  52.045  0.00  0.00     0.072 H 
BRANCH  34  36
ATOM     36  CAB OLP d   1      11.005  19.328  50.680  0.00  0.00    -0.057 C 
ATOM     37  H   OLP d   1      11.693  20.071  50.278  0.00  0.00     0.030 H 
ATOM     38  H   OLP d   1      11.486  18.350  50.684  0.00  0.00     0.030 H 
ATOM     39  H   OLP d   1      10.107  19.290  50.063  0.00  0.00     0.030 H 
ENDBRANCH  34  36
BRANCH  34  40
ATOM     40  CAA OLP d   1       9.594  18.758  52.730  0.00  0.00    -0.057 C 
ATOM     41  H   OLP d   1      10.038  17.768  52.831  0.00  0.00     0.030 H 
ATOM     42  H   OLP d   1       9.294  19.125  53.712  0.00  0.00     0.030 H 
ATOM     43  H   OLP d   1       8.721  18.702  52.080  0.00  0.00     0.030 H 
ENDBRANCH  34  40
ENDBRANCH   6  34
TORSDOF 9
