REMARK  10 active torsions:
REMARK  status: ('A' for Active; 'I' for Inactive)
REMARK    1  A    between atoms: C12_2  and  C11_5 
REMARK    2  A    between atoms: C9_6  and  C10_7 
REMARK    3  A    between atoms: C13_11  and  S_12 
REMARK    4  A    between atoms: S_12  and  C14_13 
REMARK    5  A    between atoms: C19_14  and  O3_15 
REMARK    6  A    between atoms: O3_15  and  C20_16 
REMARK    7  A    between atoms: C20_16  and  C21_17 
REMARK    8  A    between atoms: C8_29  and  C7_30 
REMARK    9  A    between atoms: C7_30  and  C6_31 
REMARK   10  A    between atoms: C6_31  and  C1_32 
REMARK       I    between atoms: C1_32  and  N1_34 
ROOT
ATOM      1  C11 BQN d   1     -17.777  16.089  -6.192  0.00  0.00     0.080 A 
ATOM      2  C9  BQN d   1     -17.039  16.582  -7.298  0.00  0.00     0.074 A 
ATOM      3  C13 BQN d   1     -18.537  16.985  -5.424  0.00  0.00     0.021 A 
ATOM      4  C26 BQN d   1     -18.580  18.339  -5.766  0.00  0.00    -0.065 A 
ATOM      5  C27 BQN d   1     -17.871  18.819  -6.858  0.00  0.00    -0.071 A 
ATOM      6  C8  BQN d   1     -17.112  17.948  -7.635  0.00  0.00    -0.020 A 
ATOM      7  H11 BQN d   1     -19.174  19.023  -5.171  0.00  0.00     0.085 H 
ATOM      8  H12 BQN d   1     -17.908  19.873  -7.106  0.00  0.00     0.084 H 
ENDROOT
BRANCH   3   9
ATOM      9  S   BQN d   1     -19.466  16.498  -4.082  0.00  0.00    -0.087 SA
BRANCH   9  10
ATOM     10  C14 BQN d   1     -20.399  17.829  -3.576  0.00  0.00     0.039 A 
ATOM     11  C19 BQN d   1     -21.477  18.293  -4.333  0.00  0.00     0.086 A 
ATOM     12  C18 BQN d   1     -22.214  19.396  -3.891  0.00  0.00    -0.049 A 
ATOM     13  C17 BQN d   1     -21.870  20.036  -2.704  0.00  0.00    -0.080 A 
ATOM     14  H7  BQN d   1     -23.055  19.753  -4.474  0.00  0.00     0.087 H 
ATOM     15  C16 BQN d   1     -20.793  19.572  -1.952  0.00  0.00    -0.082 A 
ATOM     16  H8  BQN d   1     -22.439  20.894  -2.365  0.00  0.00     0.083 H 
ATOM     17  C15 BQN d   1     -20.060  18.470  -2.389  0.00  0.00    -0.064 A 
ATOM     18  H9  BQN d   1     -20.525  20.068  -1.026  0.00  0.00     0.083 H 
ATOM     19  H10 BQN d   1     -19.223  18.111  -1.802  0.00  0.00     0.085 H 
BRANCH  11  20
ATOM     20  O3  BQN d   1     -21.803  17.658  -5.510  0.00  0.00    -0.345 OA
BRANCH  20  21
ATOM     21  C20 BQN d   1     -23.070  17.835  -6.160  0.00  0.00     0.051 C 
ATOM     22  H1  BQN d   1     -23.831  18.099  -5.410  0.00  0.00     0.082 H 
ATOM     23  H2  BQN d   1     -23.357  16.898  -6.660  0.00  0.00     0.082 H 
BRANCH  21  24
ATOM     24  C21 BQN d   1     -22.972  18.943  -7.187  0.00  0.00    -0.017 A 
ATOM     25  C25 BQN d   1     -21.748  19.270  -7.766  0.00  0.00    -0.072 A 
ATOM     26  C24 BQN d   1     -21.696  20.297  -8.708  0.00  0.00    -0.065 A 
ATOM     27  H3  BQN d   1     -20.848  18.733  -7.488  0.00  0.00     0.084 H 
ATOM     28  C23 BQN d   1     -22.871  20.969  -9.051  0.00  0.00     0.002 A 
ATOM     29  H4  BQN d   1     -20.754  20.571  -9.169  0.00  0.00     0.085 H 
ATOM     30  N2  BQN d   1     -24.036  20.630  -8.477  0.00  0.00    -0.272 NA
ATOM     31  H5  BQN d   1     -22.842  21.767  -9.784  0.00  0.00     0.114 H 
ATOM     32  C22 BQN d   1     -24.115  19.646  -7.565  0.00  0.00     0.010 A 
ATOM     33  H6  BQN d   1     -25.072  19.398  -7.121  0.00  0.00     0.115 H 
ENDBRANCH  21  24
ENDBRANCH  20  21
ENDBRANCH  11  20
ENDBRANCH   9  10
ENDBRANCH   3   9
BRANCH   1  34
ATOM     34  C12 BQN d   1     -17.703  14.623  -5.775  0.00  0.00     0.419 C 
ATOM     35  F6  BQN d   1     -16.480  14.172  -6.002  0.00  0.00    -0.166 F 
ATOM     36  F4  BQN d   1     -18.580  13.867  -6.377  0.00  0.00    -0.166 F 
ATOM     37  F5  BQN d   1     -17.870  14.478  -4.471  0.00  0.00    -0.166 F 
ENDBRANCH   1  34
BRANCH   2  38
ATOM     38  C10 BQN d   1     -16.244  15.651  -8.191  0.00  0.00     0.419 C 
ATOM     39  F3  BQN d   1     -15.030  15.376  -7.768  0.00  0.00    -0.166 F 
ATOM     40  F2  BQN d   1     -16.940  14.536  -8.323  0.00  0.00    -0.166 F 
ATOM     41  F1  BQN d   1     -16.188  16.109  -9.423  0.00  0.00    -0.166 F 
ENDBRANCH   2  38
BRANCH   6  42
ATOM     42  C7  BQN d   1     -16.341  18.494  -8.791  0.00  0.00    -0.067 C 
ATOM     43  H13 BQN d   1     -16.041  17.805  -9.579  0.00  0.00     0.085 H 
BRANCH  42  44
ATOM     44  C6  BQN d   1     -15.998  19.781  -8.915  0.00  0.00    -0.017 C 
ATOM     45  H14 BQN d   1     -16.318  20.506  -8.168  0.00  0.00     0.092 H 
BRANCH  44  46
ATOM     46  C1  BQN d   1     -15.182  20.217 -10.071  0.00  0.00     0.243 C 
ATOM     47  O1  BQN d   1     -14.427  19.405 -10.581  0.00  0.00    -0.268 OA
ATOM     48  N1  BQN d   1     -15.243  21.476 -10.515  0.00  0.00    -0.345 N 
ATOM     49  C5  BQN d   1     -16.054  22.533  -9.905  0.00  0.00     0.018 C 
ATOM     50  C2  BQN d   1     -14.467  21.887 -11.685  0.00  0.00     0.018 C 
ATOM     51  C4  BQN d   1     -15.078  23.644  -9.510  0.00  0.00     0.034 C 
ATOM     52  H15 BQN d   1     -16.575  22.149  -9.016  0.00  0.00     0.067 H 
ATOM     53  H16 BQN d   1     -16.792  22.912 -10.627  0.00  0.00     0.067 H 
ATOM     54  O2  BQN d   1     -14.247  24.010 -10.624  0.00  0.00    -0.388 OA
ATOM     55  H17 BQN d   1     -14.441  23.289  -8.686  0.00  0.00     0.076 H 
ATOM     56  H18 BQN d   1     -15.648  24.525  -9.180  0.00  0.00     0.076 H 
ATOM     57  C3  BQN d   1     -13.487  22.919 -11.140  0.00  0.00     0.034 C 
ATOM     58  H19 BQN d   1     -12.881  22.473 -10.338  0.00  0.00     0.076 H 
ATOM     59  H20 BQN d   1     -12.827  23.271 -11.946  0.00  0.00     0.076 H 
ATOM     60  H21 BQN d   1     -15.120  22.334 -12.449  0.00  0.00     0.067 H 
ATOM     61  H22 BQN d   1     -13.930  21.030 -12.118  0.00  0.00     0.067 H 
ENDBRANCH  44  46
ENDBRANCH  42  44
ENDBRANCH   6  42
TORSDOF 10
