REMARK  12 active torsions:
REMARK  status: ('A' for Active; 'I' for Inactive)
REMARK    1  A    between atoms: C8_6  and  O34_7 
REMARK    2  A    between atoms: O34_7  and  C22_8 
REMARK    3  A    between atoms: C22_8  and  C17_9 
REMARK    4  A    between atoms: C22_8  and  C16_10 
REMARK       I    between atoms: C16_10  and  N28_12 
REMARK    5  A    between atoms: C14_15  and  C12_19 
REMARK    6  A    between atoms: C13_20  and  O33_21 
REMARK    7  A    between atoms: N27_24  and  C21_25 
REMARK    8  A    between atoms: C21_25  and  C20_26 
REMARK    9  A    between atoms: C20_26  and  C23_27 
REMARK   10  A    between atoms: C23_27  and  C19_28 
REMARK   11  A    between atoms: C23_27  and  C18_29 
REMARK   12  A    between atoms: C11_31  and  C10_32 
ROOT
ATOM      1  C12 DEY d   1      93.836   8.323  54.980  0.00  0.00     0.116 C 
ATOM      2  C13 DEY d   1      94.479   7.559  54.071  0.00  0.00     0.117 C 
ATOM      3  C15 DEY d   1      92.969   9.432  54.522  0.00  0.00     0.280 C 
ATOM      4  O29 DEY d   1      92.286  10.059  55.348  0.00  0.00    -0.265 OA
ATOM      5  N27 DEY d   1      93.089   9.769  53.181  0.00  0.00    -0.233 N 
ATOM      6  N25 DEY d   1      93.871   9.096  52.276  0.00  0.00    -0.166 NA
ATOM      7  C11 DEY d   1      94.534   8.059  52.690  0.00  0.00     0.128 C 
ENDROOT
BRANCH   1   8
ATOM      8  C14 DEY d   1      93.985   8.108  56.416  0.00  0.00     0.156 C 
ATOM      9  N26 DEY d   1      94.850   7.057  56.730  0.00  0.00    -0.263 N 
ATOM     10  S36 DEY d   1      95.202   6.587  58.280  0.00  0.00     0.266 S 
ATOM     11  H9  DEY d   1      95.281   6.560  55.977  0.00  0.00     0.180 HD
ATOM     12  O32 DEY d   1      94.402   5.410  58.547  0.00  0.00    -0.200 OA
ATOM     13  O31 DEY d   1      96.629   6.496  58.398  0.00  0.00    -0.200 OA
ATOM     14  C9  DEY d   1      94.531   7.948  59.211  0.00  0.00     0.111 A 
ATOM     15  C5  DEY d   1      94.806   8.082  60.581  0.00  0.00    -0.026 A 
ATOM     16  C7  DEY d   1      93.675   8.860  58.597  0.00  0.00     0.082 A 
ATOM     17  C8  DEY d   1      94.264   9.151  61.330  0.00  0.00     0.071 A 
ATOM     18  H1  DEY d   1      95.443   7.355  61.072  0.00  0.00     0.090 H 
ATOM     19  C3  DEY d   1      93.434  10.070  60.706  0.00  0.00    -0.048 A 
ATOM     20  C2  DEY d   1      93.140   9.916  59.346  0.00  0.00    -0.051 A 
ATOM     21  H8  DEY d   1      93.017  10.899  61.266  0.00  0.00     0.087 H 
ATOM     22  H10 DEY d   1      92.484  10.630  58.862  0.00  0.00     0.087 H 
ATOM     23  N24 DEY d   1      93.328   8.838  57.267  0.00  0.00    -0.228 NA
BRANCH  17  24
ATOM     24  O34 DEY d   1      94.528   9.308  62.673  0.00  0.00    -0.337 OA
BRANCH  24  25
ATOM     25  C22 DEY d   1      95.158   8.237  63.375  0.00  0.00     0.118 C 
ATOM     26  H2  DEY d   1      95.934   7.777  62.745  0.00  0.00     0.098 H 
BRANCH  25  27
ATOM     27  C17 DEY d   1      94.131   7.191  63.766  0.00  0.00    -0.044 C 
ATOM     28  H3  DEY d   1      94.629   6.372  64.306  0.00  0.00     0.031 H 
ATOM     29  H4  DEY d   1      93.649   6.794  62.861  0.00  0.00     0.031 H 
ATOM     30  H5  DEY d   1      93.370   7.649  64.415  0.00  0.00     0.031 H 
ENDBRANCH  25  27
BRANCH  25  31
ATOM     31  C16 DEY d   1      95.771   8.816  64.614  0.00  0.00     0.244 C 
ATOM     32  O30 DEY d   1      96.470   8.181  65.381  0.00  0.00    -0.271 OA
ATOM     33  N28 DEY d   1      95.474  10.130  64.796  0.00  0.00    -0.368 N 
ATOM     34  H6  DEY d   1      95.832  10.618  65.592  0.00  0.00     0.159 HD
ATOM     35  H7  DEY d   1      94.898  10.609  64.133  0.00  0.00     0.159 HD
ENDBRANCH  25  31
ENDBRANCH  24  25
ENDBRANCH  17  24
ENDBRANCH   1   8
BRANCH   2  36
ATOM     36  O33 DEY d   1      94.982   6.308  54.327  0.00  0.00    -0.357 OA
ATOM     37  H11 DEY d   1      95.628   6.364  55.022  0.00  0.00     0.217 HD
ENDBRANCH   2  36
BRANCH   7  38
ATOM     38  C10 DEY d   1      95.400   7.312  51.784  0.00  0.00     0.038 A 
ATOM     39  C4  DEY d   1      95.937   6.063  51.941  0.00  0.00    -0.064 A 
ATOM     40  C1  DEY d   1      96.743   5.749  50.869  0.00  0.00    -0.075 A 
ATOM     41  H23 DEY d   1      95.753   5.410  52.793  0.00  0.00     0.085 H 
ATOM     42  C6  DEY d   1      96.829   6.711  49.904  0.00  0.00    -0.044 A 
ATOM     43  H25 DEY d   1      97.274   4.801  50.796  0.00  0.00     0.084 H 
ATOM     44  S35 DEY d   1      95.885   8.060  50.324  0.00  0.00    -0.100 SA
ATOM     45  H24 DEY d   1      97.420   6.626  48.993  0.00  0.00     0.095 H 
ENDBRANCH   7  38
BRANCH   5  46
ATOM     46  C21 DEY d   1      92.355  10.911  52.693  0.00  0.00     0.021 C 
ATOM     47  H12 DEY d   1      92.724  11.206  51.700  0.00  0.00     0.067 H 
ATOM     48  H13 DEY d   1      92.457  11.757  53.389  0.00  0.00     0.067 H 
BRANCH  46  49
ATOM     49  C20 DEY d   1      90.897  10.469  52.607  0.00  0.00    -0.045 C 
ATOM     50  H14 DEY d   1      90.283  11.332  52.310  0.00  0.00     0.036 H 
ATOM     51  H15 DEY d   1      90.576  10.114  53.597  0.00  0.00     0.036 H 
BRANCH  49  52
ATOM     52  C23 DEY d   1      90.687   9.337  51.584  0.00  0.00    -0.060 C 
ATOM     53  H16 DEY d   1      91.329   8.495  51.883  0.00  0.00     0.038 H 
BRANCH  52  54
ATOM     54  C19 DEY d   1      89.250   8.830  51.540  0.00  0.00    -0.073 C 
ATOM     55  H17 DEY d   1      89.167   8.027  50.793  0.00  0.00     0.028 H 
ATOM     56  H18 DEY d   1      88.578   9.656  51.265  0.00  0.00     0.028 H 
ATOM     57  H19 DEY d   1      88.968   8.441  52.530  0.00  0.00     0.028 H 
ENDBRANCH  52  54
BRANCH  52  58
ATOM     58  C18 DEY d   1      91.122   9.799  50.186  0.00  0.00    -0.073 C 
ATOM     59  H20 DEY d   1      92.159  10.163  50.226  0.00  0.00     0.028 H 
ATOM     60  H21 DEY d   1      90.462  10.610  49.846  0.00  0.00     0.028 H 
ATOM     61  H22 DEY d   1      91.057   8.955  49.484  0.00  0.00     0.028 H 
ENDBRANCH  52  58
ENDBRANCH  49  52
ENDBRANCH  46  49
ENDBRANCH   5  46
TORSDOF 12
