REMARK  10 active torsions:
REMARK  status: ('A' for Active; 'I' for Inactive)
REMARK    1  A    between atoms: C11_6  and  O32_7 
REMARK    2  A    between atoms: O32_7  and  C20_8 
REMARK    3  A    between atoms: C16_11  and  C14_15 
REMARK    4  A    between atoms: C15_16  and  O31_17 
REMARK    5  A    between atoms: N27_20  and  C22_21 
REMARK    6  A    between atoms: C22_21  and  C21_22 
REMARK    7  A    between atoms: C21_22  and  C23_23 
REMARK    8  A    between atoms: C23_23  and  C19_24 
REMARK    9  A    between atoms: C23_23  and  C18_25 
REMARK   10  A    between atoms: C13_27  and  C9_28 
ROOT
ATOM      1  C14 2PD d   1      94.868   8.850  55.700  0.00  0.00     0.116 A 
ATOM      2  C15 2PD d   1      95.723   8.284  54.809  0.00  0.00     0.116 A 
ATOM      3  C17 2PD d   1      93.870   9.843  55.179  0.00  0.00     0.280 A 
ATOM      4  O28 2PD d   1      93.086  10.412  55.944  0.00  0.00    -0.265 OA
ATOM      5  N27 2PD d   1      93.851  10.062  53.806  0.00  0.00    -0.233 N 
ATOM      6  N25 2PD d   1      94.690   9.459  52.914  0.00  0.00    -0.166 NA
ATOM      7  C13 2PD d   1      95.562   8.618  53.366  0.00  0.00     0.121 A 
ENDROOT
BRANCH   1   8
ATOM      8  C16 2PD d   1      95.041   8.601  57.150  0.00  0.00     0.156 A 
ATOM      9  N26 2PD d   1      95.739   7.402  57.429  0.00  0.00    -0.263 N 
ATOM     10  S33 2PD d   1      96.177   6.886  58.973  0.00  0.00     0.266 S 
ATOM     11  H6  2PD d   1      95.990   6.820  56.656  0.00  0.00     0.180 HD
ATOM     12  O30 2PD d   1      95.438   5.688  59.274  0.00  0.00    -0.200 OA
ATOM     13  O29 2PD d   1      97.619   6.896  59.078  0.00  0.00    -0.200 OA
ATOM     14  C12 2PD d   1      95.577   8.184  59.998  0.00  0.00     0.111 A 
ATOM     15  C8  2PD d   1      95.769   8.072  61.390  0.00  0.00    -0.026 A 
ATOM     16  C10 2PD d   1      94.938   9.290  59.424  0.00  0.00     0.082 A 
ATOM     17  C11 2PD d   1      95.326   9.085  62.244  0.00  0.00     0.069 A 
ATOM     18  H1  2PD d   1      96.262   7.197  61.799  0.00  0.00     0.090 H 
ATOM     19  C7  2PD d   1      94.685  10.195  61.685  0.00  0.00    -0.049 A 
ATOM     20  C6  2PD d   1      94.494  10.297  60.297  0.00  0.00    -0.051 A 
ATOM     21  H5  2PD d   1      94.330  10.989  62.333  0.00  0.00     0.087 H 
ATOM     22  H7  2PD d   1      93.994  11.169  59.892  0.00  0.00     0.087 H 
ATOM     23  N24 2PD d   1      94.707   9.480  58.048  0.00  0.00    -0.228 NA
BRANCH  17  24
ATOM     24  O32 2PD d   1      95.495   8.988  63.604  0.00  0.00    -0.356 OA
BRANCH  24  25
ATOM     25  C20 2PD d   1      96.788   9.201  64.173  0.00  0.00     0.010 C 
ATOM     26  H2  2PD d   1      96.732   9.083  65.265  0.00  0.00     0.066 H 
ATOM     27  H3  2PD d   1      97.132  10.217  63.931  0.00  0.00     0.066 H 
ATOM     28  H4  2PD d   1      97.496   8.466  63.761  0.00  0.00     0.066 H 
ENDBRANCH  24  25
ENDBRANCH  17  24
ENDBRANCH   1   8
BRANCH   2  29
ATOM     29  O31 2PD d   1      96.697   7.385  55.187  0.00  0.00    -0.357 OA
ATOM     30  H8  2PD d   1      96.289   6.630  55.593  0.00  0.00     0.217 HD
ENDBRANCH   2  29
BRANCH   7  31
ATOM     31  C9  2PD d   1      96.522   7.976  52.423  0.00  0.00    -0.003 A 
ATOM     32  C4  2PD d   1      96.760   6.604  52.401  0.00  0.00    -0.071 A 
ATOM     33  C2  2PD d   1      97.703   6.080  51.514  0.00  0.00    -0.082 A 
ATOM     34  H20 2PD d   1      96.216   5.946  53.069  0.00  0.00     0.084 H 
ATOM     35  C1  2PD d   1      98.426   6.912  50.663  0.00  0.00    -0.083 A 
ATOM     36  H21 2PD d   1      97.875   5.010  51.488  0.00  0.00     0.083 H 
ATOM     37  C3  2PD d   1      98.196   8.285  50.693  0.00  0.00    -0.082 A 
ATOM     38  H24 2PD d   1      99.161   6.495  49.984  0.00  0.00     0.083 H 
ATOM     39  C5  2PD d   1      97.255   8.809  51.580  0.00  0.00    -0.071 A 
ATOM     40  H23 2PD d   1      98.746   8.944  50.030  0.00  0.00     0.083 H 
ATOM     41  H22 2PD d   1      97.092   9.880  51.614  0.00  0.00     0.084 H 
ENDBRANCH   7  31
BRANCH   5  42
ATOM     42  C22 2PD d   1      92.910  10.969  53.184  0.00  0.00     0.021 C 
ATOM     43  H9  2PD d   1      93.464  11.702  52.579  0.00  0.00     0.067 H 
ATOM     44  H10 2PD d   1      92.345  11.494  53.968  0.00  0.00     0.067 H 
BRANCH  42  45
ATOM     45  C21 2PD d   1      91.937  10.219  52.288  0.00  0.00    -0.045 C 
ATOM     46  H11 2PD d   1      92.492   9.459  51.718  0.00  0.00     0.036 H 
ATOM     47  H12 2PD d   1      91.472  10.933  51.592  0.00  0.00     0.036 H 
BRANCH  45  48
ATOM     48  C23 2PD d   1      90.834   9.525  53.097  0.00  0.00    -0.060 C 
ATOM     49  H13 2PD d   1      91.244   8.593  53.513  0.00  0.00     0.038 H 
BRANCH  48  50
ATOM     50  C19 2PD d   1      90.368  10.404  54.257  0.00  0.00    -0.073 C 
ATOM     51  H14 2PD d   1      89.579   9.882  54.818  0.00  0.00     0.028 H 
ATOM     52  H15 2PD d   1      89.972  11.352  53.863  0.00  0.00     0.028 H 
ATOM     53  H16 2PD d   1      91.217  10.611  54.925  0.00  0.00     0.028 H 
ENDBRANCH  48  50
BRANCH  48  54
ATOM     54  C18 2PD d   1      89.656   9.174  52.187  0.00  0.00    -0.073 C 
ATOM     55  H17 2PD d   1      90.008   8.542  51.358  0.00  0.00     0.028 H 
ATOM     56  H18 2PD d   1      89.217  10.098  51.782  0.00  0.00     0.028 H 
ATOM     57  H19 2PD d   1      88.895   8.630  52.766  0.00  0.00     0.028 H 
ENDBRANCH  48  54
ENDBRANCH  45  48
ENDBRANCH  42  45
ENDBRANCH   5  42
TORSDOF 10
