REMARK  15 active torsions:
REMARK  status: ('A' for Active; 'I' for Inactive)
REMARK    1  A    between atoms: C7_7  and  N4_33 
REMARK    2  A    between atoms: C9_9  and  C30_31 
REMARK    3  A    between atoms: C28_30  and  N1_10 
REMARK    4  A    between atoms: C19_21  and  N2_13 
REMARK    5  A    between atoms: C12_14  and  C29_32 
REMARK    6  A    between atoms: C14_16  and  N3_34 
REMARK    7  A    between atoms: C20_22  and  C19_21 
REMARK    8  A    between atoms: C21_23  and  C20_22 
REMARK    9  A    between atoms: C22_24  and  C21_23 
REMARK   10  A    between atoms: C23_25  and  C22_24 
REMARK   11  A    between atoms: C24_26  and  C23_25 
REMARK   12  A    between atoms: C25_27  and  C24_26 
REMARK   13  A    between atoms: C26_28  and  C25_27 
REMARK   14  A    between atoms: C27_29  and  C26_28 
REMARK   15  A    between atoms: C27_29  and  C28_30 
ROOT
ATOM      1  C23 DEQ d   1     -65.068 -45.384   8.244  0.00  0.00    -0.065 C 
ATOM      2  H21 DEQ d   1     -64.925 -44.448   8.803  0.00  0.00     0.033 H 
ATOM      3  H22 DEQ d   1     -64.718 -46.231   8.852  0.00  0.00     0.033 H 
ENDROOT
BRANCH   1   4
ATOM      4  C22 DEQ d   1     -64.380 -45.341   6.899  0.00  0.00    -0.065 C 
ATOM      5  H19 DEQ d   1     -64.639 -46.278   6.384  0.00  0.00     0.033 H 
ATOM      6  H20 DEQ d   1     -64.812 -44.490   6.352  0.00  0.00     0.033 H 
BRANCH   4   7
ATOM      7  C21 DEQ d   1     -62.899 -45.199   6.806  0.00  0.00    -0.064 C 
ATOM      8  H17 DEQ d   1     -62.551 -44.268   7.278  0.00  0.00     0.033 H 
ATOM      9  H18 DEQ d   1     -62.381 -46.056   7.261  0.00  0.00     0.033 H 
BRANCH   7  10
ATOM     10  C20 DEQ d   1     -62.707 -45.166   5.291  0.00  0.00    -0.050 C 
ATOM     11  H15 DEQ d   1     -63.149 -46.084   4.876  0.00  0.00     0.035 H 
ATOM     12  H16 DEQ d   1     -63.248 -44.291   4.902  0.00  0.00     0.035 H 
BRANCH  10  13
ATOM     13  C19 DEQ d   1     -61.278 -45.080   4.805  0.00  0.00     0.000 C 
ATOM     14  H13 DEQ d   1     -60.791 -44.163   5.170  0.00  0.00     0.064 H 
ATOM     15  H14 DEQ d   1     -60.698 -45.957   5.128  0.00  0.00     0.064 H 
BRANCH  13  16
ATOM     16  N2  DEQ d   1     -61.438 -45.051   3.199  0.00  0.00    -0.350 N 
ATOM     17  C11 DEQ d   1     -62.687 -45.019   2.164  0.00  0.00     0.043 A 
ATOM     18  C10 DEQ d   1     -62.447 -45.357   0.726  0.00  0.00     0.003 A 
ATOM     19  C18 DEQ d   1     -64.080 -44.668   2.496  0.00  0.00    -0.056 A 
ATOM     20  C14 DEQ d   1     -61.129 -45.718   0.239  0.00  0.00     0.145 A 
ATOM     21  C15 DEQ d   1     -63.553 -45.334  -0.202  0.00  0.00    -0.072 A 
ATOM     22  C13 DEQ d   1     -60.037 -45.742   1.099  0.00  0.00    -0.048 A 
ATOM     23  H8  DEQ d   1     -61.376 -46.769   0.450  0.00  0.00     0.098 H 
ATOM     24  C12 DEQ d   1     -60.107 -45.448   2.465  0.00  0.00     0.006 A 
ATOM     25  H7  DEQ d   1     -59.066 -46.006   0.683  0.00  0.00     0.083 H 
ATOM     26  C16 DEQ d   1     -64.883 -44.986   0.191  0.00  0.00    -0.082 A 
ATOM     27  H9  DEQ d   1     -63.367 -45.591  -1.239  0.00  0.00     0.084 H 
ATOM     28  C17 DEQ d   1     -65.147 -44.651   1.548  0.00  0.00    -0.081 A 
ATOM     29  H10 DEQ d   1     -65.684 -44.977  -0.539  0.00  0.00     0.083 H 
ATOM     30  H11 DEQ d   1     -66.150 -44.385   1.860  0.00  0.00     0.083 H 
ATOM     31  H12 DEQ d   1     -64.308 -44.407   3.523  0.00  0.00     0.086 H 
BRANCH  20  32
ATOM     32  N3  DEQ d   1     -60.698 -46.077  -1.102  0.00  0.00    -0.068 N 
ATOM     33  H41 DEQ d   1     -61.490 -46.059  -1.725  0.00  0.00     0.275 HD
ATOM     34  H42 DEQ d   1     -60.300 -47.003  -1.090  0.00  0.00     0.275 HD
ATOM     35  H43 DEQ d   1     -60.005 -45.417  -1.420  0.00  0.00     0.275 HD
ENDBRANCH  20  32
BRANCH  24  36
ATOM     36  C29 DEQ d   1     -58.753 -45.552   3.175  0.00  0.00    -0.037 C 
ATOM     37  H36 DEQ d   1     -57.980 -45.844   2.449  0.00  0.00     0.035 H 
ATOM     38  H37 DEQ d   1     -58.813 -46.309   3.971  0.00  0.00     0.035 H 
ATOM     39  H38 DEQ d   1     -58.494 -44.578   3.615  0.00  0.00     0.035 H 
ENDBRANCH  24  36
ENDBRANCH  13  16
ENDBRANCH  10  13
ENDBRANCH   7  10
ENDBRANCH   4   7
ENDBRANCH   1   4
BRANCH   1  40
ATOM     40  C24 DEQ d   1     -66.533 -45.566   7.807  0.00  0.00    -0.065 C 
ATOM     41  H23 DEQ d   1     -66.596 -46.509   7.245  0.00  0.00     0.033 H 
ATOM     42  H24 DEQ d   1     -66.787 -44.726   7.144  0.00  0.00     0.033 H 
BRANCH  40  43
ATOM     43  C25 DEQ d   1     -67.573 -45.616   8.893  0.00  0.00    -0.065 C 
ATOM     44  H25 DEQ d   1     -67.575 -44.661   9.438  0.00  0.00     0.033 H 
ATOM     45  H26 DEQ d   1     -67.334 -46.434   9.588  0.00  0.00     0.033 H 
BRANCH  43  46
ATOM     46  C26 DEQ d   1     -68.972 -45.858   8.281  0.00  0.00    -0.064 C 
ATOM     47  H27 DEQ d   1     -68.820 -45.458   7.268  0.00  0.00     0.033 H 
ATOM     48  H28 DEQ d   1     -69.573 -45.149   8.869  0.00  0.00     0.033 H 
BRANCH  46  49
ATOM     49  C27 DEQ d   1     -70.025 -46.952   7.996  0.00  0.00    -0.050 C 
ATOM     50  H29 DEQ d   1     -69.600 -47.928   8.271  0.00  0.00     0.035 H 
ATOM     51  H30 DEQ d   1     -70.257 -46.943   6.921  0.00  0.00     0.035 H 
BRANCH  49  52
ATOM     52  C28 DEQ d   1     -71.344 -46.746   8.789  0.00  0.00    -0.004 C 
ATOM     53  H31 DEQ d   1     -71.050 -46.615   9.841  0.00  0.00     0.064 H 
ATOM     54  H32 DEQ d   1     -71.784 -45.811   8.412  0.00  0.00     0.064 H 
BRANCH  52  55
ATOM     55  N1  DEQ d   1     -72.506 -47.806   8.789  0.00  0.00    -0.372 N 
ATOM     56  C5  DEQ d   1     -72.533 -49.201   8.032  0.00  0.00     0.043 A 
ATOM     57  C1  DEQ d   1     -71.479 -49.746   7.173  0.00  0.00    -0.056 A 
ATOM     58  C6  DEQ d   1     -73.742 -50.057   8.205  0.00  0.00     0.016 A 
ATOM     59  C2  DEQ d   1     -71.578 -51.021   6.523  0.00  0.00    -0.081 A 
ATOM     60  H1  DEQ d   1     -70.581 -49.158   7.021  0.00  0.00     0.086 H 
ATOM     61  C3  DEQ d   1     -72.747 -51.823   6.706  0.00  0.00    -0.082 A 
ATOM     62  H2  DEQ d   1     -70.769 -51.375   5.895  0.00  0.00     0.083 H 
ATOM     63  C4  DEQ d   1     -73.815 -51.351   7.534  0.00  0.00    -0.069 A 
ATOM     64  H3  DEQ d   1     -72.825 -52.788   6.218  0.00  0.00     0.083 H 
ATOM     65  H4  DEQ d   1     -74.697 -51.968   7.665  0.00  0.00     0.085 H 
ATOM     66  C7  DEQ d   1     -74.834 -49.605   9.035  0.00  0.00     0.036 A 
ATOM     67  C8  DEQ d   1     -74.774 -48.345   9.693  0.00  0.00    -0.056 A 
ATOM     68  C9  DEQ d   1     -73.695 -47.442   9.616  0.00  0.00     0.027 A 
ATOM     69  H5  DEQ d   1     -75.628 -48.056  10.303  0.00  0.00     0.083 H 
ATOM     70  H6  DEQ d   1     -74.132 -46.949   8.735  0.00  0.00     0.078 H 
BRANCH  66  71
ATOM     71  N4  DEQ d   1     -76.041 -50.355   9.268  0.00  0.00    -0.399 N 
ATOM     72  H39 DEQ d   1     -76.166 -51.278   8.829  0.00  0.00     0.156 HD
ATOM     73  H40 DEQ d   1     -76.779 -49.968   9.873  0.00  0.00     0.156 HD
ENDBRANCH  66  71
BRANCH  68  74
ATOM     74  C30 DEQ d   1     -73.890 -46.144  10.435  0.00  0.00    -0.054 C 
ATOM     75  H33 DEQ d   1     -74.869 -46.170  10.936  0.00  0.00     0.030 H 
ATOM     76  H34 DEQ d   1     -73.846 -45.275   9.761  0.00  0.00     0.030 H 
ATOM     77  H35 DEQ d   1     -73.094 -46.064  11.190  0.00  0.00     0.030 H 
ENDBRANCH  68  74
ENDBRANCH  52  55
ENDBRANCH  49  52
ENDBRANCH  46  49
ENDBRANCH  43  46
ENDBRANCH  40  43
ENDBRANCH   1  40
TORSDOF 15
