REMARK  9 active torsions:
REMARK  status: ('A' for Active; 'I' for Inactive)
REMARK    1  A    between atoms: C1_1  and  C2_2 
REMARK    2  A    between atoms: C1_1  and  C8_8 
REMARK    3  A    between atoms: C1_1  and  C14_14 
REMARK    4  A    between atoms: C11_11  and  N2_24 
REMARK    5  A    between atoms: C17_17  and  N3_25 
REMARK    6  A    between atoms: N2_24  and  C22_20 
REMARK    7  A    between atoms: N2_24  and  C23_21 
REMARK    8  A    between atoms: N3_25  and  C24_22 
REMARK    9  A    between atoms: N3_25  and  C25_23 
ROOT
ATOM      1  C1  MGR d   1     -70.199 -46.146   5.505  0.00  0.00     0.022 C 
ATOM      2  H1  MGR d   1     -70.808 -46.105   4.590  0.00  0.00     0.062 H 
ENDROOT
BRANCH   1   3
ATOM      3  C2  MGR d   1     -70.710 -47.528   5.809  0.00  0.00    -0.045 A 
ATOM      4  C3  MGR d   1     -70.852 -48.000   7.170  0.00  0.00    -0.076 A 
ATOM      5  C4  MGR d   1     -71.317 -49.282   7.466  0.00  0.00    -0.082 A 
ATOM      6  H2  MGR d   1     -70.589 -47.336   7.986  0.00  0.00     0.084 H 
ATOM      7  C5  MGR d   1     -71.683 -50.181   6.423  0.00  0.00    -0.083 A 
ATOM      8  H3  MGR d   1     -71.401 -49.597   8.500  0.00  0.00     0.083 H 
ATOM      9  C6  MGR d   1     -71.561 -49.750   5.063  0.00  0.00    -0.082 A 
ATOM     10  H4  MGR d   1     -72.048 -51.175   6.655  0.00  0.00     0.083 H 
ATOM     11  C7  MGR d   1     -71.096 -48.462   4.764  0.00  0.00    -0.076 A 
ATOM     12  H5  MGR d   1     -71.830 -50.425   4.259  0.00  0.00     0.083 H 
ATOM     13  H6  MGR d   1     -71.022 -48.154   3.727  0.00  0.00     0.084 H 
ENDBRANCH   1   3
BRANCH   1  14
ATOM     14  C8  MGR d   1     -68.975 -45.946   4.685  0.00  0.00    -0.045 A 
ATOM     15  C9  MGR d   1     -68.030 -47.039   4.427  0.00  0.00    -0.074 A 
ATOM     16  C10 MGR d   1     -66.898 -46.906   3.651  0.00  0.00    -0.057 A 
ATOM     17  H7  MGR d   1     -68.234 -48.006   4.872  0.00  0.00     0.084 H 
ATOM     18  C11 MGR d   1     -66.539 -45.641   3.085  0.00  0.00     0.029 A 
ATOM     19  H8  MGR d   1     -66.271 -47.771   3.467  0.00  0.00     0.086 H 
ATOM     20  C12 MGR d   1     -67.460 -44.527   3.315  0.00  0.00    -0.057 A 
ATOM     21  C13 MGR d   1     -68.605 -44.685   4.105  0.00  0.00    -0.074 A 
ATOM     22  H9  MGR d   1     -67.252 -43.563   2.866  0.00  0.00     0.086 H 
ATOM     23  H10 MGR d   1     -69.237 -43.823   4.286  0.00  0.00     0.084 H 
BRANCH  18  24
ATOM     24  N2  MGR d   1     -65.410 -45.508   2.291  0.00  0.00    -0.390 N 
BRANCH  24  25
ATOM     25  C22 MGR d   1     -65.054 -44.179   1.675  0.00  0.00    -0.019 C 
ATOM     26  H15 MGR d   1     -64.131 -44.283   1.086  0.00  0.00     0.056 H 
ATOM     27  H16 MGR d   1     -64.899 -43.436   2.471  0.00  0.00     0.056 H 
ATOM     28  H17 MGR d   1     -65.872 -43.848   1.018  0.00  0.00     0.056 H 
ENDBRANCH  24  25
BRANCH  24  29
ATOM     29  C23 MGR d   1     -64.438 -46.595   1.993  0.00  0.00    -0.019 C 
ATOM     30  H18 MGR d   1     -64.769 -47.526   2.477  0.00  0.00     0.056 H 
ATOM     31  H19 MGR d   1     -63.446 -46.315   2.377  0.00  0.00     0.056 H 
ATOM     32  H20 MGR d   1     -64.380 -46.747   0.905  0.00  0.00     0.056 H 
ENDBRANCH  24  29
ENDBRANCH  18  24
ENDBRANCH   1  14
BRANCH   1  33
ATOM     33  C14 MGR d   1     -70.962 -45.026   6.077  0.00  0.00    -0.045 A 
ATOM     34  C15 MGR d   1     -70.356 -44.077   6.981  0.00  0.00    -0.074 A 
ATOM     35  C16 MGR d   1     -71.075 -43.034   7.555  0.00  0.00    -0.057 A 
ATOM     36  H11 MGR d   1     -69.304 -44.181   7.221  0.00  0.00     0.084 H 
ATOM     37  C17 MGR d   1     -72.432 -42.853   7.281  0.00  0.00     0.029 A 
ATOM     38  H12 MGR d   1     -70.572 -42.349   8.228  0.00  0.00     0.086 H 
ATOM     39  C18 MGR d   1     -73.066 -43.776   6.376  0.00  0.00    -0.057 A 
ATOM     40  C19 MGR d   1     -72.352 -44.821   5.799  0.00  0.00    -0.074 A 
ATOM     41  H13 MGR d   1     -74.117 -43.654   6.140  0.00  0.00     0.086 H 
ATOM     42  H14 MGR d   1     -72.861 -45.498   5.122  0.00  0.00     0.084 H 
BRANCH  37  43
ATOM     43  N3  MGR d   1     -73.137 -41.842   7.853  0.00  0.00    -0.390 N 
BRANCH  43  44
ATOM     44  C24 MGR d   1     -73.368 -41.707   9.283  0.00  0.00    -0.019 C 
ATOM     45  H21 MGR d   1     -73.966 -40.803   9.474  0.00  0.00     0.056 H 
ATOM     46  H22 MGR d   1     -72.403 -41.625   9.804  0.00  0.00     0.056 H 
ATOM     47  H23 MGR d   1     -73.910 -42.590   9.652  0.00  0.00     0.056 H 
ENDBRANCH  43  44
BRANCH  43  48
ATOM     48  C25 MGR d   1     -73.754 -40.789   7.068  0.00  0.00    -0.019 C 
ATOM     49  H24 MGR d   1     -73.540 -40.953   6.002  0.00  0.00     0.056 H 
ATOM     50  H25 MGR d   1     -73.348 -39.815   7.378  0.00  0.00     0.056 H 
ATOM     51  H26 MGR d   1     -74.842 -40.801   7.229  0.00  0.00     0.056 H 
ENDBRANCH  43  48
ENDBRANCH  37  43
ENDBRANCH   1  33
TORSDOF 9
