REMARK  4 active torsions:
REMARK  status: ('A' for Active; 'I' for Inactive)
REMARK    1  A    between atoms: C15_17  and  O3_22 
REMARK    2  A    between atoms: C18_21  and  O4_23 
REMARK    3  A    between atoms: O3_22  and  C19_24 
REMARK    4  A    between atoms: O4_23  and  C20_25 
ROOT
ATOM      1  C1  BER d   1     -64.736 -44.621   2.697  0.00  0.00     0.042 A 
ATOM      2  C2  BER d   1     -66.149 -44.264   3.158  0.00  0.00    -0.000 A 
ATOM      3  N1  BER d   1     -64.430 -44.540   1.297  0.00  0.00    -0.376 N 
ATOM      4  C3  BER d   1     -63.700 -44.994   3.614  0.00  0.00    -0.046 A 
ATOM      5  C4  BER d   1     -66.976 -43.472   2.251  0.00  0.00    -0.041 A 
ATOM      6  C5  BER d   1     -66.683 -44.659   4.423  0.00  0.00    -0.035 A 
ATOM      7  C6  BER d   1     -63.148 -44.838   0.819  0.00  0.00     0.022 A 
ATOM      8  C7  BER d   1     -65.490 -44.146   0.331  0.00  0.00    -0.001 C 
ATOM      9  C8  BER d   1     -62.393 -45.299   3.116  0.00  0.00    -0.023 A 
ATOM     10  C9  BER d   1     -68.291 -43.093   2.627  0.00  0.00    -0.041 A 
ATOM     11  C10 BER d   1     -66.414 -43.045   0.894  0.00  0.00    -0.025 C 
ATOM     12  C11 BER d   1     -68.021 -44.265   4.786  0.00  0.00     0.105 A 
ATOM     13  C12 BER d   1     -62.106 -45.184   1.706  0.00  0.00     0.006 A 
ATOM     14  C13 BER d   1     -61.349 -45.645   4.013  0.00  0.00    -0.070 A 
ATOM     15  C14 BER d   1     -68.816 -43.486   3.891  0.00  0.00     0.105 A 
ATOM     16  O1  BER d   1     -68.763 -44.498   5.906  0.00  0.00    -0.323 OA
ATOM     17  C15 BER d   1     -60.794 -45.497   1.178  0.00  0.00     0.110 A 
ATOM     18  C16 BER d   1     -60.044 -45.929   3.522  0.00  0.00    -0.047 A 
ATOM     19  O2  BER d   1     -70.019 -43.256   4.479  0.00  0.00    -0.323 OA
ATOM     20  C17 BER d   1     -69.843 -43.551   5.869  0.00  0.00     0.115 C 
ATOM     21  C18 BER d   1     -59.736 -45.830   2.109  0.00  0.00     0.102 A 
ATOM     22  H1  BER d   1     -63.906 -45.045   4.682  0.00  0.00     0.088 H 
ATOM     23  H2  BER d   1     -66.085 -45.252   5.106  0.00  0.00     0.089 H 
ATOM     24  H3  BER d   1     -62.806 -43.951   0.265  0.00  0.00     0.071 H 
ATOM     25  H4  BER d   1     -63.261 -45.683   0.124  0.00  0.00     0.071 H 
ATOM     26  H5  BER d   1     -66.098 -45.031   0.093  0.00  0.00     0.064 H 
ATOM     27  H6  BER d   1     -65.012 -43.772  -0.586  0.00  0.00     0.064 H 
ATOM     28  H7  BER d   1     -68.898 -42.502   1.950  0.00  0.00     0.088 H 
ATOM     29  H8  BER d   1     -65.839 -42.115   1.015  0.00  0.00     0.042 H 
ATOM     30  H9  BER d   1     -67.245 -42.874   0.194  0.00  0.00     0.042 H 
ATOM     31  H10 BER d   1     -61.547 -45.693   5.078  0.00  0.00     0.085 H 
ATOM     32  H11 BER d   1     -59.266 -46.225   4.217  0.00  0.00     0.087 H 
ATOM     33  H12 BER d   1     -69.581 -42.641   6.429  0.00  0.00     0.118 H 
ATOM     34  H13 BER d   1     -70.759 -43.990   6.292  0.00  0.00     0.118 H 
ENDROOT
BRANCH  17  35
ATOM     35  O3  BER d   1     -60.588 -45.370  -0.211  0.00  0.00    -0.352 OA
BRANCH  35  36
ATOM     36  C19 BER d   1     -59.322 -45.608  -0.880  0.00  0.00     0.011 C 
ATOM     37  H14 BER d   1     -59.441 -45.438  -1.960  0.00  0.00     0.067 H 
ATOM     38  H15 BER d   1     -59.004 -46.647  -0.705  0.00  0.00     0.067 H 
ATOM     39  H16 BER d   1     -58.562 -44.920  -0.482  0.00  0.00     0.067 H 
ENDBRANCH  35  36
ENDBRANCH  17  35
BRANCH  21  40
ATOM     40  O4  BER d   1     -58.458 -46.102   1.635  0.00  0.00    -0.353 OA
BRANCH  40  41
ATOM     41  C20 BER d   1     -57.367 -46.460   2.511  0.00  0.00     0.010 C 
ATOM     42  H17 BER d   1     -56.458 -46.628   1.915  0.00  0.00     0.066 H 
ATOM     43  H18 BER d   1     -57.622 -47.380   3.058  0.00  0.00     0.066 H 
ATOM     44  H19 BER d   1     -57.190 -45.645   3.228  0.00  0.00     0.066 H 
ENDBRANCH  40  41
ENDBRANCH  21  40
TORSDOF 4
