REMARK  15 active torsions:
REMARK  status: ('A' for Active; 'I' for Inactive)
REMARK    1  A    between atoms: C7_7  and  N4_33 
REMARK    2  A    between atoms: C9_9  and  C30_31 
REMARK    3  A    between atoms: C28_30  and  N1_10 
REMARK    4  A    between atoms: C19_21  and  N2_13 
REMARK    5  A    between atoms: C12_14  and  C29_32 
REMARK    6  A    between atoms: C14_16  and  N3_34 
REMARK    7  A    between atoms: C20_22  and  C19_21 
REMARK    8  A    between atoms: C21_23  and  C20_22 
REMARK    9  A    between atoms: C22_24  and  C21_23 
REMARK   10  A    between atoms: C23_25  and  C22_24 
REMARK   11  A    between atoms: C24_26  and  C23_25 
REMARK   12  A    between atoms: C25_27  and  C24_26 
REMARK   13  A    between atoms: C26_28  and  C25_27 
REMARK   14  A    between atoms: C27_29  and  C26_28 
REMARK   15  A    between atoms: C27_29  and  C28_30 
ROOT
ATOM      1  C23 DEQ d   1     -64.817 -46.511   8.936  0.00  0.00    -0.065 C 
ATOM      2  H21 DEQ d   1     -64.647 -45.613   9.548  0.00  0.00     0.033 H 
ATOM      3  H22 DEQ d   1     -64.287 -47.365   9.383  0.00  0.00     0.033 H 
ENDROOT
BRANCH   1   4
ATOM      4  C22 DEQ d   1     -64.370 -46.285   7.510  0.00  0.00    -0.065 C 
ATOM      5  H19 DEQ d   1     -64.613 -47.194   6.940  0.00  0.00     0.033 H 
ATOM      6  H20 DEQ d   1     -64.948 -45.438   7.113  0.00  0.00     0.033 H 
BRANCH   4   7
ATOM      7  C21 DEQ d   1     -62.927 -45.987   7.283  0.00  0.00    -0.064 C 
ATOM      8  H17 DEQ d   1     -62.634 -45.060   7.798  0.00  0.00     0.033 H 
ATOM      9  H18 DEQ d   1     -62.297 -46.817   7.634  0.00  0.00     0.033 H 
BRANCH   7  10
ATOM     10  C20 DEQ d   1     -62.816 -45.825   5.771  0.00  0.00    -0.050 C 
ATOM     11  H15 DEQ d   1     -63.167 -46.753   5.297  0.00  0.00     0.035 H 
ATOM     12  H16 DEQ d   1     -63.462 -44.989   5.464  0.00  0.00     0.035 H 
BRANCH  10  13
ATOM     13  C19 DEQ d   1     -61.408 -45.543   5.282  0.00  0.00     0.000 C 
ATOM     14  H13 DEQ d   1     -61.026 -44.603   5.708  0.00  0.00     0.064 H 
ATOM     15  H14 DEQ d   1     -60.730 -46.367   5.546  0.00  0.00     0.064 H 
BRANCH  13  16
ATOM     16  N2  DEQ d   1     -61.571 -45.423   3.676  0.00  0.00    -0.350 N 
ATOM     17  C11 DEQ d   1     -62.804 -45.499   2.628  0.00  0.00     0.043 A 
ATOM     18  C10 DEQ d   1     -62.502 -45.499   1.168  0.00  0.00     0.003 A 
ATOM     19  C18 DEQ d   1     -64.234 -45.567   2.960  0.00  0.00    -0.056 A 
ATOM     20  C14 DEQ d   1     -61.136 -45.430   0.670  0.00  0.00     0.145 A 
ATOM     21  C15 DEQ d   1     -63.591 -45.569   0.218  0.00  0.00    -0.072 A 
ATOM     22  C13 DEQ d   1     -60.063 -45.362   1.545  0.00  0.00    -0.048 A 
ATOM     23  H8  DEQ d   1     -61.121 -46.530   0.670  0.00  0.00     0.098 H 
ATOM     24  C12 DEQ d   1     -60.191 -45.353   2.932  0.00  0.00     0.006 A 
ATOM     25  H7  DEQ d   1     -59.060 -45.313   1.123  0.00  0.00     0.083 H 
ATOM     26  C16 DEQ d   1     -64.964 -45.636   0.613  0.00  0.00    -0.082 A 
ATOM     27  H9  DEQ d   1     -63.356 -45.571  -0.840  0.00  0.00     0.084 H 
ATOM     28  C17 DEQ d   1     -65.288 -45.635   1.992  0.00  0.00    -0.081 A 
ATOM     29  H10 DEQ d   1     -65.748 -45.687  -0.134  0.00  0.00     0.083 H 
ATOM     30  H11 DEQ d   1     -66.323 -45.685   2.312  0.00  0.00     0.083 H 
ATOM     31  H12 DEQ d   1     -64.510 -45.566   4.008  0.00  0.00     0.086 H 
BRANCH  20  32
ATOM     32  N3  DEQ d   1     -60.643 -45.417  -0.693  0.00  0.00    -0.068 N 
ATOM     33  H41 DEQ d   1     -61.421 -45.466  -1.332  0.00  0.00     0.275 HD
ATOM     34  H42 DEQ d   1     -60.038 -46.210  -0.839  0.00  0.00     0.275 HD
ATOM     35  H43 DEQ d   1     -60.128 -44.566  -0.856  0.00  0.00     0.275 HD
ENDBRANCH  20  32
BRANCH  24  36
ATOM     36  C29 DEQ d   1     -58.844 -45.275   3.659  0.00  0.00    -0.037 C 
ATOM     37  H36 DEQ d   1     -58.030 -45.236   2.920  0.00  0.00     0.035 H 
ATOM     38  H37 DEQ d   1     -58.719 -46.163   4.295  0.00  0.00     0.035 H 
ATOM     39  H38 DEQ d   1     -58.816 -44.370   4.283  0.00  0.00     0.035 H 
ENDBRANCH  24  36
ENDBRANCH  13  16
ENDBRANCH  10  13
ENDBRANCH   7  10
ENDBRANCH   4   7
ENDBRANCH   1   4
BRANCH   1  40
ATOM     40  C24 DEQ d   1     -66.317 -46.806   8.801  0.00  0.00    -0.065 C 
ATOM     41  H23 DEQ d   1     -66.434 -47.690   8.157  0.00  0.00     0.033 H 
ATOM     42  H24 DEQ d   1     -66.793 -45.938   8.322  0.00  0.00     0.033 H 
BRANCH  40  43
ATOM     43  C25 DEQ d   1     -67.035 -47.075  10.099  0.00  0.00    -0.065 C 
ATOM     44  H25 DEQ d   1     -66.949 -46.194  10.752  0.00  0.00     0.033 H 
ATOM     45  H26 DEQ d   1     -66.579 -47.945  10.594  0.00  0.00     0.033 H 
BRANCH  43  46
ATOM     46  C26 DEQ d   1     -68.507 -47.362   9.831  0.00  0.00    -0.064 C 
ATOM     47  H27 DEQ d   1     -68.763 -46.440   9.288  0.00  0.00     0.033 H 
ATOM     48  H28 DEQ d   1     -68.883 -47.296  10.863  0.00  0.00     0.033 H 
BRANCH  46  49
ATOM     49  C27 DEQ d   1     -69.585 -48.288   9.246  0.00  0.00    -0.050 C 
ATOM     50  H29 DEQ d   1     -69.376 -49.325   9.548  0.00  0.00     0.035 H 
ATOM     51  H30 DEQ d   1     -69.569 -48.216   8.149  0.00  0.00     0.035 H 
BRANCH  49  52
ATOM     52  C28 DEQ d   1     -70.984 -47.877   9.765  0.00  0.00    -0.004 C 
ATOM     53  H31 DEQ d   1     -70.909 -47.903  10.862  0.00  0.00     0.064 H 
ATOM     54  H32 DEQ d   1     -71.128 -46.839   9.431  0.00  0.00     0.064 H 
BRANCH  52  55
ATOM     55  N1  DEQ d   1     -72.325 -48.619   9.418  0.00  0.00    -0.372 N 
ATOM     56  C5  DEQ d   1     -72.517 -49.889   8.497  0.00  0.00     0.043 A 
ATOM     57  C1  DEQ d   1     -71.465 -50.601   7.769  0.00  0.00    -0.056 A 
ATOM     58  C6  DEQ d   1     -73.892 -50.424   8.346  0.00  0.00     0.016 A 
ATOM     59  C2  DEQ d   1     -71.719 -51.753   6.950  0.00  0.00    -0.081 A 
ATOM     60  H1  DEQ d   1     -70.446 -50.241   7.852  0.00  0.00     0.086 H 
ATOM     61  C3  DEQ d   1     -73.051 -52.253   6.824  0.00  0.00    -0.082 A 
ATOM     62  H2  DEQ d   1     -70.903 -52.241   6.429  0.00  0.00     0.083 H 
ATOM     63  C4  DEQ d   1     -74.124 -51.598   7.514  0.00  0.00    -0.069 A 
ATOM     64  H3  DEQ d   1     -73.250 -53.124   6.210  0.00  0.00     0.083 H 
ATOM     65  H4  DEQ d   1     -75.132 -51.985   7.414  0.00  0.00     0.085 H 
ATOM     66  C7  DEQ d   1     -74.995 -49.787   9.027  0.00  0.00     0.036 A 
ATOM     67  C8  DEQ d   1     -74.790 -48.639   9.842  0.00  0.00    -0.056 A 
ATOM     68  C9  DEQ d   1     -73.535 -48.033  10.070  0.00  0.00     0.027 A 
ATOM     69  H5  DEQ d   1     -75.661 -48.197  10.323  0.00  0.00     0.083 H 
ATOM     70  H6  DEQ d   1     -73.664 -47.374   9.199  0.00  0.00     0.078 H 
BRANCH  66  71
ATOM     71  N4  DEQ d   1     -76.360 -50.232   8.948  0.00  0.00    -0.399 N 
ATOM     72  H39 DEQ d   1     -76.601 -51.057   8.380  0.00  0.00     0.156 HD
ATOM     73  H40 DEQ d   1     -77.097 -49.726   9.460  0.00  0.00     0.156 HD
ENDBRANCH  66  71
BRANCH  68  74
ATOM     74  C30 DEQ d   1     -73.565 -46.791  11.008  0.00  0.00    -0.054 C 
ATOM     75  H33 DEQ d   1     -74.599 -46.601  11.332  0.00  0.00     0.030 H 
ATOM     76  H34 DEQ d   1     -73.183 -45.913  10.466  0.00  0.00     0.030 H 
ATOM     77  H35 DEQ d   1     -72.934 -46.981  11.889  0.00  0.00     0.030 H 
ENDBRANCH  68  74
ENDBRANCH  52  55
ENDBRANCH  49  52
ENDBRANCH  46  49
ENDBRANCH  43  46
ENDBRANCH  40  43
ENDBRANCH   1  40
TORSDOF 15
