REMARK  9 active torsions:
REMARK  status: ('A' for Active; 'I' for Inactive)
REMARK    1  A    between atoms: C1_1  and  C2_2 
REMARK    2  A    between atoms: C1_1  and  C8_8 
REMARK    3  A    between atoms: C1_1  and  C14_14 
REMARK    4  A    between atoms: C11_11  and  N2_24 
REMARK    5  A    between atoms: C17_17  and  N3_25 
REMARK    6  A    between atoms: N2_24  and  C22_20 
REMARK    7  A    between atoms: N2_24  and  C23_21 
REMARK    8  A    between atoms: N3_25  and  C24_22 
REMARK    9  A    between atoms: N3_25  and  C25_23 
ROOT
ATOM      1  C1  MGR d   1     -70.336 -46.328   5.950  0.00  0.00     0.022 C 
ATOM      2  H1  MGR d   1     -70.984 -46.272   5.063  0.00  0.00     0.062 H 
ENDROOT
BRANCH   1   3
ATOM      3  C2  MGR d   1     -70.832 -47.732   6.258  0.00  0.00    -0.045 A 
ATOM      4  C3  MGR d   1     -70.974 -48.234   7.635  0.00  0.00    -0.076 A 
ATOM      5  C4  MGR d   1     -71.430 -49.587   7.917  0.00  0.00    -0.082 A 
ATOM      6  H2  MGR d   1     -70.732 -47.577   8.462  0.00  0.00     0.084 H 
ATOM      7  C5  MGR d   1     -71.778 -50.512   6.815  0.00  0.00    -0.083 A 
ATOM      8  H3  MGR d   1     -71.516 -49.921   8.945  0.00  0.00     0.083 H 
ATOM      9  C6  MGR d   1     -71.653 -50.026   5.439  0.00  0.00    -0.082 A 
ATOM     10  H4  MGR d   1     -72.116 -51.521   7.021  0.00  0.00     0.083 H 
ATOM     11  C7  MGR d   1     -71.199 -48.672   5.180  0.00  0.00    -0.076 A 
ATOM     12  H5  MGR d   1     -71.900 -50.680   4.611  0.00  0.00     0.083 H 
ATOM     13  H6  MGR d   1     -71.126 -48.337   4.152  0.00  0.00     0.084 H 
ENDBRANCH   1   3
BRANCH   1  14
ATOM     14  C8  MGR d   1     -69.087 -46.089   5.050  0.00  0.00    -0.045 A 
ATOM     15  C9  MGR d   1     -68.073 -47.216   4.834  0.00  0.00    -0.074 A 
ATOM     16  C10 MGR d   1     -66.893 -47.106   4.008  0.00  0.00    -0.057 A 
ATOM     17  H7  MGR d   1     -68.253 -48.160   5.335  0.00  0.00     0.084 H 
ATOM     18  C11 MGR d   1     -66.595 -45.809   3.310  0.00  0.00     0.029 A 
ATOM     19  H8  MGR d   1     -66.227 -47.953   3.892  0.00  0.00     0.086 H 
ATOM     20  C12 MGR d   1     -67.577 -44.626   3.504  0.00  0.00    -0.057 A 
ATOM     21  C13 MGR d   1     -68.775 -44.781   4.358  0.00  0.00    -0.074 A 
ATOM     22  H9  MGR d   1     -67.385 -43.680   3.011  0.00  0.00     0.086 H 
ATOM     23  H10 MGR d   1     -69.444 -43.938   4.491  0.00  0.00     0.084 H 
BRANCH  18  24
ATOM     24  N2  MGR d   1     -65.456 -45.713   2.459  0.00  0.00    -0.390 N 
BRANCH  24  25
ATOM     25  C22 MGR d   1     -65.143 -44.395   1.715  0.00  0.00    -0.019 C 
ATOM     26  H15 MGR d   1     -64.231 -44.521   1.114  0.00  0.00     0.056 H 
ATOM     27  H16 MGR d   1     -64.991 -43.588   2.447  0.00  0.00     0.056 H 
ATOM     28  H17 MGR d   1     -65.984 -44.138   1.055  0.00  0.00     0.056 H 
ENDBRANCH  24  25
BRANCH  24  29
ATOM     29  C23 MGR d   1     -64.476 -46.864   2.197  0.00  0.00    -0.019 C 
ATOM     30  H18 MGR d   1     -64.788 -47.749   2.771  0.00  0.00     0.056 H 
ATOM     31  H19 MGR d   1     -63.465 -46.563   2.509  0.00  0.00     0.056 H 
ATOM     32  H20 MGR d   1     -64.472 -47.105   1.124  0.00  0.00     0.056 H 
ENDBRANCH  24  29
ENDBRANCH  18  24
ENDBRANCH   1  14
BRANCH   1  33
ATOM     33  C14 MGR d   1     -71.070 -45.217   6.585  0.00  0.00    -0.045 A 
ATOM     34  C15 MGR d   1     -70.353 -44.286   7.475  0.00  0.00    -0.074 A 
ATOM     35  C16 MGR d   1     -71.039 -43.205   8.110  0.00  0.00    -0.057 A 
ATOM     36  H11 MGR d   1     -69.292 -44.423   7.650  0.00  0.00     0.084 H 
ATOM     37  C17 MGR d   1     -72.441 -43.015   7.863  0.00  0.00     0.029 A 
ATOM     38  H12 MGR d   1     -70.505 -42.534   8.773  0.00  0.00     0.086 H 
ATOM     39  C18 MGR d   1     -73.176 -43.922   7.000  0.00  0.00    -0.057 A 
ATOM     40  C19 MGR d   1     -72.497 -44.987   6.375  0.00  0.00    -0.074 A 
ATOM     41  H13 MGR d   1     -74.239 -43.781   6.838  0.00  0.00     0.086 H 
ATOM     42  H14 MGR d   1     -73.048 -45.653   5.721  0.00  0.00     0.084 H 
BRANCH  37  43
ATOM     43  N3  MGR d   1     -73.091 -42.000   8.421  0.00  0.00    -0.390 N 
BRANCH  43  44
ATOM     44  C24 MGR d   1     -73.294 -41.831   9.906  0.00  0.00    -0.019 C 
ATOM     45  H21 MGR d   1     -73.863 -40.909  10.096  0.00  0.00     0.056 H 
ATOM     46  H22 MGR d   1     -72.316 -41.767  10.405  0.00  0.00     0.056 H 
ATOM     47  H23 MGR d   1     -73.851 -42.693  10.300  0.00  0.00     0.056 H 
ENDBRANCH  43  44
BRANCH  43  48
ATOM     48  C25 MGR d   1     -73.729 -40.943   7.532  0.00  0.00    -0.019 C 
ATOM     49  H24 MGR d   1     -73.513 -41.172   6.478  0.00  0.00     0.056 H 
ATOM     50  H25 MGR d   1     -73.317 -39.955   7.784  0.00  0.00     0.056 H 
ATOM     51  H26 MGR d   1     -74.817 -40.938   7.691  0.00  0.00     0.056 H 
ENDBRANCH  43  48
ENDBRANCH  37  43
ENDBRANCH   1  33
TORSDOF 9
