REMARK WARNING: 32 MAX_TORS EXCEEDED!!!
REMARK  74 active torsions:
REMARK  status: ('A' for Active; 'I' for Inactive)
REMARK    1  A    between atoms: CA_2  and  N_1 
REMARK    2  A    between atoms: CA_2  and  CB_5 
REMARK    3  A    between atoms: C_3  and  CA_2 
REMARK       I    between atoms: N_10  and  C_3 
REMARK    4  A    between atoms: CB_5  and  CG_6 
REMARK    5  A    between atoms: CG_6  and  CD_7 
REMARK    6  A    between atoms: CA_11  and  N_10 
REMARK    7  A    between atoms: CA_11  and  CB_14 
REMARK    8  A    between atoms: C_12  and  CA_11 
REMARK       I    between atoms: N_15  and  C_12 
REMARK    9  A    between atoms: CA_16  and  N_15 
REMARK   10  A    between atoms: C_17  and  CA_16 
REMARK       I    between atoms: N_19  and  C_17 
REMARK   11  A    between atoms: CA_20  and  N_19 
REMARK   12  A    between atoms: CA_20  and  CB_23 
REMARK   13  A    between atoms: C_21  and  CA_20 
REMARK       I    between atoms: N_27  and  C_21 
REMARK   14  A    between atoms: CB_23  and  CG_24 
REMARK   15  A    between atoms: CG_24  and  SD_25 
REMARK   16  A    between atoms: SD_25  and  CE_26 
REMARK   17  A    between atoms: CA_28  and  N_27 
REMARK   18  A    between atoms: CA_28  and  CB_31 
REMARK   19  A    between atoms: C_29  and  CA_28 
REMARK       I    between atoms: N_34  and  C_29 
REMARK   20  A    between atoms: CB_31  and  CG2_33 
REMARK   21  A    between atoms: CB_31  and  OG1_32 
REMARK   22  A    between atoms: CA_35  and  N_34 
REMARK   23  A    between atoms: CA_35  and  CB_38 
REMARK   24  A    between atoms: C_36  and  CA_35 
REMARK       I    between atoms: N_42  and  C_36 
REMARK   25  A    between atoms: CB_38  and  CG_39 
REMARK   26  A    between atoms: CG_39  and  CD1_40 
REMARK   27  A    between atoms: CG_39  and  CD2_41 
REMARK   28  A    between atoms: CA_43  and  N_42 
REMARK   29  A    between atoms: C_44  and  CA_43 
REMARK       I    between atoms: N_46  and  C_44 
REMARK   30  A    between atoms: CA_47  and  N_46 
REMARK   31  A    between atoms: CA_47  and  CB_50 
REMARK   32  A    between atoms: C_48  and  CA_47 
REMARK       I    between atoms: N_51  and  C_48 
REMARK   33  A    between atoms: CA_52  and  N_51 
REMARK   34  A    between atoms: CA_52  and  CB_55 
REMARK   35  A    between atoms: C_53  and  CA_52 
REMARK       I    between atoms: N_62  and  C_53 
REMARK   36  A    between atoms: CB_55  and  CG_56 
REMARK   37  A    between atoms: CG_56  and  CD_57 
REMARK   38  A    between atoms: CD_57  and  NE_58 
REMARK       I    between atoms: NE_58  and  CZ_59 
REMARK       I    between atoms: CZ_59  and  NH1_60 
REMARK   39  A    between atoms: CA_63  and  N_62 
REMARK   40  A    between atoms: CA_63  and  CB_66 
REMARK   41  A    between atoms: C_64  and  CA_63 
REMARK       I    between atoms: N_71  and  C_64 
REMARK   42  A    between atoms: CB_66  and  CG_67 
REMARK   43  A    between atoms: CG_67  and  CD_68 
REMARK   44  A    between atoms: CD_68  and  CE_69 
REMARK   45  A    between atoms: CE_69  and  NZ_70 
REMARK   46  A    between atoms: CA_72  and  N_71 
REMARK   47  A    between atoms: CA_72  and  CB_75 
REMARK   48  A    between atoms: C_73  and  CA_72 
REMARK       I    between atoms: N_79  and  C_73 
REMARK   49  A    between atoms: CB_75  and  CG_76 
REMARK   50  A    between atoms: CG_76  and  CD1_77 
REMARK   51  A    between atoms: CG_76  and  CD2_78 
REMARK   52  A    between atoms: CA_80  and  N_79 
REMARK   53  A    between atoms: CA_80  and  CB_83 
REMARK   54  A    between atoms: C_81  and  CA_80 
REMARK       I    between atoms: N_88  and  C_81 
REMARK   55  A    between atoms: CB_83  and  CG_84 
REMARK   56  A    between atoms: CG_84  and  CD_85 
REMARK   57  A    between atoms: CD_85  and  CE_86 
REMARK   58  A    between atoms: CE_86  and  NZ_87 
REMARK   59  A    between atoms: CA_89  and  N_88 
REMARK   60  A    between atoms: CA_89  and  CB_92 
REMARK   61  A    between atoms: C_90  and  CA_89 
REMARK       I    between atoms: N_97  and  C_90 
REMARK   62  A    between atoms: CB_92  and  CG_93 
REMARK   63  A    between atoms: CG_93  and  CD_94 
REMARK   64  A    between atoms: CD_94  and  CE_95 
REMARK   65  A    between atoms: CE_95  and  NZ_96 
REMARK   66  A    between atoms: CA_98  and  N_97 
REMARK   67  A    between atoms: CA_98  and  CB_101 
REMARK   68  A    between atoms: C_99  and  CA_98 
REMARK       I    between atoms: C_99  and  N_105 
REMARK   69  A    between atoms: CB_101  and  CG_102 
REMARK   70  A    between atoms: CG_102  and  CD1_103 
REMARK   71  A    between atoms: CG_102  and  CD2_104 
REMARK   72  A    between atoms: N_105  and  CA_106 
REMARK   73  A    between atoms: CA_106  and  C_107 
REMARK   74  A    between atoms: C_107  and  O1_109 
ROOT
ATOM      1  CA  ARG d   1      40.950  78.661  53.386  0.00  0.00     0.089 C 
ATOM      2  H53 ARG d   1      41.214  77.714  53.880  0.00  0.00     0.087 H 
ENDROOT
BRANCH   1   3
ATOM      3  N   ARG d   1      39.551  78.555  52.925  0.00  0.00    -0.346 N 
ATOM      4  C   ALA d   1      38.554  78.189  53.741  0.00  0.00     0.240 C 
ATOM      5  O   ALA d   1      38.720  77.887  54.912  0.00  0.00    -0.271 OA
ATOM      6  H52 ARG d   1      39.341  78.764  51.970  0.00  0.00     0.163 HD
BRANCH   4   7
ATOM      7  CA  ALA d   1      37.145  78.176  53.151  0.00  0.00     0.086 C 
ATOM      8  H48 ALA d   1      37.250  78.236  52.058  0.00  0.00     0.086 H 
BRANCH   7   9
ATOM      9  N   ALA d   1      36.377  76.939  53.444  0.00  0.00    -0.347 N 
ATOM     10  C   GLY d   1      36.695  75.764  52.894  0.00  0.00     0.236 C 
ATOM     11  O   GLY d   1      37.791  75.537  52.429  0.00  0.00    -0.272 OA
ATOM     12  H47 ALA d   1      35.599  76.987  54.071  0.00  0.00     0.163 HD
BRANCH  10  13
ATOM     13  CA  GLY d   1      35.655  74.668  52.869  0.00  0.00     0.069 C 
ATOM     14  H45 GLY d   1      35.904  73.966  52.059  0.00  0.00     0.078 H 
ATOM     15  H46 GLY d   1      35.680  74.139  53.833  0.00  0.00     0.078 H 
BRANCH  13  16
ATOM     16  N   GLY d   1      34.303  75.171  52.649  0.00  0.00    -0.351 N 
ATOM     17  C   LEU d   1      33.583  75.477  53.715  0.00  0.00     0.240 C 
ATOM     18  O   LEU d   1      34.079  75.413  54.851  0.00  0.00    -0.271 OA
ATOM     19  H44 GLY d   1      33.934  75.280  51.726  0.00  0.00     0.163 HD
BRANCH  17  20
ATOM     20  CA  LEU d   1      32.102  75.871  53.559  0.00  0.00     0.089 C 
ATOM     21  H34 LEU d   1      31.500  74.955  53.462  0.00  0.00     0.087 H 
BRANCH  20  22
ATOM     22  N   LEU d   1      31.802  76.527  54.817  0.00  0.00    -0.346 N 
ATOM     23  C   THR d   1      32.536  77.542  55.278  0.00  0.00     0.243 C 
ATOM     24  O   THR d   1      33.283  78.216  54.571  0.00  0.00    -0.271 OA
ATOM     25  H33 LEU d   1      31.021  76.209  55.355  0.00  0.00     0.163 HD
BRANCH  23  26
ATOM     26  CA  THR d   1      32.385  77.856  56.758  0.00  0.00     0.113 C 
ATOM     27  H27 THR d   1      32.449  78.944  56.909  0.00  0.00     0.091 H 
BRANCH  26  28
ATOM     28  N   THR d   1      31.088  77.395  57.224  0.00  0.00    -0.344 N 
ATOM     29  C   MET d   1      29.950  77.949  56.815  0.00  0.00     0.241 C 
ATOM     30  O   MET d   1      29.897  78.862  55.991  0.00  0.00    -0.271 OA
ATOM     31  H26 THR d   1      31.050  76.636  57.874  0.00  0.00     0.163 HD
BRANCH  29  32
ATOM     32  CA  MET d   1      28.682  77.400  57.449  0.00  0.00     0.090 C 
ATOM     33  H18 MET d   1      28.961  76.746  58.288  0.00  0.00     0.087 H 
BRANCH  32  34
ATOM     34  N   MET d   1      27.911  78.524  57.960  0.00  0.00    -0.346 N 
ATOM     35  C   GLY d   1      28.072  78.996  59.194  0.00  0.00     0.236 C 
ATOM     36  O   GLY d   1      28.801  78.485  60.044  0.00  0.00    -0.272 OA
ATOM     37  H17 MET d   1      27.236  78.957  57.362  0.00  0.00     0.163 HD
BRANCH  35  38
ATOM     38  CA  GLY d   1      27.257  80.214  59.518  0.00  0.00     0.069 C 
ATOM     39  H15 GLY d   1      27.702  80.747  60.371  0.00  0.00     0.078 H 
ATOM     40  H16 GLY d   1      27.219  80.883  58.646  0.00  0.00     0.078 H 
BRANCH  38  41
ATOM     41  N   GLY d   1      25.922  79.767  59.856  0.00  0.00    -0.351 N 
ATOM     42  C   ALA d   1      25.226  80.334  60.827  0.00  0.00     0.240 C 
ATOM     43  O   ALA d   1      25.643  81.286  61.490  0.00  0.00    -0.271 OA
ATOM     44  H14 GLY d   1      25.516  79.011  59.343  0.00  0.00     0.163 HD
BRANCH  42  45
ATOM     45  CA  ALA d   1      23.856  79.738  61.084  0.00  0.00     0.086 C 
ATOM     46  H10 ALA d   1      23.961  78.662  61.288  0.00  0.00     0.086 H 
BRANCH  45  47
ATOM     47  N   ALA d   1      23.287  80.394  62.255  0.00  0.00    -0.346 N 
ATOM     48  C   GLU d   1      23.307  79.820  63.450  0.00  0.00     0.248 C 
ATOM     49  O   GLU d   1      23.679  78.665  63.620  0.00  0.00    -0.271 OA
ATOM     50  H9  ALA d   1      22.872  81.298  62.155  0.00  0.00     0.163 HD
BRANCH  48  51
ATOM     51  CA  GLU d   1      22.817  80.659  64.626  0.00  0.00     0.176 C 
ATOM     52  H4  GLU d   1      22.567  81.669  64.269  0.00  0.00     0.099 H 
BRANCH  51  53
ATOM     53  N   GLU d   1      21.593  80.035  65.208  0.00  0.00    -0.066 N 
ATOM     54  H1  GLU d   1      21.270  80.590  65.985  0.00  0.00     0.275 HD
ATOM     55  H2  GLU d   1      21.810  79.104  65.528  0.00  0.00     0.275 HD
ATOM     56  H3  GLU d   1      20.872  79.990  64.505  0.00  0.00     0.275 HD
ENDBRANCH  51  53
BRANCH  51  57
ATOM     57  CB  GLU d   1      23.929  80.765  65.679  0.00  0.00    -0.021 C 
ATOM     58  H5  GLU d   1      24.682  81.479  65.313  0.00  0.00     0.037 H 
ATOM     59  H6  GLU d   1      24.390  79.773  65.793  0.00  0.00     0.037 H 
BRANCH  57  60
ATOM     60  CG  GLU d   1      23.459  81.233  67.056  0.00  0.00     0.018 C 
ATOM     61  H7  GLU d   1      22.612  80.604  67.368  0.00  0.00     0.049 H 
ATOM     62  H8  GLU d   1      23.129  82.279  66.975  0.00  0.00     0.049 H 
BRANCH  60  63
ATOM     63  CD  GLU d   1      24.542  81.149  68.123  0.00  0.00     0.172 C 
ATOM     64  OE2 GLU d   1      24.361  81.775  69.190  0.00  0.00    -0.648 OA
ATOM     65  OE1 GLU d   1      25.563  80.459  67.907  0.00  0.00    -0.648 OA
ENDBRANCH  60  63
ENDBRANCH  57  60
ENDBRANCH  51  57
ENDBRANCH  48  51
ENDBRANCH  45  47
BRANCH  45  66
ATOM     66  CB  ALA d   1      22.956  79.918  59.864  0.00  0.00    -0.049 C 
ATOM     67  H11 ALA d   1      23.409  79.414  58.997  0.00  0.00     0.030 H 
ATOM     68  H12 ALA d   1      22.843  80.990  59.647  0.00  0.00     0.030 H 
ATOM     69  H13 ALA d   1      21.968  79.479  60.069  0.00  0.00     0.030 H 
ENDBRANCH  45  66
ENDBRANCH  42  45
ENDBRANCH  38  41
ENDBRANCH  35  38
ENDBRANCH  32  34
BRANCH  32  70
ATOM     70  CB  MET d   1      27.851  76.574  56.451  0.00  0.00    -0.030 C 
ATOM     71  H19 MET d   1      28.532  75.931  55.874  0.00  0.00     0.037 H 
ATOM     72  H20 MET d   1      27.332  77.264  55.770  0.00  0.00     0.037 H 
BRANCH  70  73
ATOM     73  CG  MET d   1      26.807  75.688  57.138  0.00  0.00    -0.021 C 
ATOM     74  H21 MET d   1      25.983  75.524  56.428  0.00  0.00     0.049 H 
ATOM     75  H22 MET d   1      26.431  76.229  58.019  0.00  0.00     0.049 H 
BRANCH  73  76
ATOM     76  SD  MET d   1      27.397  74.065  57.691  0.00  0.00    -0.173 SA
BRANCH  76  77
ATOM     77  CE  MET d   1      29.192  74.215  57.592  0.00  0.00    -0.035 C 
ATOM     78  H23 MET d   1      29.657  73.270  57.911  0.00  0.00     0.041 H 
ATOM     79  H24 MET d   1      29.529  75.030  58.250  0.00  0.00     0.041 H 
ATOM     80  H25 MET d   1      29.485  74.436  56.555  0.00  0.00     0.041 H 
ENDBRANCH  76  77
ENDBRANCH  73  76
ENDBRANCH  70  73
ENDBRANCH  32  70
ENDBRANCH  29  32
ENDBRANCH  26  28
BRANCH  26  81
ATOM     81  CB  THR d   1      33.546  77.172  57.526  0.00  0.00     0.060 C 
ATOM     82  H28 THR d   1      34.004  76.410  56.878  0.00  0.00     0.086 H 
BRANCH  81  83
ATOM     83  CG2 THR d   1      34.581  78.187  57.905  0.00  0.00    -0.050 C 
ATOM     84  H30 THR d   1      35.399  77.691  58.449  0.00  0.00     0.031 H 
ATOM     85  H31 THR d   1      34.125  78.953  58.549  0.00  0.00     0.031 H 
ATOM     86  H32 THR d   1      34.980  78.661  56.996  0.00  0.00     0.031 H 
ENDBRANCH  81  83
BRANCH  81  87
ATOM     87  OG1 THR d   1      33.055  76.546  58.716  0.00  0.00    -0.393 OA
ATOM     88  H29 THR d   1      33.774  76.120  59.168  0.00  0.00     0.210 HD
ENDBRANCH  81  87
ENDBRANCH  26  81
ENDBRANCH  23  26
ENDBRANCH  20  22
BRANCH  20  89
ATOM     89  CB  LEU d   1      31.752  76.778  52.360  0.00  0.00    -0.035 C 
ATOM     90  H35 LEU d   1      31.997  76.241  51.432  0.00  0.00     0.037 H 
ATOM     91  H36 LEU d   1      32.359  77.693  52.425  0.00  0.00     0.037 H 
BRANCH  89  92
ATOM     92  CG  LEU d   1      30.257  77.181  52.316  0.00  0.00    -0.059 C 
ATOM     93  H37 LEU d   1      30.020  77.663  53.276  0.00  0.00     0.038 H 
BRANCH  92  94
ATOM     94  CD1 LEU d   1      29.975  78.196  51.208  0.00  0.00    -0.073 C 
ATOM     95  H38 LEU d   1      28.906  78.455  51.211  0.00  0.00     0.028 H 
ATOM     96  H39 LEU d   1      30.244  77.760  50.234  0.00  0.00     0.028 H 
ATOM     97  H40 LEU d   1      30.572  79.103  51.381  0.00  0.00     0.028 H 
ENDBRANCH  92  94
BRANCH  92  98
ATOM     98  CD2 LEU d   1      29.338  75.960  52.174  0.00  0.00    -0.073 C 
ATOM     99  H41 LEU d   1      29.555  75.242  52.979  0.00  0.00     0.028 H 
ATOM    100  H42 LEU d   1      29.512  75.482  51.199  0.00  0.00     0.028 H 
ATOM    101  H43 LEU d   1      28.288  76.281  52.243  0.00  0.00     0.028 H 
ENDBRANCH  92  98
ENDBRANCH  89  92
ENDBRANCH  20  89
ENDBRANCH  17  20
ENDBRANCH  13  16
ENDBRANCH  10  13
ENDBRANCH   7   9
BRANCH   7 102
ATOM    102  CB  ALA d   1      36.382  79.417  53.615  0.00  0.00    -0.049 C 
ATOM    103  H49 ALA d   1      36.972  80.317  53.386  0.00  0.00     0.030 H 
ATOM    104  H50 ALA d   1      36.210  79.357  54.700  0.00  0.00     0.030 H 
ATOM    105  H51 ALA d   1      35.415  79.470  53.093  0.00  0.00     0.030 H 
ENDBRANCH   7 102
ENDBRANCH   4   7
ENDBRANCH   1   3
BRANCH   1 106
ATOM    106  CB  ARG d   1      41.938  78.883  52.224  0.00  0.00    -0.036 C 
ATOM    107  H54 ARG d   1      42.962  78.875  52.626  0.00  0.00     0.036 H 
ATOM    108  H55 ARG d   1      41.731  79.862  51.768  0.00  0.00     0.036 H 
BRANCH 106 109
ATOM    109  CG  ARG d   1      41.831  77.823  51.158  0.00  0.00    -0.048 C 
ATOM    110  H56 ARG d   1      41.021  78.116  50.474  0.00  0.00     0.035 H 
ATOM    111  H57 ARG d   1      41.569  76.876  51.652  0.00  0.00     0.035 H 
BRANCH 109 112
ATOM    112  CD  ARG d   1      43.092  77.578  50.313  0.00  0.00     0.009 C 
ATOM    113  H58 ARG d   1      43.916  77.246  50.961  0.00  0.00     0.064 H 
ATOM    114  H59 ARG d   1      43.382  78.506  49.798  0.00  0.00     0.064 H 
BRANCH 112 115
ATOM    115  NE  ARG d   1      42.785  76.533  49.322  0.00  0.00    -0.227 N 
ATOM    116  CZ  ARG d   1      43.463  76.274  48.200  0.00  0.00     0.665 C 
ATOM    117  NH2 ARG d   1      43.038  75.296  47.404  0.00  0.00    -0.235 N 
ATOM    118  NH1 ARG d   1      44.551  76.965  47.856  0.00  0.00    -0.235 N 
ATOM    119  H63 ARG d   1      42.199  74.754  47.657  0.00  0.00     0.174 HD
ATOM    120  H64 ARG d   1      43.548  75.081  46.535  0.00  0.00     0.174 HD
ATOM    121  H61 ARG d   1      45.050  76.739  46.984  0.00  0.00     0.174 HD
ATOM    122  H62 ARG d   1      44.892  77.724  48.463  0.00  0.00     0.174 HD
ATOM    123  H60 ARG d   1      41.964  75.941  49.513  0.00  0.00     0.177 HD
ENDBRANCH 112 115
ENDBRANCH 109 112
ENDBRANCH 106 109
ENDBRANCH   1 106
BRANCH   1 124
ATOM    124  C   ARG d   1      41.096  79.783  54.396  0.00  0.00     0.241 C 
ATOM    125  O   ARG d   1      41.733  79.600  55.426  0.00  0.00    -0.271 OA
ATOM    126  N   LYS d   1      40.495  80.937  54.107  0.00  0.00    -0.346 N 
ATOM    127  H65 LYS d   1      39.988  81.020  53.249  0.00  0.00     0.163 HD
BRANCH 126 128
ATOM    128  CA  LYS d   1      40.558  82.083  55.010  0.00  0.00     0.089 C 
ATOM    129  H66 LYS d   1      40.964  81.733  55.970  0.00  0.00     0.087 H 
BRANCH 128 130
ATOM    130  CB  LYS d   1      41.525  83.142  54.446  0.00  0.00    -0.038 C 
ATOM    131  H67 LYS d   1      41.426  84.058  55.048  0.00  0.00     0.036 H 
ATOM    132  H68 LYS d   1      41.239  83.354  53.405  0.00  0.00     0.036 H 
BRANCH 130 133
ATOM    133  CG  LYS d   1      43.004  82.705  54.464  0.00  0.00    -0.061 C 
ATOM    134  H69 LYS d   1      43.063  81.653  54.148  0.00  0.00     0.033 H 
ATOM    135  H70 LYS d   1      43.386  82.801  55.491  0.00  0.00     0.033 H 
BRANCH 133 136
ATOM    136  CD  LYS d   1      43.882  83.540  53.539  0.00  0.00    -0.043 C 
ATOM    137  H71 LYS d   1      43.791  84.600  53.818  0.00  0.00     0.035 H 
ATOM    138  H72 LYS d   1      43.542  83.404  52.502  0.00  0.00     0.035 H 
BRANCH 136 139
ATOM    139  CE  LYS d   1      45.362  83.116  53.644  0.00  0.00     0.080 C 
ATOM    140  H73 LYS d   1      45.414  82.026  53.502  0.00  0.00     0.075 H 
ATOM    141  H74 LYS d   1      45.718  83.372  54.653  0.00  0.00     0.075 H 
BRANCH 139 142
ATOM    142  NZ  LYS d   1      46.290  83.761  52.645  0.00  0.00    -0.079 N 
ATOM    143  H75 LYS d   1      47.228  83.424  52.792  0.00  0.00     0.274 HD
ATOM    144  H76 LYS d   1      46.270  84.762  52.765  0.00  0.00     0.274 HD
ATOM    145  H77 LYS d   1      45.992  83.529  51.711  0.00  0.00     0.274 HD
ENDBRANCH 139 142
ENDBRANCH 136 139
ENDBRANCH 133 136
ENDBRANCH 130 133
ENDBRANCH 128 130
BRANCH 128 146
ATOM    146  C   LYS d   1      39.164  82.671  55.286  0.00  0.00     0.241 C 
ATOM    147  O   LYS d   1      38.258  82.614  54.444  0.00  0.00    -0.271 OA
ATOM    148  N   LEU d   1      39.000  83.200  56.493  0.00  0.00    -0.346 N 
ATOM    149  H78 LEU d   1      39.776  83.190  57.124  0.00  0.00     0.163 HD
BRANCH 148 150
ATOM    150  CA  LEU d   1      37.738  83.799  56.950  0.00  0.00     0.089 C 
ATOM    151  H79 LEU d   1      37.057  83.886  56.090  0.00  0.00     0.087 H 
BRANCH 150 152
ATOM    152  CB  LEU d   1      37.051  82.956  58.041  0.00  0.00    -0.035 C 
ATOM    153  H80 LEU d   1      36.327  83.614  58.544  0.00  0.00     0.037 H 
ATOM    154  H81 LEU d   1      37.834  82.659  58.755  0.00  0.00     0.037 H 
BRANCH 152 155
ATOM    155  CG  LEU d   1      36.295  81.676  57.651  0.00  0.00    -0.059 C 
ATOM    156  H82 LEU d   1      37.033  80.922  57.338  0.00  0.00     0.038 H 
BRANCH 155 157
ATOM    157  CD1 LEU d   1      35.547  81.142  58.894  0.00  0.00    -0.073 C 
ATOM    158  H83 LEU d   1      35.001  80.225  58.628  0.00  0.00     0.028 H 
ATOM    159  H84 LEU d   1      34.835  81.902  59.248  0.00  0.00     0.028 H 
ATOM    160  H85 LEU d   1      36.272  80.919  59.691  0.00  0.00     0.028 H 
ENDBRANCH 155 157
BRANCH 155 161
ATOM    161  CD2 LEU d   1      35.328  81.904  56.473  0.00  0.00    -0.073 C 
ATOM    162  H86 LEU d   1      35.889  82.283  55.606  0.00  0.00     0.028 H 
ATOM    163  H87 LEU d   1      34.562  82.638  56.764  0.00  0.00     0.028 H 
ATOM    164  H88 LEU d   1      34.842  80.953  56.208  0.00  0.00     0.028 H 
ENDBRANCH 155 161
ENDBRANCH 152 155
ENDBRANCH 150 152
BRANCH 150 165
ATOM    165  C   LEU d   1      38.023  85.178  57.509  0.00  0.00     0.241 C 
ATOM    166  O   LEU d   1      38.844  85.324  58.408  0.00  0.00    -0.271 OA
ATOM    167  N   LYS d   1      37.351  86.177  56.950  0.00  0.00    -0.346 N 
ATOM    168  H89 LYS d   1      36.775  85.976  56.157  0.00  0.00     0.163 HD
BRANCH 167 169
ATOM    169  CA  LYS d   1      37.408  87.550  57.430  0.00  0.00     0.089 C 
ATOM    170  H90 LYS d   1      38.400  87.774  57.849  0.00  0.00     0.087 H 
BRANCH 169 171
ATOM    171  CB  LYS d   1      37.124  88.478  56.253  0.00  0.00    -0.038 C 
ATOM    172  H91 LYS d   1      36.213  88.111  55.758  0.00  0.00     0.036 H 
ATOM    173  H92 LYS d   1      37.975  88.398  55.560  0.00  0.00     0.036 H 
BRANCH 171 174
ATOM    174  CG  LYS d   1      36.916  89.953  56.546  0.00  0.00    -0.061 C 
ATOM    175  H93 LYS d   1      37.819  90.377  57.009  0.00  0.00     0.033 H 
ATOM    176  H94 LYS d   1      36.060  90.086  57.224  0.00  0.00     0.033 H 
BRANCH 174 177
ATOM    177  CD  LYS d   1      36.639  90.643  55.208  0.00  0.00    -0.043 C 
ATOM    178  H95 LYS d   1      35.776  90.148  54.739  0.00  0.00     0.035 H 
ATOM    179  H96 LYS d   1      37.525  90.519  54.568  0.00  0.00     0.035 H 
BRANCH 177 180
ATOM    180  CE  LYS d   1      36.336  92.121  55.314  0.00  0.00     0.080 C 
ATOM    181  H97 LYS d   1      37.272  92.678  55.467  0.00  0.00     0.075 H 
ATOM    182  H98 LYS d   1      35.660  92.298  56.164  0.00  0.00     0.075 H 
BRANCH 180 183
ATOM    183  NZ  LYS d   1      35.674  92.586  54.036  0.00  0.00    -0.079 N 
ATOM    184  H99 LYS d   1      35.470  93.571  54.102  0.00  0.00     0.274 HD
ATOM    185 0H10 LYS d   1      34.817  92.074  53.896  0.00  0.00     0.274 HD
ATOM    186 1H10 LYS d   1      36.294  92.423  53.258  0.00  0.00     0.274 HD
ENDBRANCH 180 183
ENDBRANCH 177 180
ENDBRANCH 174 177
ENDBRANCH 171 174
ENDBRANCH 169 171
BRANCH 169 187
ATOM    187  C   LYS d   1      36.343  87.684  58.509  0.00  0.00     0.241 C 
ATOM    188  O   LYS d   1      35.225  87.202  58.324  0.00  0.00    -0.271 OA
ATOM    189  N   LYS d   1      36.682  88.306  59.636  0.00  0.00    -0.346 N 
ATOM    190 2H10 LYS d   1      37.617  88.639  59.756  0.00  0.00     0.163 HD
BRANCH 189 191
ATOM    191  CA  LYS d   1      35.691  88.509  60.709  0.00  0.00     0.089 C 
ATOM    192 3H10 LYS d   1      34.989  87.663  60.676  0.00  0.00     0.087 H 
BRANCH 191 193
ATOM    193  CB  LYS d   1      36.343  88.526  62.090  0.00  0.00    -0.038 C 
ATOM    194 4H10 LYS d   1      37.054  89.364  62.141  0.00  0.00     0.036 H 
ATOM    195 5H10 LYS d   1      36.881  87.579  62.244  0.00  0.00     0.036 H 
BRANCH 193 196
ATOM    196  CG  LYS d   1      35.311  88.689  63.181  0.00  0.00    -0.061 C 
ATOM    197 6H10 LYS d   1      34.521  87.939  63.025  0.00  0.00     0.033 H 
ATOM    198 7H10 LYS d   1      34.880  89.698  63.101  0.00  0.00     0.033 H 
BRANCH 196 199
ATOM    199  CD  LYS d   1      35.858  88.517  64.573  0.00  0.00    -0.043 C 
ATOM    200 8H10 LYS d   1      36.586  89.316  64.780  0.00  0.00     0.035 H 
ATOM    201 9H10 LYS d   1      36.355  87.539  64.651  0.00  0.00     0.035 H 
BRANCH 199 202
ATOM    202  CE  LYS d   1      34.714  88.591  65.601  0.00  0.00     0.080 C 
ATOM    203 0H11 LYS d   1      34.206  87.616  65.629  0.00  0.00     0.075 H 
ATOM    204 1H11 LYS d   1      34.003  89.366  65.278  0.00  0.00     0.075 H 
BRANCH 202 205
ATOM    205  NZ  LYS d   1      35.180  88.920  66.972  0.00  0.00    -0.079 N 
ATOM    206 2H11 LYS d   1      34.389  88.954  67.597  0.00  0.00     0.274 HD
ATOM    207 3H11 LYS d   1      35.641  89.817  66.964  0.00  0.00     0.274 HD
ATOM    208 4H11 LYS d   1      35.826  88.213  67.286  0.00  0.00     0.274 HD
ENDBRANCH 202 205
ENDBRANCH 199 202
ENDBRANCH 196 199
ENDBRANCH 193 196
ENDBRANCH 191 193
BRANCH 191 209
ATOM    209  C   LYS d   1      34.886  89.800  60.504  0.00  0.00     0.241 C 
ATOM    210  O   LYS d   1      35.416  90.905  60.665  0.00  0.00    -0.271 OA
ATOM    211  N   LEU d   1      33.607  89.656  60.158  0.00  0.00    -0.346 N 
ATOM    212 5H11 LEU d   1      33.225  88.736  60.068  0.00  0.00     0.163 HD
BRANCH 211 213
ATOM    213  CA  LEU d   1      32.750  90.814  59.907  0.00  0.00     0.089 C 
ATOM    214 6H11 LEU d   1      33.331  91.545  59.326  0.00  0.00     0.087 H 
BRANCH 213 215
ATOM    215  CB  LEU d   1      31.513  90.428  59.079  0.00  0.00    -0.035 C 
ATOM    216 7H11 LEU d   1      30.833  91.292  59.082  0.00  0.00     0.037 H 
ATOM    217 8H11 LEU d   1      31.030  89.579  59.586  0.00  0.00     0.037 H 
BRANCH 215 218
ATOM    218  CG  LEU d   1      31.734  90.022  57.612  0.00  0.00    -0.059 C 
ATOM    219 9H11 LEU d   1      32.294  89.075  57.612  0.00  0.00     0.038 H 
BRANCH 218 220
ATOM    220  CD1 LEU d   1      30.396  89.779  56.920  0.00  0.00    -0.073 C 
ATOM    221 0H12 LEU d   1      30.572  89.490  55.873  0.00  0.00     0.028 H 
ATOM    222 1H12 LEU d   1      29.795  90.700  56.950  0.00  0.00     0.028 H 
ATOM    223 2H12 LEU d   1      29.857  88.972  57.438  0.00  0.00     0.028 H 
ENDBRANCH 218 220
BRANCH 218 224
ATOM    224  CD2 LEU d   1      32.562  91.048  56.826  0.00  0.00    -0.073 C 
ATOM    225 3H12 LEU d   1      33.522  91.213  57.337  0.00  0.00     0.028 H 
ATOM    226 4H12 LEU d   1      32.010  91.998  56.768  0.00  0.00     0.028 H 
ATOM    227 5H12 LEU d   1      32.747  90.669  55.810  0.00  0.00     0.028 H 
ENDBRANCH 218 224
ENDBRANCH 215 218
ENDBRANCH 213 215
BRANCH 213 228
ATOM    228  C   LEU d   1      32.334  91.477  61.222  0.00  0.00     0.240 C 
ATOM    229  O   LEU d   1      32.317  90.833  62.283  0.00  0.00    -0.271 OA
ATOM    230  N   GLY d   1      32.006  92.769  61.137  0.00  0.00    -0.349 N 
ATOM    231 6H12 GLY d   1      31.980  93.198  60.234  0.00  0.00     0.163 HD
BRANCH 230 232
ATOM    232  CA  GLY d   1      31.681  93.589  62.316  0.00  0.00     0.072 C 
ATOM    233 7H12 GLY d   1      31.495  94.619  61.978  0.00  0.00     0.080 H 
ATOM    234 8H12 GLY d   1      32.548  93.577  62.993  0.00  0.00     0.080 H 
BRANCH 232 235
ATOM    235  C   GLY d   1      30.459  93.115  63.097  0.00  0.00     0.158 C 
ATOM    236  O   GLY d   1      30.539  92.845  64.304  0.00  0.00    -0.649 OA
BRANCH 235 237
ATOM    237  O1  GLY d   1      29.291  92.990  62.474  0.00  0.00    -0.775 OA
ATOM    238 9H12 GLY d   1      28.651  93.560  62.884  0.00  0.00     0.167 HD
ENDBRANCH 235 237
ENDBRANCH 232 235
ENDBRANCH 230 232
ENDBRANCH 213 228
ENDBRANCH 211 213
ENDBRANCH 191 209
ENDBRANCH 189 191
ENDBRANCH 169 187
ENDBRANCH 167 169
ENDBRANCH 150 165
ENDBRANCH 148 150
ENDBRANCH 128 146
ENDBRANCH 126 128
ENDBRANCH   1 124
TORSDOF 74
