REMARK WARNING: 32 MAX_TORS EXCEEDED!!!
REMARK  57 active torsions:
REMARK  status: ('A' for Active; 'I' for Inactive)
REMARK    1  A    between atoms: N_1  and  CA_2 
REMARK    2  A    between atoms: CA_2  and  C_3 
REMARK    3  A    between atoms: CA_2  and  CB_5 
REMARK       I    between atoms: C_3  and  N_13 
REMARK    4  A    between atoms: CB_5  and  CG_6 
REMARK    5  A    between atoms: CZ_11  and  OH_12 
REMARK    6  A    between atoms: N_13  and  CA_14 
REMARK    7  A    between atoms: CA_14  and  C_15 
REMARK    8  A    between atoms: CA_14  and  CB_17 
REMARK       I    between atoms: C_15  and  N_21 
REMARK    9  A    between atoms: CB_17  and  CG_18 
REMARK       I    between atoms: CG_18  and  ND2_20 
REMARK   10  A    between atoms: CA_22  and  C_23 
REMARK       I    between atoms: C_23  and  N_28 
REMARK   11  A    between atoms: N_28  and  CA_29 
REMARK   12  A    between atoms: CA_29  and  C_30 
REMARK   13  A    between atoms: CA_29  and  CB_32 
REMARK       I    between atoms: C_30  and  N_40 
REMARK   14  A    between atoms: CB_32  and  CG_33 
REMARK   15  A    between atoms: CZ_38  and  OH_39 
REMARK   16  A    between atoms: CA_41  and  C_42 
REMARK       I    between atoms: C_42  and  N_47 
REMARK   17  A    between atoms: N_47  and  CA_48 
REMARK   18  A    between atoms: CA_48  and  C_49 
REMARK   19  A    between atoms: CA_48  and  CB_51 
REMARK       I    between atoms: C_49  and  N_56 
REMARK   20  A    between atoms: CB_51  and  CG_52 
REMARK   21  A    between atoms: CG_52  and  CD_53 
REMARK   22  A    between atoms: N_56  and  CA_57 
REMARK   23  A    between atoms: CA_57  and  C_58 
REMARK   24  A    between atoms: CA_57  and  CB_60 
REMARK       I    between atoms: C_58  and  N_64 
REMARK   25  A    between atoms: CB_60  and  CG_61 
REMARK   26  A    between atoms: N_64  and  CA_65 
REMARK   27  A    between atoms: CA_65  and  C_66 
REMARK   28  A    between atoms: CA_65  and  CB_68 
REMARK       I    between atoms: C_66  and  N_80 
REMARK   29  A    between atoms: CB_68  and  CG_69 
REMARK   30  A    between atoms: CZ_74  and  OH_75 
REMARK   31  A    between atoms: OH_75  and  P_76 
REMARK   32  A    between atoms: N_80  and  CA_81 
REMARK   33  A    between atoms: CA_81  and  C_82 
REMARK       I    between atoms: C_82  and  N_84 
REMARK   34  A    between atoms: N_84  and  CA_85 
REMARK   35  A    between atoms: CA_85  and  C_86 
REMARK   36  A    between atoms: CA_85  and  CB_88 
REMARK       I    between atoms: C_86  and  N_92 
REMARK   37  A    between atoms: CB_88  and  CG_89 
REMARK   38  A    between atoms: N_92  and  CA_93 
REMARK   39  A    between atoms: CA_93  and  C_94 
REMARK   40  A    between atoms: CA_93  and  CB_96 
REMARK       I    between atoms: C_94  and  N_100 
REMARK   41  A    between atoms: CB_96  and  CG1_97 
REMARK   42  A    between atoms: CB_96  and  CG2_98 
REMARK   43  A    between atoms: CG1_97  and  CD1_99 
REMARK   44  A    between atoms: N_100  and  CA_101 
REMARK   45  A    between atoms: CA_101  and  C_102 
REMARK   46  A    between atoms: CA_101  and  CB_104 
REMARK       I    between atoms: C_102  and  N_109 
REMARK   47  A    between atoms: CB_104  and  CG_105 
REMARK   48  A    between atoms: CG_105  and  CD_106 
REMARK   49  A    between atoms: N_109  and  CA_110 
REMARK   50  A    between atoms: CA_110  and  C_111 
REMARK   51  A    between atoms: CA_110  and  CB_113 
REMARK       I    between atoms: C_111  and  N_117 
REMARK   52  A    between atoms: CB_113  and  CG1_114 
REMARK   53  A    between atoms: CB_113  and  CG2_115 
REMARK   54  A    between atoms: CG1_114  and  CD1_116 
REMARK   55  A    between atoms: N_117  and  CA_118 
REMARK   56  A    between atoms: CA_118  and  C_119 
REMARK   57  A    between atoms: C_119  and  O_217 
ROOT
ATOM      1  CA  ASP d   1       3.127   2.817  35.634  0.00  0.00     0.098 C 
ATOM      2  H48 ASP d   1       3.352   1.890  36.182  0.00  0.00     0.088 H 
ENDROOT
BRANCH   1   3
ATOM      3  N   ASP d   1       2.013   3.483  36.325  0.00  0.00    -0.346 N 
ATOM      4  C   GLU d   1       1.858   3.477  37.654  0.00  0.00     0.241 C 
ATOM      5  O   GLU d   1       2.625   2.897  38.415  0.00  0.00    -0.271 OA
ATOM      6  H47 ASP d   1       1.335   3.966  35.772  0.00  0.00     0.163 HD
BRANCH   4   7
ATOM      7  CA  GLU d   1       0.652   4.261  38.219  0.00  0.00     0.090 C 
ATOM      8  H42 GLU d   1       1.041   4.907  39.020  0.00  0.00     0.087 H 
BRANCH   7   9
ATOM      9  N   GLU d   1       0.014   5.135  37.234  0.00  0.00    -0.346 N 
ATOM     10  C   PRO d   1       0.592   6.256  36.810  0.00  0.00     0.241 C 
ATOM     11  O   PRO d   1       1.708   6.619  37.185  0.00  0.00    -0.271 OA
ATOM     12  H41 GLU d   1      -0.882   4.883  36.869  0.00  0.00     0.163 HD
BRANCH  10  13
ATOM     13  CA  PRO d   1      -0.178   7.098  35.780  0.00  0.00     0.091 C 
ATOM     14  N   PRO d   1      -1.039   6.310  34.892  0.00  0.00    -0.337 N 
ATOM     15  C   TYR d   1      -0.556   5.293  34.147  0.00  0.00     0.243 C 
ATOM     16  CD  PRO d   1      -2.440   6.777  34.936  0.00  0.00    -0.001 C 
ATOM     17  O   TYR d   1       0.629   4.938  34.190  0.00  0.00    -0.271 OA
ATOM     18  CG  PRO d   1      -2.527   7.446  36.265  0.00  0.00    -0.048 C 
ATOM     19  H39 PRO d   1      -3.141   5.932  34.872  0.00  0.00     0.064 H 
ATOM     20  H40 PRO d   1      -2.646   7.487  34.121  0.00  0.00     0.064 H 
ATOM     21  CB  PRO d   1      -1.166   8.055  36.478  0.00  0.00    -0.036 C 
ATOM     22  H37 PRO d   1      -3.303   8.225  36.257  0.00  0.00     0.035 H 
ATOM     23  H38 PRO d   1      -2.752   6.713  37.054  0.00  0.00     0.035 H 
ATOM     24  H35 PRO d   1      -1.117   9.056  36.026  0.00  0.00     0.036 H 
ATOM     25  H36 PRO d   1      -0.940   8.126  37.552  0.00  0.00     0.036 H 
ATOM     26  H34 PRO d   1       0.551   7.667  35.184  0.00  0.00     0.087 H 
BRANCH  15  27
ATOM     27  CA  TYR d   1      -1.545   4.595  33.211  0.00  0.00     0.093 C 
ATOM     28  H26 TYR d   1      -2.505   4.516  33.743  0.00  0.00     0.088 H 
BRANCH  27  29
ATOM     29  N   TYR d   1      -1.774   5.389  31.998  0.00  0.00    -0.346 N 
ATOM     30  C   PRO d   1      -3.000   5.729  31.593  0.00  0.00     0.241 C 
ATOM     31  O   PRO d   1      -4.034   5.374  32.176  0.00  0.00    -0.271 OA
ATOM     32  H25 TYR d   1      -0.986   5.685  31.457  0.00  0.00     0.163 HD
BRANCH  30  33
ATOM     33  CA  PRO d   1      -3.090   6.588  30.334  0.00  0.00     0.091 C 
ATOM     34  N   PRO d   1      -4.290   6.277  29.557  0.00  0.00    -0.337 N 
ATOM     35  C   ASN d   1      -4.328   5.204  28.736  0.00  0.00     0.243 C 
ATOM     36  CD  PRO d   1      -5.362   7.273  29.771  0.00  0.00    -0.001 C 
ATOM     37  O   ASN d   1      -3.320   4.531  28.469  0.00  0.00    -0.271 OA
ATOM     38  CG  PRO d   1      -4.765   8.222  30.782  0.00  0.00    -0.048 C 
ATOM     39  H23 PRO d   1      -6.269   6.795  30.169  0.00  0.00     0.064 H 
ATOM     40  H24 PRO d   1      -5.604   7.797  28.835  0.00  0.00     0.064 H 
ATOM     41  CB  PRO d   1      -3.287   8.063  30.699  0.00  0.00    -0.036 C 
ATOM     42  H21 PRO d   1      -5.049   9.258  30.543  0.00  0.00     0.035 H 
ATOM     43  H22 PRO d   1      -5.117   7.969  31.793  0.00  0.00     0.035 H 
ATOM     44  H19 PRO d   1      -2.867   8.717  29.921  0.00  0.00     0.036 H 
ATOM     45  H20 PRO d   1      -2.815   8.293  31.666  0.00  0.00     0.036 H 
ATOM     46  H18 PRO d   1      -2.182   6.447  29.729  0.00  0.00     0.087 H 
BRANCH  35  47
ATOM     47  CA  ASN d   1      -5.674   4.877  28.069  0.00  0.00     0.097 C 
ATOM     48  H13 ASN d   1      -6.346   5.731  28.242  0.00  0.00     0.088 H 
BRANCH  47  49
ATOM     49  N   ASN d   1      -5.534   4.706  26.627  0.00  0.00    -0.346 N 
ATOM     50  C   TYR d   1      -5.226   5.724  25.819  0.00  0.00     0.249 C 
ATOM     51  O   TYR d   1      -5.110   6.897  26.210  0.00  0.00    -0.271 OA
ATOM     52  H12 ASN d   1      -5.673   3.798  26.231  0.00  0.00     0.163 HD
BRANCH  50  53
ATOM     53  CA  TYR d   1      -5.018   5.367  24.349  0.00  0.00     0.179 C 
ATOM     54  H4  TYR d   1      -4.050   5.785  24.037  0.00  0.00     0.099 H 
BRANCH  53  55
ATOM     55  N   TYR d   1      -4.975   3.891  24.113  0.00  0.00    -0.066 N 
ATOM     56  H1  TYR d   1      -4.836   3.712  23.131  0.00  0.00     0.275 HD
ATOM     57  H2  TYR d   1      -5.845   3.478  24.410  0.00  0.00     0.275 HD
ATOM     58  H3  TYR d   1      -4.215   3.489  24.639  0.00  0.00     0.275 HD
ENDBRANCH  53  55
BRANCH  53  59
ATOM     59  CB  TYR d   1      -6.113   5.999  23.488  0.00  0.00    -0.006 C 
ATOM     60  H5  TYR d   1      -6.104   7.087  23.650  0.00  0.00     0.043 H 
ATOM     61  H6  TYR d   1      -7.085   5.590  23.799  0.00  0.00     0.043 H 
BRANCH  59  62
ATOM     62  CG  TYR d   1      -5.923   5.728  22.012  0.00  0.00    -0.056 A 
ATOM     63  CD1 TYR d   1      -6.654   4.724  21.367  0.00  0.00    -0.074 A 
ATOM     64  CE1 TYR d   1      -6.482   4.470  20.007  0.00  0.00    -0.051 A 
ATOM     65  H7  TYR d   1      -7.365   4.134  21.934  0.00  0.00     0.084 H 
ATOM     66  CZ  TYR d   1      -5.561   5.208  19.280  0.00  0.00     0.065 A 
ATOM     67  H9  TYR d   1      -7.066   3.698  19.520  0.00  0.00     0.087 H 
ATOM     68  CE2 TYR d   1      -4.819   6.206  19.895  0.00  0.00    -0.051 A 
ATOM     69  CD2 TYR d   1      -5.000   6.461  21.261  0.00  0.00    -0.074 A 
ATOM     70  H10 TYR d   1      -4.104   6.785  19.322  0.00  0.00     0.087 H 
ATOM     71  H8  TYR d   1      -4.416   7.237  21.742  0.00  0.00     0.084 H 
BRANCH  66  72
ATOM     72  OH  TYR d   1      -5.392   4.959  17.930  0.00  0.00    -0.361 OA
ATOM     73  H11 TYR d   1      -4.490   4.712  17.765  0.00  0.00     0.217 HD
ENDBRANCH  66  72
ENDBRANCH  59  62
ENDBRANCH  53  59
ENDBRANCH  50  53
ENDBRANCH  47  49
BRANCH  47  74
ATOM     74  CB  ASN d   1      -6.323   3.635  28.694  0.00  0.00     0.036 C 
ATOM     75  H14 ASN d   1      -6.255   3.716  29.789  0.00  0.00     0.051 H 
ATOM     76  H15 ASN d   1      -5.773   2.744  28.357  0.00  0.00     0.051 H 
BRANCH  74  77
ATOM     77  CG  ASN d   1      -7.792   3.478  28.306  0.00  0.00     0.217 C 
ATOM     78  OD1 ASN d   1      -8.509   4.460  28.129  0.00  0.00    -0.274 OA
ATOM     79  ND2 ASN d   1      -8.247   2.236  28.192  0.00  0.00    -0.370 N 
ATOM     80  H16 ASN d   1      -9.201   2.074  27.940  0.00  0.00     0.159 HD
ATOM     81  H17 ASN d   1      -7.636   1.462  28.358  0.00  0.00     0.159 HD
ENDBRANCH  74  77
ENDBRANCH  47  74
ENDBRANCH  35  47
ENDBRANCH  30  33
ENDBRANCH  27  29
BRANCH  27  82
ATOM     82  CB  TYR d   1      -1.091   3.166  32.863  0.00  0.00    -0.014 C 
ATOM     83  H27 TYR d   1      -0.808   2.652  33.794  0.00  0.00     0.043 H 
ATOM     84  H28 TYR d   1      -0.217   3.229  32.198  0.00  0.00     0.043 H 
BRANCH  82  85
ATOM     85  CG  TYR d   1      -2.163   2.354  32.173  0.00  0.00    -0.056 A 
ATOM     86  CD1 TYR d   1      -3.117   1.651  32.911  0.00  0.00    -0.074 A 
ATOM     87  CE1 TYR d   1      -4.112   0.917  32.281  0.00  0.00    -0.051 A 
ATOM     88  H29 TYR d   1      -3.080   1.679  33.994  0.00  0.00     0.084 H 
ATOM     89  CZ  TYR d   1      -4.154   0.888  30.885  0.00  0.00     0.065 A 
ATOM     90  H31 TYR d   1      -4.847   0.374  32.864  0.00  0.00     0.087 H 
ATOM     91  CE2 TYR d   1      -3.222   1.581  30.138  0.00  0.00    -0.051 A 
ATOM     92  CD2 TYR d   1      -2.237   2.309  30.783  0.00  0.00    -0.074 A 
ATOM     93  H32 TYR d   1      -3.261   1.555  29.055  0.00  0.00     0.087 H 
ATOM     94  H30 TYR d   1      -1.509   2.855  30.194  0.00  0.00     0.084 H 
BRANCH  89  95
ATOM     95  OH  TYR d   1      -5.128   0.172  30.237  0.00  0.00    -0.361 OA
ATOM     96  H33 TYR d   1      -5.644   0.759  29.697  0.00  0.00     0.217 HD
ENDBRANCH  89  95
ENDBRANCH  82  85
ENDBRANCH  27  82
ENDBRANCH  15  27
ENDBRANCH  10  13
ENDBRANCH   7   9
BRANCH   7  97
ATOM     97  CB  GLU d   1      -0.389   3.329  38.849  0.00  0.00    -0.029 C 
ATOM     98  H43 GLU d   1       0.094   2.742  39.644  0.00  0.00     0.037 H 
ATOM     99  H44 GLU d   1      -0.774   2.650  38.074  0.00  0.00     0.037 H 
BRANCH  97 100
ATOM    100  CG  GLU d   1      -1.571   4.114  39.456  0.00  0.00     0.018 C 
ATOM    101  H45 GLU d   1      -2.063   4.674  38.647  0.00  0.00     0.049 H 
ATOM    102  H46 GLU d   1      -1.170   4.819  40.199  0.00  0.00     0.049 H 
BRANCH 100 103
ATOM    103  CD  GLU d   1      -2.617   3.248  40.139  0.00  0.00     0.172 C 
ATOM    104  OE1 GLU d   1      -2.522   1.998  40.058  0.00  0.00    -0.648 OA
ATOM    105  OE2 GLU d   1      -3.544   3.827  40.769  0.00  0.00    -0.648 OA
ENDBRANCH 100 103
ENDBRANCH  97 100
ENDBRANCH   7  97
ENDBRANCH   4   7
ENDBRANCH   1   3
BRANCH   1 106
ATOM    106  C   ASP d   1       4.406   3.664  35.603  0.00  0.00     0.241 C 
ATOM    107  O   ASP d   1       5.428   3.254  35.033  0.00  0.00    -0.271 OA
ATOM    108  N   PTR d   1       4.344   4.841  36.218  0.00  0.00    -0.346 N 
ATOM    109  H51 PTR d   1       3.474   5.140  36.610  0.00  0.00     0.163 HD
BRANCH 108 110
ATOM    110  CA  PTR d   1       5.509   5.706  36.336  0.00  0.00     0.093 C 
ATOM    111  H52 PTR d   1       6.375   5.156  35.938  0.00  0.00     0.088 H 
BRANCH 110 112
ATOM    112  C   PTR d   1       5.793   5.997  37.804  0.00  0.00     0.241 C 
ATOM    113  O   PTR d   1       4.875   6.032  38.628  0.00  0.00    -0.271 OA
ATOM    114  N   GLY d   1       7.069   6.183  38.120  0.00  0.00    -0.351 N 
ATOM    115  H59 GLY d   1       7.767   6.032  37.420  0.00  0.00     0.163 HD
BRANCH 114 116
ATOM    116  CA  GLY d   1       7.489   6.602  39.458  0.00  0.00     0.069 C 
ATOM    117  H60 GLY d   1       7.897   5.733  39.995  0.00  0.00     0.078 H 
ATOM    118  H61 GLY d   1       6.617   6.993  40.002  0.00  0.00     0.078 H 
BRANCH 116 119
ATOM    119  C   GLY d   1       8.551   7.681  39.383  0.00  0.00     0.236 C 
ATOM    120  O   GLY d   1       9.315   7.740  38.421  0.00  0.00    -0.272 OA
ATOM    121  N   ASP d   1       8.589   8.550  40.392  0.00  0.00    -0.346 N 
ATOM    122  H62 ASP d   1       7.873   8.518  41.089  0.00  0.00     0.163 HD
BRANCH 121 123
ATOM    123  CA  ASP d   1       9.648   9.547  40.506  0.00  0.00     0.098 C 
ATOM    124  H63 ASP d   1       9.876   9.945  39.506  0.00  0.00     0.088 H 
BRANCH 123 125
ATOM    125  C   ASP d   1      10.889   8.886  41.076  0.00  0.00     0.241 C 
ATOM    126  O   ASP d   1      10.955   8.601  42.272  0.00  0.00    -0.271 OA
ATOM    127  N   ILE d   1      11.859   8.609  40.214  0.00  0.00    -0.346 N 
ATOM    128  H66 ILE d   1      11.736   8.838  39.248  0.00  0.00     0.163 HD
BRANCH 127 129
ATOM    129  CA  ILE d   1      13.105   7.976  40.646  0.00  0.00     0.092 C 
ATOM    130  H67 ILE d   1      13.158   8.044  41.743  0.00  0.00     0.088 H 
BRANCH 129 131
ATOM    131  C   ILE d   1      14.300   8.705  40.055  0.00  0.00     0.241 C 
ATOM    132  O   ILE d   1      14.139   9.568  39.190  0.00  0.00    -0.271 OA
ATOM    133  N   GLU d   1      15.492   8.354  40.535  0.00  0.00    -0.346 N 
ATOM    134  H77 GLU d   1      15.530   7.726  41.313  0.00  0.00     0.163 HD
BRANCH 133 135
ATOM    135  CA  GLU d   1      16.744   8.848  39.972  0.00  0.00     0.090 C 
ATOM    136  H78 GLU d   1      16.516   9.596  39.199  0.00  0.00     0.087 H 
BRANCH 135 137
ATOM    137  C   GLU d   1      17.515   7.698  39.333  0.00  0.00     0.241 C 
ATOM    138  O   GLU d   1      17.658   6.640  39.942  0.00  0.00    -0.271 OA
ATOM    139  N   ILE d   1      17.991   7.913  38.106  0.00  0.00    -0.346 N 
ATOM    140  H83 ILE d   1      17.783   8.783  37.659  0.00  0.00     0.163 HD
BRANCH 139 141
ATOM    141  CA  ILE d   1      18.807   6.931  37.381  0.00  0.00     0.092 C 
ATOM    142  H84 ILE d   1      18.977   6.076  38.052  0.00  0.00     0.088 H 
BRANCH 141 143
ATOM    143  C   ILE d   1      20.167   7.534  37.019  0.00  0.00     0.241 C 
ATOM    144  O   ILE d   1      20.374   8.745  37.171  0.00  0.00    -0.271 OA
ATOM    145  N   GLY d   1      21.093   6.694  36.559  0.00  0.00    -0.349 N 
ATOM    146  H94 GLY d   1      20.877   5.720  36.493  0.00  0.00     0.163 HD
BRANCH 145 147
ATOM    147  CA  GLY d   1      22.418   7.160  36.148  0.00  0.00     0.072 C 
ATOM    148  H95 GLY d   1      22.287   8.015  35.468  0.00  0.00     0.080 H 
ATOM    149  H96 GLY d   1      22.920   6.340  35.613  0.00  0.00     0.080 H 
BRANCH 147 150
ATOM    150  C   GLY d   1      23.315   7.599  37.297  0.00  0.00     0.158 C 
ATOM    151  O   GLY d   1      23.490   6.871  38.278  0.00  0.00    -0.649 OA
BRANCH 150 152
ATOM    152  O   GLY d   1      23.918   8.783  37.243  0.00  0.00    -0.775 OA
ATOM    153  H97 GLY d   1      24.860   8.660  37.278  0.00  0.00     0.167 HD
ENDBRANCH 150 152
ENDBRANCH 147 150
ENDBRANCH 145 147
ENDBRANCH 141 143
BRANCH 141 154
ATOM    154  CB  ILE d   1      18.097   6.394  36.093  0.00  0.00    -0.030 C 
ATOM    155  H85 ILE d   1      18.739   5.615  35.656  0.00  0.00     0.043 H 
BRANCH 154 156
ATOM    156  CG1 ILE d   1      17.937   7.504  35.045  0.00  0.00    -0.063 C 
ATOM    157  H86 ILE d   1      18.915   7.989  34.907  0.00  0.00     0.033 H 
ATOM    158  H87 ILE d   1      17.215   8.238  35.431  0.00  0.00     0.033 H 
BRANCH 156 159
ATOM    159  CD1 ILE d   1      17.439   7.020  33.660  0.00  0.00    -0.076 C 
ATOM    160  H91 ILE d   1      17.355   7.880  32.979  0.00  0.00     0.027 H 
ATOM    161  H92 ILE d   1      16.454   6.543  33.771  0.00  0.00     0.027 H 
ATOM    162  H93 ILE d   1      18.154   6.293  33.247  0.00  0.00     0.027 H 
ENDBRANCH 156 159
ENDBRANCH 154 156
BRANCH 154 163
ATOM    163  CG2 ILE d   1      16.755   5.746  36.442  0.00  0.00    -0.071 C 
ATOM    164  H88 ILE d   1      16.913   4.958  37.194  0.00  0.00     0.028 H 
ATOM    165  H89 ILE d   1      16.314   5.305  35.536  0.00  0.00     0.028 H 
ATOM    166  H90 ILE d   1      16.074   6.509  36.847  0.00  0.00     0.028 H 
ENDBRANCH 154 163
ENDBRANCH 141 154
ENDBRANCH 139 141
ENDBRANCH 135 137
BRANCH 135 167
ATOM    167  CB  GLU d   1      17.590   9.510  41.065  0.00  0.00    -0.029 C 
ATOM    168  H79 GLU d   1      17.820   8.753  41.829  0.00  0.00     0.037 H 
ATOM    169  H80 GLU d   1      16.997  10.319  41.517  0.00  0.00     0.037 H 
BRANCH 167 170
ATOM    170  CG  GLU d   1      18.898  10.098  40.570  0.00  0.00     0.018 C 
ATOM    171  H81 GLU d   1      18.677  10.813  39.764  0.00  0.00     0.049 H 
ATOM    172  H82 GLU d   1      19.521   9.282  40.175  0.00  0.00     0.049 H 
BRANCH 170 173
ATOM    173  CD  GLU d   1      19.679  10.819  41.652  0.00  0.00     0.172 C 
ATOM    174  OE1 GLU d   1      19.121  11.085  42.740  0.00  0.00    -0.648 OA
ATOM    175  OE2 GLU d   1      20.862  11.130  41.405  0.00  0.00    -0.648 OA
ENDBRANCH 170 173
ENDBRANCH 167 170
ENDBRANCH 135 167
ENDBRANCH 133 135
ENDBRANCH 129 131
BRANCH 129 176
ATOM    176  CB  ILE d   1      13.181   6.469  40.246  0.00  0.00    -0.030 C 
ATOM    177  H68 ILE d   1      14.203   6.120  40.454  0.00  0.00     0.043 H 
BRANCH 176 178
ATOM    178  CG1 ILE d   1      12.931   6.286  38.738  0.00  0.00    -0.063 C 
ATOM    179  H69 ILE d   1      13.309   7.175  38.211  0.00  0.00     0.033 H 
ATOM    180  H70 ILE d   1      11.847   6.194  38.572  0.00  0.00     0.033 H 
BRANCH 178 181
ATOM    181  CD1 ILE d   1      13.605   5.071  38.166  0.00  0.00    -0.076 C 
ATOM    182  H74 ILE d   1      13.385   5.002  37.090  0.00  0.00     0.027 H 
ATOM    183  H75 ILE d   1      13.231   4.170  38.675  0.00  0.00     0.027 H 
ATOM    184  H76 ILE d   1      14.692   5.151  38.314  0.00  0.00     0.027 H 
ENDBRANCH 178 181
ENDBRANCH 176 178
BRANCH 176 185
ATOM    185  CG2 ILE d   1      12.231   5.630  41.098  0.00  0.00    -0.071 C 
ATOM    186  H71 ILE d   1      12.450   5.796  42.163  0.00  0.00     0.028 H 
ATOM    187  H72 ILE d   1      12.366   4.565  40.858  0.00  0.00     0.028 H 
ATOM    188  H73 ILE d   1      11.192   5.925  40.887  0.00  0.00     0.028 H 
ENDBRANCH 176 185
ENDBRANCH 129 176
ENDBRANCH 127 129
ENDBRANCH 123 125
BRANCH 123 189
ATOM    189  CB  ASP d   1       9.210  10.701  41.410  0.00  0.00     0.043 C 
ATOM    190  H64 ASP d   1      10.081  11.342  41.610  0.00  0.00     0.052 H 
ATOM    191  H65 ASP d   1       8.836  10.284  42.357  0.00  0.00     0.052 H 
BRANCH 189 192
ATOM    192  CG  ASP d   1       8.122  11.544  40.790  0.00  0.00     0.175 C 
ATOM    193  OD1 ASP d   1       8.382  12.199  39.760  0.00  0.00    -0.648 OA
ATOM    194  OD2 ASP d   1       7.010  11.558  41.345  0.00  0.00    -0.648 OA
ENDBRANCH 189 192
ENDBRANCH 123 189
ENDBRANCH 121 123
ENDBRANCH 116 119
ENDBRANCH 114 116
ENDBRANCH 110 112
BRANCH 110 195
ATOM    195  CB  PTR d   1       5.354   6.979  35.486  0.00  0.00    -0.014 C 
ATOM    196  H53 PTR d   1       6.261   7.590  35.599  0.00  0.00     0.043 H 
ATOM    197  H54 PTR d   1       4.484   7.543  35.852  0.00  0.00     0.043 H 
BRANCH 195 198
ATOM    198  CG  PTR d   1       5.152   6.678  34.015  0.00  0.00    -0.056 A 
ATOM    199  CD1 PTR d   1       3.875   6.461  33.491  0.00  0.00    -0.074 A 
ATOM    200  CE1 PTR d   1       3.695   6.158  32.140  0.00  0.00    -0.050 A 
ATOM    201  H55 PTR d   1       3.011   6.529  34.143  0.00  0.00     0.084 H 
ATOM    202  CZ  PTR d   1       4.801   6.061  31.302  0.00  0.00     0.082 A 
ATOM    203  H57 PTR d   1       2.698   5.999  31.746  0.00  0.00     0.087 H 
ATOM    204  CE2 PTR d   1       6.074   6.258  31.808  0.00  0.00    -0.050 A 
ATOM    205  CD2 PTR d   1       6.245   6.558  33.156  0.00  0.00    -0.074 A 
ATOM    206  H58 PTR d   1       6.936   6.179  31.156  0.00  0.00     0.087 H 
ATOM    207  H56 PTR d   1       7.246   6.701  33.546  0.00  0.00     0.084 H 
BRANCH 202 208
ATOM    208  OH  PTR d   1       4.684   5.763  30.090  0.00  0.00    -0.240 OA
BRANCH 208 209
ATOM    209  P   PTR d   1       3.664   6.486  29.083  0.00  0.00     0.427 P 
ATOM    210  O1P PTR d   1       4.001   6.037  27.718  0.00  0.00    -0.617 OA
ATOM    211  O2P PTR d   1       3.798   8.018  29.185  0.00  0.00    -0.617 OA
ATOM    212  O3P PTR d   1       2.210   6.054  29.366  0.00  0.00    -0.617 OA
ENDBRANCH 208 209
ENDBRANCH 202 208
ENDBRANCH 195 198
ENDBRANCH 110 195
ENDBRANCH 108 110
ENDBRANCH   1 106
BRANCH   1 213
ATOM    213  CB  ASP d   1       2.721   2.443  34.197  0.00  0.00     0.043 C 
ATOM    214  H49 ASP d   1       3.624   2.150  33.642  0.00  0.00     0.052 H 
ATOM    215  H50 ASP d   1       2.267   3.324  33.720  0.00  0.00     0.052 H 
BRANCH 213 216
ATOM    216  CG  ASP d   1       1.720   1.290  34.144  0.00  0.00     0.175 C 
ATOM    217  OD1 ASP d   1       1.259   0.835  35.205  0.00  0.00    -0.648 OA
ATOM    218  OD2 ASP d   1       1.402   0.821  33.033  0.00  0.00    -0.648 OA
ENDBRANCH 213 216
ENDBRANCH   1 213
TORSDOF 57
