REMARK WARNING: 32 MAX_TORS EXCEEDED!!!
REMARK  68 active torsions:
REMARK  status: ('A' for Active; 'I' for Inactive)
REMARK    1  A    between atoms: CA_2  and  N_1 
REMARK    2  A    between atoms: CA_2  and  CB_5 
REMARK    3  A    between atoms: C_3  and  CA_2 
REMARK       I    between atoms: N_7  and  C_3 
REMARK    4  A    between atoms: CB_5  and  OG_6 
REMARK    5  A    between atoms: CA_8  and  N_7 
REMARK    6  A    between atoms: CA_8  and  CB_11 
REMARK    7  A    between atoms: C_9  and  CA_8 
REMARK       I    between atoms: N_18  and  C_9 
REMARK    8  A    between atoms: CB_11  and  CG_12 
REMARK    9  A    between atoms: CA_19  and  N_18 
REMARK   10  A    between atoms: CA_19  and  CB_22 
REMARK   11  A    between atoms: C_20  and  CA_19 
REMARK       I    between atoms: N_26  and  C_20 
REMARK   12  A    between atoms: CB_22  and  CG_23 
REMARK       I    between atoms: CG_23  and  ND2_25 
REMARK   13  A    between atoms: CA_27  and  N_26 
REMARK   14  A    between atoms: CA_27  and  CB_30 
REMARK   15  A    between atoms: C_28  and  CA_27 
REMARK       I    between atoms: N_34  and  C_28 
REMARK   16  A    between atoms: CB_30  and  CG_31 
REMARK   17  A    between atoms: CG_31  and  CD1_32 
REMARK   18  A    between atoms: CG_31  and  CD2_33 
REMARK   19  A    between atoms: CA_35  and  N_34 
REMARK   20  A    between atoms: CA_35  and  CB_38 
REMARK   21  A    between atoms: C_36  and  CA_35 
REMARK       I    between atoms: N_39  and  C_36 
REMARK   22  A    between atoms: C_41  and  CA_40 
REMARK       I    between atoms: N_46  and  C_41 
REMARK   23  A    between atoms: CA_47  and  N_46 
REMARK   24  A    between atoms: CA_47  and  CB_50 
REMARK   25  A    between atoms: C_48  and  CA_47 
REMARK       I    between atoms: N_54  and  C_48 
REMARK   26  A    between atoms: CB_50  and  CG_51 
REMARK   27  A    between atoms: CG_51  and  CD1_52 
REMARK   28  A    between atoms: CG_51  and  CD2_53 
REMARK   29  A    between atoms: CA_55  and  N_54 
REMARK   30  A    between atoms: C_56  and  CA_55 
REMARK       I    between atoms: N_58  and  C_56 
REMARK   31  A    between atoms: CA_59  and  N_58 
REMARK   32  A    between atoms: CA_59  and  CB_62 
REMARK   33  A    between atoms: C_60  and  CA_59 
REMARK       I    between atoms: N_69  and  C_60 
REMARK   34  A    between atoms: CB_62  and  CG_63 
REMARK   35  A    between atoms: CG_63  and  CD_64 
REMARK   36  A    between atoms: CD_64  and  NE_65 
REMARK       I    between atoms: NE_65  and  CZ_66 
REMARK       I    between atoms: CZ_66  and  NH2_68 
REMARK       I    between atoms: CZ_66  and  NH1_67 
REMARK   37  A    between atoms: CA_70  and  N_69 
REMARK   38  A    between atoms: CA_70  and  CB_73 
REMARK   39  A    between atoms: C_71  and  CA_70 
REMARK       I    between atoms: N_80  and  C_71 
REMARK   40  A    between atoms: CB_73  and  CG_74 
REMARK   41  A    between atoms: CG_74  and  CD_75 
REMARK   42  A    between atoms: CD_75  and  NE_76 
REMARK       I    between atoms: NE_76  and  CZ_77 
REMARK       I    between atoms: CZ_77  and  NH2_79 
REMARK       I    between atoms: CZ_77  and  NH1_78 
REMARK   43  A    between atoms: CA_81  and  N_80 
REMARK   44  A    between atoms: CA_81  and  CB_84 
REMARK   45  A    between atoms: C_82  and  CA_81 
REMARK       I    between atoms: N_91  and  C_82 
REMARK   46  A    between atoms: CB_84  and  CG_85 
REMARK   47  A    between atoms: CG_85  and  CD_86 
REMARK   48  A    between atoms: CD_86  and  NE_87 
REMARK       I    between atoms: NE_87  and  CZ_88 
REMARK       I    between atoms: CZ_88  and  NH2_90 
REMARK       I    between atoms: CZ_88  and  NH1_89 
REMARK   49  A    between atoms: CA_92  and  N_91 
REMARK   50  A    between atoms: CA_92  and  CB_95 
REMARK   51  A    between atoms: C_93  and  CA_92 
REMARK       I    between atoms: N_98  and  C_93 
REMARK   52  A    between atoms: CB_95  and  CG2_97 
REMARK   53  A    between atoms: CB_95  and  CG1_96 
REMARK   54  A    between atoms: CA_99  and  N_98 
REMARK   55  A    between atoms: CA_99  and  CB_102 
REMARK   56  A    between atoms: C_100  and  CA_99 
REMARK       I    between atoms: N_107  and  C_100 
REMARK   57  A    between atoms: CB_102  and  CG_103 
REMARK   58  A    between atoms: CG_103  and  CD_104 
REMARK       I    between atoms: CD_104  and  NE2_106 
REMARK   59  A    between atoms: CA_108  and  N_107 
REMARK   60  A    between atoms: CA_108  and  CB_111 
REMARK   61  A    between atoms: C_109  and  CA_108 
REMARK       I    between atoms: C_109  and  N_113 
REMARK   62  A    between atoms: CB_111  and  OG_112 
REMARK   63  A    between atoms: N_113  and  CA_114 
REMARK   64  A    between atoms: CA_114  and  CB_117 
REMARK   65  A    between atoms: CA_114  and  C_115 
REMARK   66  A    between atoms: C_115  and  O1_122 
REMARK   67  A    between atoms: CB_117  and  CG_118 
REMARK   68  A    between atoms: CG_118  and  CD_119 
REMARK       I    between atoms: CD_119  and  NE2_121 
ROOT
ATOM      1  CA  ARG d   1     -17.315  10.355 -27.185  0.00  0.00     0.089 C 
ATOM      2  H61 ARG d   1     -18.256  10.579 -26.662  0.00  0.00     0.087 H 
ENDROOT
BRANCH   1   3
ATOM      3  N   ARG d   1     -16.598  11.615 -27.342  0.00  0.00    -0.346 N 
ATOM      4  C   GLY d   1     -16.926  12.679 -26.614  0.00  0.00     0.236 C 
ATOM      5  O   GLY d   1     -17.819  12.653 -25.763  0.00  0.00    -0.272 OA
ATOM      6  H60 ARG d   1     -15.851  11.680 -28.004  0.00  0.00     0.163 HD
BRANCH   4   7
ATOM      7  CA  GLY d   1     -16.136  13.951 -26.862  0.00  0.00     0.069 C 
ATOM      8  H58 GLY d   1     -15.092  13.684 -27.085  0.00  0.00     0.078 H 
ATOM      9  H59 GLY d   1     -16.572  14.477 -27.724  0.00  0.00     0.078 H 
BRANCH   7  10
ATOM     10  N   GLY d   1     -16.158  14.836 -25.712  0.00  0.00    -0.351 N 
ATOM     11  C   LEU d   1     -15.463  15.969 -25.703  0.00  0.00     0.240 C 
ATOM     12  O   LEU d   1     -14.772  16.343 -26.651  0.00  0.00    -0.271 OA
ATOM     13  H57 GLY d   1     -16.706  14.589 -24.913  0.00  0.00     0.163 HD
BRANCH  11  14
ATOM     14  CA  LEU d   1     -15.562  16.805 -24.427  0.00  0.00     0.089 C 
ATOM     15  H47 LEU d   1     -15.514  17.876 -24.675  0.00  0.00     0.087 H 
BRANCH  14  16
ATOM     16  N   LEU d   1     -16.837  16.507 -23.789  0.00  0.00    -0.346 N 
ATOM     17  C   PRO d   1     -17.929  17.207 -24.074  0.00  0.00     0.241 C 
ATOM     18  O   PRO d   1     -17.927  18.158 -24.857  0.00  0.00    -0.271 OA
ATOM     19  H46 LEU d   1     -16.891  15.762 -23.124  0.00  0.00     0.163 HD
BRANCH  17  20
ATOM     20  CA  PRO d   1     -19.222  16.780 -23.377  0.00  0.00     0.091 C 
ATOM     21  CB  PRO d   1     -20.008  15.773 -24.217  0.00  0.00    -0.036 C 
ATOM     22  CG  PRO d   1     -21.435  16.094 -23.891  0.00  0.00    -0.048 C 
ATOM     23  H40 PRO d   1     -19.760  14.741 -23.929  0.00  0.00     0.036 H 
ATOM     24  H41 PRO d   1     -19.808  15.912 -25.290  0.00  0.00     0.036 H 
ATOM     25  CD  PRO d   1     -21.446  17.593 -23.884  0.00  0.00    -0.001 C 
ATOM     26  H42 PRO d   1     -22.116  15.697 -24.658  0.00  0.00     0.035 H 
ATOM     27  H43 PRO d   1     -21.717  15.691 -22.907  0.00  0.00     0.035 H 
ATOM     28  N   PRO d   1     -20.151  17.907 -23.256  0.00  0.00    -0.337 N 
ATOM     29  H44 PRO d   1     -21.503  17.997 -24.906  0.00  0.00     0.064 H 
ATOM     30  H45 PRO d   1     -22.284  17.983 -23.288  0.00  0.00     0.064 H 
ATOM     31  C   ALA d   1     -19.833  19.010 -22.571  0.00  0.00     0.243 C 
ATOM     32  O   ALA d   1     -18.752  19.136 -22.000  0.00  0.00    -0.271 OA
ATOM     33  H39 PRO d   1     -18.981  16.361 -22.389  0.00  0.00     0.087 H 
BRANCH  31  34
ATOM     34  CA  ALA d   1     -20.879  20.110 -22.521  0.00  0.00     0.086 C 
ATOM     35  H35 ALA d   1     -21.857  19.647 -22.324  0.00  0.00     0.086 H 
BRANCH  34  36
ATOM     36  N   ALA d   1     -20.605  21.063 -21.457  0.00  0.00    -0.346 N 
ATOM     37  C   LEU d   1     -21.235  20.999 -20.288  0.00  0.00     0.241 C 
ATOM     38  O   LEU d   1     -22.067  20.134 -20.020  0.00  0.00    -0.271 OA
ATOM     39  H34 ALA d   1     -19.927  21.783 -21.608  0.00  0.00     0.163 HD
BRANCH  37  40
ATOM     40  CA  LEU d   1     -20.876  22.077 -19.271  0.00  0.00     0.089 C 
ATOM     41  H24 LEU d   1     -21.100  21.709 -18.259  0.00  0.00     0.087 H 
BRANCH  40  42
ATOM     42  N   LEU d   1     -19.465  22.416 -19.344  0.00  0.00    -0.346 N 
ATOM     43  C   ASN d   1     -18.523  21.767 -18.666  0.00  0.00     0.241 C 
ATOM     44  O   ASN d   1     -18.751  20.819 -17.908  0.00  0.00    -0.271 OA
ATOM     45  H23 LEU d   1     -19.189  23.175 -19.933  0.00  0.00     0.163 HD
BRANCH  43  46
ATOM     46  CA  ASN d   1     -17.107  22.282 -18.901  0.00  0.00     0.097 C 
ATOM     47  H18 ASN d   1     -17.213  23.220 -19.466  0.00  0.00     0.088 H 
BRANCH  46  48
ATOM     48  N   ASN d   1     -16.334  22.623 -17.711  0.00  0.00    -0.346 N 
ATOM     49  C   PHE d   1     -16.698  23.615 -16.891  0.00  0.00     0.241 C 
ATOM     50  O   PHE d   1     -17.708  24.293 -17.066  0.00  0.00    -0.271 OA
ATOM     51  H17 ASN d   1     -15.508  22.099 -17.503  0.00  0.00     0.163 HD
BRANCH  49  52
ATOM     52  CA  PHE d   1     -15.755  23.880 -15.706  0.00  0.00     0.093 C 
ATOM     53  H9  PHE d   1     -15.742  23.045 -14.990  0.00  0.00     0.088 H 
BRANCH  52  54
ATOM     54  N   PHE d   1     -14.510  24.003 -16.434  0.00  0.00    -0.346 N 
ATOM     55  C   SER d   1     -13.801  22.908 -16.663  0.00  0.00     0.251 C 
ATOM     56  O   SER d   1     -14.118  21.817 -16.189  0.00  0.00    -0.271 OA
ATOM     57  H8  PHE d   1     -14.192  24.895 -16.757  0.00  0.00     0.163 HD
BRANCH  55  58
ATOM     58  CA  SER d   1     -12.546  23.051 -17.517  0.00  0.00     0.195 C 
ATOM     59  H4  SER d   1     -12.735  23.840 -18.260  0.00  0.00     0.102 H 
BRANCH  58  60
ATOM     60  N   SER d   1     -11.325  23.442 -16.759  0.00  0.00    -0.064 N 
ATOM     61  H1  SER d   1     -10.545  23.515 -17.393  0.00  0.00     0.275 HD
ATOM     62  H2  SER d   1     -11.126  22.744 -16.060  0.00  0.00     0.275 HD
ATOM     63  H3  SER d   1     -11.478  24.332 -16.311  0.00  0.00     0.275 HD
ENDBRANCH  58  60
BRANCH  58  64
ATOM     64  CB  SER d   1     -12.320  21.727 -18.258  0.00  0.00     0.051 C 
ATOM     65  H5  SER d   1     -13.248  21.446 -18.778  0.00  0.00     0.077 H 
ATOM     66  H6  SER d   1     -12.059  20.948 -17.526  0.00  0.00     0.077 H 
BRANCH  64  67
ATOM     67  OG  SER d   1     -11.275  21.834 -19.208  0.00  0.00    -0.398 OA
ATOM     68  H7  SER d   1     -11.162  21.000 -19.648  0.00  0.00     0.209 HD
ENDBRANCH  64  67
ENDBRANCH  58  64
ENDBRANCH  55  58
ENDBRANCH  52  54
BRANCH  52  69
ATOM     69  CB  PHE d   1     -16.097  25.193 -14.973  0.00  0.00    -0.014 C 
ATOM     70  H10 PHE d   1     -17.159  25.163 -14.688  0.00  0.00     0.043 H 
ATOM     71  H11 PHE d   1     -15.928  26.030 -15.667  0.00  0.00     0.043 H 
BRANCH  69  72
ATOM     72  CG  PHE d   1     -15.270  25.439 -13.715  0.00  0.00    -0.056 A 
ATOM     73  CD1 PHE d   1     -14.982  26.742 -13.296  0.00  0.00    -0.077 A 
ATOM     74  CE1 PHE d   1     -14.228  26.980 -12.139  0.00  0.00    -0.082 A 
ATOM     75  H12 PHE d   1     -15.348  27.582 -13.876  0.00  0.00     0.084 H 
ATOM     76  CZ  PHE d   1     -13.752  25.905 -11.386  0.00  0.00    -0.083 A 
ATOM     77  H14 PHE d   1     -14.015  27.997 -11.829  0.00  0.00     0.083 H 
ATOM     78  CE2 PHE d   1     -14.032  24.600 -11.790  0.00  0.00    -0.082 A 
ATOM     79  H16 PHE d   1     -13.167  26.084 -10.491  0.00  0.00     0.083 H 
ATOM     80  CD2 PHE d   1     -14.789  24.373 -12.951  0.00  0.00    -0.077 A 
ATOM     81  H15 PHE d   1     -13.666  23.762 -11.209  0.00  0.00     0.083 H 
ATOM     82  H13 PHE d   1     -15.003  23.356 -13.259  0.00  0.00     0.084 H 
ENDBRANCH  69  72
ENDBRANCH  52  69
ENDBRANCH  49  52
ENDBRANCH  46  48
BRANCH  46  83
ATOM     83  CB  ASN d   1     -16.344  21.289 -19.807  0.00  0.00     0.036 C 
ATOM     84  H19 ASN d   1     -15.350  21.708 -20.023  0.00  0.00     0.051 H 
ATOM     85  H20 ASN d   1     -16.905  21.173 -20.746  0.00  0.00     0.051 H 
BRANCH  83  86
ATOM     86  CG  ASN d   1     -16.160  19.902 -19.178  0.00  0.00     0.217 C 
ATOM     87  ND2 ASN d   1     -16.806  18.895 -19.765  0.00  0.00    -0.370 N 
ATOM     88  H21 ASN d   1     -16.724  17.968 -19.400  0.00  0.00     0.159 HD
ATOM     89  H22 ASN d   1     -17.373  19.067 -20.571  0.00  0.00     0.159 HD
ATOM     90  OD1 ASN d   1     -15.442  19.741 -18.193  0.00  0.00    -0.274 OA
ENDBRANCH  83  86
ENDBRANCH  46  83
ENDBRANCH  43  46
ENDBRANCH  40  42
BRANCH  40  91
ATOM     91  CB  LEU d   1     -21.728  23.310 -19.562  0.00  0.00    -0.035 C 
ATOM     92  H25 LEU d   1     -22.774  23.051 -19.343  0.00  0.00     0.037 H 
ATOM     93  H26 LEU d   1     -21.624  23.542 -20.632  0.00  0.00     0.037 H 
BRANCH  91  94
ATOM     94  CG  LEU d   1     -21.393  24.575 -18.781  0.00  0.00    -0.059 C 
ATOM     95  H27 LEU d   1     -20.368  24.890 -19.027  0.00  0.00     0.038 H 
BRANCH  94  96
ATOM     96  CD1 LEU d   1     -22.358  25.686 -19.179  0.00  0.00    -0.073 C 
ATOM     97  H28 LEU d   1     -22.117  26.600 -18.616  0.00  0.00     0.028 H 
ATOM     98  H29 LEU d   1     -23.388  25.376 -18.951  0.00  0.00     0.028 H 
ATOM     99  H30 LEU d   1     -22.265  25.884 -20.257  0.00  0.00     0.028 H 
ENDBRANCH  94  96
BRANCH  94 100
ATOM    100  CD2 LEU d   1     -21.472  24.291 -17.292  0.00  0.00    -0.073 C 
ATOM    101  H31 LEU d   1     -20.767  23.487 -17.034  0.00  0.00     0.028 H 
ATOM    102  H32 LEU d   1     -22.494  23.979 -17.032  0.00  0.00     0.028 H 
ATOM    103  H33 LEU d   1     -21.212  25.201 -16.731  0.00  0.00     0.028 H 
ENDBRANCH  94 100
ENDBRANCH  91  94
ENDBRANCH  40  91
ENDBRANCH  37  40
ENDBRANCH  34  36
BRANCH  34 104
ATOM    104  CB  ALA d   1     -20.945  20.836 -23.883  0.00  0.00    -0.049 C 
ATOM    105  H36 ALA d   1     -21.152  20.105 -24.678  0.00  0.00     0.030 H 
ATOM    106  H37 ALA d   1     -19.983  21.331 -24.082  0.00  0.00     0.030 H 
ATOM    107  H38 ALA d   1     -21.747  21.589 -23.859  0.00  0.00     0.030 H 
ENDBRANCH  34 104
ENDBRANCH  31  34
ENDBRANCH  17  20
ENDBRANCH  14  16
BRANCH  14 108
ATOM    108  CB  LEU d   1     -14.401  16.445 -23.504  0.00  0.00    -0.035 C 
ATOM    109  H48 LEU d   1     -13.470  16.631 -24.060  0.00  0.00     0.037 H 
ATOM    110  H49 LEU d   1     -14.484  15.372 -23.276  0.00  0.00     0.037 H 
BRANCH 108 111
ATOM    111  CG  LEU d   1     -14.292  17.188 -22.171  0.00  0.00    -0.059 C 
ATOM    112  H50 LEU d   1     -15.243  17.091 -21.627  0.00  0.00     0.038 H 
BRANCH 111 113
ATOM    113  CD1 LEU d   1     -13.179  16.555 -21.337  0.00  0.00    -0.073 C 
ATOM    114  H51 LEU d   1     -13.095  17.084 -20.376  0.00  0.00     0.028 H 
ATOM    115  H52 LEU d   1     -12.226  16.629 -21.881  0.00  0.00     0.028 H 
ATOM    116  H53 LEU d   1     -13.415  15.497 -21.153  0.00  0.00     0.028 H 
ENDBRANCH 111 113
BRANCH 111 117
ATOM    117  CD2 LEU d   1     -14.019  18.670 -22.417  0.00  0.00    -0.073 C 
ATOM    118  H54 LEU d   1     -14.835  19.098 -23.018  0.00  0.00     0.028 H 
ATOM    119  H55 LEU d   1     -13.067  18.783 -22.957  0.00  0.00     0.028 H 
ATOM    120  H56 LEU d   1     -13.959  19.197 -21.453  0.00  0.00     0.028 H 
ENDBRANCH 111 117
ENDBRANCH 108 111
ENDBRANCH  14 108
ENDBRANCH  11  14
ENDBRANCH   7  10
ENDBRANCH   4   7
ENDBRANCH   1   3
BRANCH   1 121
ATOM    121  CB  ARG d   1     -17.652   9.748 -28.550  0.00  0.00    -0.036 C 
ATOM    122  H62 ARG d   1     -17.994  10.556 -29.213  0.00  0.00     0.036 H 
ATOM    123  H63 ARG d   1     -18.463   9.017 -28.413  0.00  0.00     0.036 H 
BRANCH 121 124
ATOM    124  CG  ARG d   1     -16.478   9.043 -29.219  0.00  0.00    -0.048 C 
ATOM    125  H64 ARG d   1     -16.133   8.229 -28.565  0.00  0.00     0.035 H 
ATOM    126  H65 ARG d   1     -15.663   9.768 -29.363  0.00  0.00     0.035 H 
BRANCH 124 127
ATOM    127  CD  ARG d   1     -16.863   8.458 -30.574  0.00  0.00     0.009 C 
ATOM    128  H66 ARG d   1     -17.702   9.035 -30.990  0.00  0.00     0.064 H 
ATOM    129  H67 ARG d   1     -17.169   7.410 -30.440  0.00  0.00     0.064 H 
BRANCH 127 130
ATOM    130  NE  ARG d   1     -15.738   8.512 -31.503  0.00  0.00    -0.227 N 
ATOM    131  CZ  ARG d   1     -15.820   8.242 -32.803  0.00  0.00     0.665 C 
ATOM    132  NH2 ARG d   1     -14.740   8.346 -33.571  0.00  0.00    -0.235 N 
ATOM    133  NH1 ARG d   1     -16.982   7.891 -33.339  0.00  0.00    -0.235 N 
ATOM    134  H71 ARG d   1     -13.837   8.618 -33.156  0.00  0.00     0.174 HD
ATOM    135  H72 ARG d   1     -14.806   8.154 -34.581  0.00  0.00     0.174 HD
ATOM    136  H69 ARG d   1     -17.043   7.683 -34.346  0.00  0.00     0.174 HD
ATOM    137  H70 ARG d   1     -17.823   7.827 -32.748  0.00  0.00     0.174 HD
ATOM    138  H68 ARG d   1     -14.817   8.777 -31.126  0.00  0.00     0.177 HD
ENDBRANCH 127 130
ENDBRANCH 124 127
ENDBRANCH 121 124
ENDBRANCH   1 121
BRANCH   1 139
ATOM    139  C   ARG d   1     -16.570   9.309 -26.372  0.00  0.00     0.241 C 
ATOM    140  O   ARG d   1     -15.343   9.328 -26.263  0.00  0.00    -0.271 OA
ATOM    141  N   ARG d   1     -17.348   8.393 -25.811  0.00  0.00    -0.346 N 
ATOM    142  H73 ARG d   1     -18.337   8.471 -25.939  0.00  0.00     0.163 HD
BRANCH 141 143
ATOM    143  CA  ARG d   1     -16.844   7.281 -25.019  0.00  0.00     0.089 C 
ATOM    144  H74 ARG d   1     -15.780   7.424 -24.780  0.00  0.00     0.087 H 
BRANCH 143 145
ATOM    145  CB  ARG d   1     -17.662   7.138 -23.738  0.00  0.00    -0.036 C 
ATOM    146  H75 ARG d   1     -18.056   6.112 -23.697  0.00  0.00     0.036 H 
ATOM    147  H76 ARG d   1     -18.499   7.850 -23.786  0.00  0.00     0.036 H 
BRANCH 145 148
ATOM    148  CG  ARG d   1     -16.904   7.396 -22.473  0.00  0.00    -0.048 C 
ATOM    149  H77 ARG d   1     -16.619   8.458 -22.434  0.00  0.00     0.035 H 
ATOM    150  H78 ARG d   1     -15.998   6.772 -22.463  0.00  0.00     0.035 H 
BRANCH 148 151
ATOM    151  CD  ARG d   1     -17.747   7.065 -21.259  0.00  0.00     0.009 C 
ATOM    152  H79 ARG d   1     -18.460   7.884 -21.083  0.00  0.00     0.064 H 
ATOM    153  H80 ARG d   1     -17.090   6.957 -20.384  0.00  0.00     0.064 H 
BRANCH 151 154
ATOM    154  NE  ARG d   1     -18.487   5.822 -21.456  0.00  0.00    -0.227 N 
ATOM    155  CZ  ARG d   1     -18.102   4.624 -21.027  0.00  0.00     0.665 C 
ATOM    156  NH2 ARG d   1     -18.856   3.560 -21.279  0.00  0.00    -0.235 N 
ATOM    157  NH1 ARG d   1     -16.968   4.482 -20.356  0.00  0.00    -0.235 N 
ATOM    158  H84 ARG d   1     -19.738   3.666 -21.800  0.00  0.00     0.174 HD
ATOM    159  H85 ARG d   1     -18.559   2.629 -20.953  0.00  0.00     0.174 HD
ATOM    160  H82 ARG d   1     -16.677   3.550 -20.027  0.00  0.00     0.174 HD
ATOM    161  H83 ARG d   1     -16.377   5.303 -20.163  0.00  0.00     0.174 HD
ATOM    162  H81 ARG d   1     -19.379   5.878 -21.968  0.00  0.00     0.177 HD
ENDBRANCH 151 154
ENDBRANCH 148 151
ENDBRANCH 145 148
ENDBRANCH 143 145
BRANCH 143 163
ATOM    163  C   ARG d   1     -17.054   6.027 -25.858  0.00  0.00     0.241 C 
ATOM    164  O   ARG d   1     -17.925   6.002 -26.729  0.00  0.00    -0.271 OA
ATOM    165  N   ARG d   1     -16.265   4.989 -25.611  0.00  0.00    -0.346 N 
ATOM    166  H86 ARG d   1     -15.540   5.055 -24.925  0.00  0.00     0.163 HD
BRANCH 165 167
ATOM    167  CA  ARG d   1     -16.469   3.757 -26.351  0.00  0.00     0.089 C 
ATOM    168  H87 ARG d   1     -16.946   3.973 -27.318  0.00  0.00     0.087 H 
BRANCH 167 169
ATOM    169  CB  ARG d   1     -15.157   3.004 -26.590  0.00  0.00    -0.036 C 
ATOM    170  H88 ARG d   1     -14.955   2.368 -25.716  0.00  0.00     0.036 H 
ATOM    171  H89 ARG d   1     -14.347   3.740 -26.703  0.00  0.00     0.036 H 
BRANCH 169 172
ATOM    172  CG  ARG d   1     -15.187   2.118 -27.841  0.00  0.00    -0.048 C 
ATOM    173  H90 ARG d   1     -14.352   1.404 -27.786  0.00  0.00     0.035 H 
ATOM    174  H91 ARG d   1     -15.065   2.758 -28.728  0.00  0.00     0.035 H 
BRANCH 172 175
ATOM    175  CD  ARG d   1     -16.497   1.330 -27.981  0.00  0.00     0.009 C 
ATOM    176  H92 ARG d   1     -17.323   1.944 -27.593  0.00  0.00     0.064 H 
ATOM    177  H93 ARG d   1     -16.419   0.405 -27.391  0.00  0.00     0.064 H 
BRANCH 175 178
ATOM    178  NE  ARG d   1     -16.785   0.978 -29.374  0.00  0.00    -0.227 N 
ATOM    179  CZ  ARG d   1     -17.559   1.692 -30.192  0.00  0.00     0.665 C 
ATOM    180  NH2 ARG d   1     -17.738   1.300 -31.449  0.00  0.00    -0.235 N 
ATOM    181  NH1 ARG d   1     -18.143   2.807 -29.764  0.00  0.00    -0.235 N 
ATOM    182  H97 ARG d   1     -17.289   0.437 -31.788  0.00  0.00     0.174 HD
ATOM    183  H98 ARG d   1     -18.326   1.859 -32.084  0.00  0.00     0.174 HD
ATOM    184  H95 ARG d   1     -18.739   3.353 -30.402  0.00  0.00     0.174 HD
ATOM    185  H96 ARG d   1     -17.999   3.124 -28.795  0.00  0.00     0.174 HD
ATOM    186  H94 ARG d   1     -16.359   0.118 -29.748  0.00  0.00     0.177 HD
ENDBRANCH 175 178
ENDBRANCH 172 175
ENDBRANCH 169 172
ENDBRANCH 167 169
BRANCH 167 187
ATOM    187  C   ARG d   1     -17.382   2.907 -25.481  0.00  0.00     0.241 C 
ATOM    188  O   ARG d   1     -16.972   2.434 -24.417  0.00  0.00    -0.271 OA
ATOM    189  N   VAL d   1     -18.628   2.741 -25.915  0.00  0.00    -0.346 N 
ATOM    190  H99 VAL d   1     -18.915   3.183 -26.765  0.00  0.00     0.163 HD
BRANCH 189 191
ATOM    191  CA  VAL d   1     -19.584   1.925 -25.174  0.00  0.00     0.092 C 
ATOM    192 0H10 VAL d   1     -19.723   2.321 -24.157  0.00  0.00     0.088 H 
BRANCH 191 193
ATOM    193  CB  VAL d   1     -20.945   1.863 -25.901  0.00  0.00    -0.033 C 
ATOM    194 1H10 VAL d   1     -21.643   1.261 -25.301  0.00  0.00     0.042 H 
BRANCH 193 195
ATOM    195  CG2 VAL d   1     -20.775   1.208 -27.267  0.00  0.00    -0.071 C 
ATOM    196 5H10 VAL d   1     -20.363   0.196 -27.140  0.00  0.00     0.028 H 
ATOM    197 6H10 VAL d   1     -20.087   1.810 -27.879  0.00  0.00     0.028 H 
ATOM    198 7H10 VAL d   1     -21.752   1.146 -27.768  0.00  0.00     0.028 H 
ENDBRANCH 193 195
BRANCH 193 199
ATOM    199  CG1 VAL d   1     -21.512   3.258 -26.062  0.00  0.00    -0.071 C 
ATOM    200 2H10 VAL d   1     -22.480   3.203 -26.581  0.00  0.00     0.028 H 
ATOM    201 3H10 VAL d   1     -20.815   3.871 -26.652  0.00  0.00     0.028 H 
ATOM    202 4H10 VAL d   1     -21.652   3.713 -25.071  0.00  0.00     0.028 H 
ENDBRANCH 193 199
ENDBRANCH 191 193
BRANCH 191 203
ATOM    203  C   VAL d   1     -18.974   0.525 -25.138  0.00  0.00     0.241 C 
ATOM    204  O   VAL d   1     -18.121   0.210 -25.966  0.00  0.00    -0.271 OA
ATOM    205  N   GLN d   1     -19.384  -0.311 -24.189  0.00  0.00    -0.346 N 
ATOM    206 8H10 GLN d   1     -20.070  -0.016 -23.524  0.00  0.00     0.163 HD
BRANCH 205 207
ATOM    207  CA  GLN d   1     -18.832  -1.658 -24.120  0.00  0.00     0.090 C 
ATOM    208 9H10 GLN d   1     -18.189  -1.798 -25.002  0.00  0.00     0.087 H 
BRANCH 207 209
ATOM    209  CB  GLN d   1     -17.942  -1.813 -22.870  0.00  0.00    -0.030 C 
ATOM    210 0H11 GLN d   1     -17.014  -1.250 -23.049  0.00  0.00     0.037 H 
ATOM    211 1H11 GLN d   1     -17.706  -2.882 -22.759  0.00  0.00     0.037 H 
BRANCH 209 212
ATOM    212  CG  GLN d   1     -18.527  -1.330 -21.551  0.00  0.00     0.011 C 
ATOM    213 2H11 GLN d   1     -19.090  -0.403 -21.732  0.00  0.00     0.047 H 
ATOM    214 3H11 GLN d   1     -17.703  -1.128 -20.851  0.00  0.00     0.047 H 
BRANCH 212 215
ATOM    215  CD  GLN d   1     -19.459  -2.353 -20.925  0.00  0.00     0.215 C 
ATOM    216  NE2 GLN d   1     -20.477  -2.755 -21.678  0.00  0.00    -0.370 N 
ATOM    217 4H11 GLN d   1     -21.127  -3.427 -21.323  0.00  0.00     0.159 HD
ATOM    218 5H11 GLN d   1     -20.594  -2.385 -22.600  0.00  0.00     0.159 HD
ATOM    219  OE1 GLN d   1     -19.268  -2.780 -19.780  0.00  0.00    -0.274 OA
ENDBRANCH 212 215
ENDBRANCH 209 212
ENDBRANCH 207 209
BRANCH 207 220
ATOM    220  C   GLN d   1     -19.924  -2.721 -24.186  0.00  0.00     0.241 C 
ATOM    221  O   GLN d   1     -19.669  -3.917 -24.027  0.00  0.00    -0.271 OA
ATOM    222  N   SER d   1     -21.138  -2.255 -24.466  0.00  0.00    -0.344 N 
ATOM    223 6H11 SER d   1     -21.239  -1.268 -24.594  0.00  0.00     0.163 HD
BRANCH 222 224
ATOM    224  CA  SER d   1     -22.340  -3.086 -24.601  0.00  0.00     0.109 C 
ATOM    225 7H11 SER d   1     -22.800  -3.120 -23.602  0.00  0.00     0.090 H 
BRANCH 224 226
ATOM    226  CB  SER d   1     -23.319  -2.415 -25.571  0.00  0.00     0.044 C 
ATOM    227 8H11 SER d   1     -24.228  -3.030 -25.644  0.00  0.00     0.077 H 
ATOM    228 9H11 SER d   1     -22.846  -2.341 -26.561  0.00  0.00     0.077 H 
BRANCH 226 229
ATOM    229  OG  SER d   1     -23.675  -1.121 -25.135  0.00  0.00    -0.398 OA
ATOM    230 0H12 SER d   1     -24.088  -1.178 -24.282  0.00  0.00     0.209 HD
ENDBRANCH 226 229
ENDBRANCH 224 226
BRANCH 224 231
ATOM    231  C   SER d   1     -22.204  -4.536 -25.073  0.00  0.00     0.243 C 
ATOM    232  O   SER d   1     -22.176  -5.491 -24.289  0.00  0.00    -0.271 OA
ATOM    233  N   GLN d   1     -22.187  -4.654 -26.395  0.00  0.00    -0.345 N 
ATOM    234 1H12 GLN d   1     -22.220  -3.811 -26.931  0.00  0.00     0.163 HD
BRANCH 233 235
ATOM    235  CA  GLN d   1     -22.125  -5.909 -27.128  0.00  0.00     0.093 C 
ATOM    236 2H12 GLN d   1     -21.182  -6.443 -26.941  0.00  0.00     0.089 H 
BRANCH 235 237
ATOM    237  CB  GLN d   1     -23.323  -6.804 -26.746  0.00  0.00    -0.029 C 
ATOM    238 3H12 GLN d   1     -24.157  -6.147 -26.459  0.00  0.00     0.037 H 
ATOM    239 4H12 GLN d   1     -23.025  -7.417 -25.882  0.00  0.00     0.037 H 
BRANCH 237 240
ATOM    240  CG  GLN d   1     -23.826  -7.752 -27.845  0.00  0.00     0.011 C 
ATOM    241 5H12 GLN d   1     -23.764  -7.227 -28.810  0.00  0.00     0.047 H 
ATOM    242 6H12 GLN d   1     -24.875  -8.004 -27.631  0.00  0.00     0.047 H 
BRANCH 240 243
ATOM    243  CD  GLN d   1     -23.039  -9.040 -27.952  0.00  0.00     0.215 C 
ATOM    244  NE2 GLN d   1     -23.725 -10.116 -28.329  0.00  0.00    -0.370 N 
ATOM    245 7H12 GLN d   1     -23.262 -10.998 -28.419  0.00  0.00     0.159 HD
ATOM    246 8H12 GLN d   1     -24.703 -10.043 -28.523  0.00  0.00     0.159 HD
ATOM    247  OE1 GLN d   1     -21.829  -9.070 -27.718  0.00  0.00    -0.274 OA
ENDBRANCH 240 243
ENDBRANCH 237 240
ENDBRANCH 235 237
BRANCH 235 248
ATOM    248  C   GLN d   1     -22.229  -5.448 -28.585  0.00  0.00     0.163 C 
ATOM    249  O   GLN d   1     -23.317  -5.576 -29.191  0.00  0.00    -0.648 OA
BRANCH 248 250
ATOM    250  O1  GLN d   1     -21.175  -4.918 -29.199  0.00  0.00    -0.775 OA
ATOM    251 9H12 GLN d   1     -20.439  -4.895 -28.600  0.00  0.00     0.167 HD
ENDBRANCH 248 250
ENDBRANCH 235 248
ENDBRANCH 233 235
ENDBRANCH 224 231
ENDBRANCH 222 224
ENDBRANCH 207 220
ENDBRANCH 205 207
ENDBRANCH 191 203
ENDBRANCH 189 191
ENDBRANCH 167 187
ENDBRANCH 165 167
ENDBRANCH 143 163
ENDBRANCH 141 143
ENDBRANCH   1 139
TORSDOF 68
