REMARK WARNING: 32 MAX_TORS EXCEEDED!!!
REMARK  39 active torsions:
REMARK  status: ('A' for Active; 'I' for Inactive)
REMARK    1  A    between atoms: N_1  and  CA_2 
REMARK    2  A    between atoms: CA_2  and  C_3 
REMARK    3  A    between atoms: CA_2  and  CB_5 
REMARK       I    between atoms: C_3  and  N_8 
REMARK    4  A    between atoms: CB_5  and  OG1_6 
REMARK    5  A    between atoms: CB_5  and  CG2_7 
REMARK    6  A    between atoms: N_8  and  CA_9 
REMARK    7  A    between atoms: CA_9  and  C_10 
REMARK    8  A    between atoms: CA_9  and  CB_12 
REMARK       I    between atoms: C_10  and  N_16 
REMARK    9  A    between atoms: CB_12  and  CG_13 
REMARK       I    between atoms: CG_13  and  ND2_15 
REMARK   10  A    between atoms: N_16  and  CA_17 
REMARK   11  A    between atoms: CA_17  and  C_18 
REMARK   12  A    between atoms: CA_17  and  CB_20 
REMARK       I    between atoms: C_18  and  N_25 
REMARK   13  A    between atoms: CB_20  and  CG_21 
REMARK   14  A    between atoms: CG_21  and  CD_22 
REMARK   15  A    between atoms: N_25  and  CA_26 
REMARK   16  A    between atoms: CA_26  and  C_27 
REMARK   17  A    between atoms: CA_26  and  CB_29 
REMARK       I    between atoms: C_27  and  N_41 
REMARK   18  A    between atoms: CB_29  and  CG_30 
REMARK   19  A    between atoms: CZ_35  and  OH_36 
REMARK   20  A    between atoms: OH_36  and  P_37 
REMARK   21  A    between atoms: N_41  and  CA_42 
REMARK   22  A    between atoms: CA_42  and  C_43 
REMARK   23  A    between atoms: CA_42  and  CB_45 
REMARK       I    between atoms: C_43  and  N_48 
REMARK   24  A    between atoms: CB_45  and  OG1_46 
REMARK   25  A    between atoms: CB_45  and  CG2_47 
REMARK   26  A    between atoms: N_48  and  CA_49 
REMARK   27  A    between atoms: CA_49  and  C_50 
REMARK   28  A    between atoms: CA_49  and  CB_52 
REMARK       I    between atoms: C_50  and  N_57 
REMARK   29  A    between atoms: CB_52  and  CG_53 
REMARK   30  A    between atoms: CG_53  and  CD_54 
REMARK   31  A    between atoms: N_57  and  CA_58 
REMARK   32  A    between atoms: CA_58  and  C_59 
REMARK       I    between atoms: C_59  and  N_61 
REMARK   33  A    between atoms: CA_62  and  C_63 
REMARK       I    between atoms: C_63  and  N_68 
REMARK   34  A    between atoms: N_68  and  CA_69 
REMARK   35  A    between atoms: CA_69  and  C_70 
REMARK   36  A    between atoms: CA_69  and  CB_72 
REMARK   37  A    between atoms: C_70  and  O_129 
REMARK   38  A    between atoms: CB_72  and  OG1_73 
REMARK   39  A    between atoms: CB_72  and  CG2_74 
ROOT
ATOM      1  N   THR d   1      63.695  40.688 -14.094  0.00  0.00    -0.344 N 
ATOM      2  H30 THR d   1      64.267  41.498 -14.227  0.00  0.00     0.163 HD
ATOM      3  C   PTR d   1      63.839  39.958 -12.993  0.00  0.00     0.241 C 
ATOM      4  O   PTR d   1      63.202  38.928 -12.778  0.00  0.00    -0.271 OA
ENDROOT
BRANCH   3   5
ATOM      5  CA  PTR d   1      64.836  40.457 -11.969  0.00  0.00     0.093 C 
ATOM      6  H23 PTR d   1      65.184  41.458 -12.264  0.00  0.00     0.088 H 
BRANCH   5   7
ATOM      7  N   PTR d   1      64.187  40.546 -10.684  0.00  0.00    -0.346 N 
ATOM      8  C   GLU d   1      63.821  41.708 -10.156  0.00  0.00     0.241 C 
ATOM      9  O   GLU d   1      64.069  42.800 -10.669  0.00  0.00    -0.271 OA
ATOM     10  H22 PTR d   1      64.007  39.705 -10.174  0.00  0.00     0.163 HD
BRANCH   8  11
ATOM     11  CA  GLU d   1      63.049  41.619  -8.846  0.00  0.00     0.090 C 
ATOM     12  H17 GLU d   1      62.840  40.552  -8.677  0.00  0.00     0.087 H 
BRANCH  11  13
ATOM     13  N   GLU d   1      63.712  42.081  -7.656  0.00  0.00    -0.346 N 
ATOM     14  C   ASN d   1      64.547  41.255  -7.042  0.00  0.00     0.241 C 
ATOM     15  O   ASN d   1      64.771  40.119  -7.469  0.00  0.00    -0.271 OA
ATOM     16  H16 GLU d   1      63.547  43.001  -7.301  0.00  0.00     0.163 HD
BRANCH  14  17
ATOM     17  CA  ASN d   1      65.208  41.746  -5.754  0.00  0.00     0.097 C 
ATOM     18  H11 ASN d   1      64.486  42.384  -5.223  0.00  0.00     0.088 H 
BRANCH  17  19
ATOM     19  N   ASN d   1      65.547  40.633  -4.887  0.00  0.00    -0.345 N 
ATOM     20  C   THR d   1      64.613  40.106  -4.105  0.00  0.00     0.251 C 
ATOM     21  O   THR d   1      63.460  40.540  -4.059  0.00  0.00    -0.271 OA
ATOM     22  H10 ASN d   1      66.477  40.266  -4.879  0.00  0.00     0.163 HD
BRANCH  20  23
ATOM     23  CA  THR d   1      65.024  38.928  -3.237  0.00  0.00     0.199 C 
ATOM     24  H4  THR d   1      66.123  38.892  -3.199  0.00  0.00     0.103 H 
BRANCH  23  25
ATOM     25  N   THR d   1      64.538  39.029  -1.862  0.00  0.00    -0.064 N 
ATOM     26  H1  THR d   1      64.892  39.874  -1.442  0.00  0.00     0.275 HD
ATOM     27  H2  THR d   1      64.857  38.232  -1.333  0.00  0.00     0.275 HD
ATOM     28  H3  THR d   1      63.530  39.050  -1.863  0.00  0.00     0.275 HD
ENDBRANCH  23  25
BRANCH  23  29
ATOM     29  CB  THR d   1      64.511  37.651  -3.926  0.00  0.00     0.068 C 
ATOM     30  H5  THR d   1      63.416  37.701  -4.013  0.00  0.00     0.086 H 
BRANCH  29  31
ATOM     31  OG1 THR d   1      64.877  36.508  -3.138  0.00  0.00    -0.393 OA
ATOM     32  H6  THR d   1      64.561  35.718  -3.562  0.00  0.00     0.210 HD
ENDBRANCH  29  31
BRANCH  29  33
ATOM     33  CG2 THR d   1      65.125  37.515  -5.329  0.00  0.00    -0.050 C 
ATOM     34  H7  THR d   1      64.748  36.599  -5.807  0.00  0.00     0.031 H 
ATOM     35  H8  THR d   1      66.221  37.462  -5.246  0.00  0.00     0.031 H 
ATOM     36  H9  THR d   1      64.845  38.387  -5.938  0.00  0.00     0.031 H 
ENDBRANCH  29  33
ENDBRANCH  23  29
ENDBRANCH  20  23
ENDBRANCH  17  19
BRANCH  17  37
ATOM     37  CB  ASN d   1      66.450  42.590  -6.061  0.00  0.00     0.036 C 
ATOM     38  H12 ASN d   1      66.169  43.385  -6.767  0.00  0.00     0.051 H 
ATOM     39  H13 ASN d   1      67.210  41.942  -6.522  0.00  0.00     0.051 H 
BRANCH  37  40
ATOM     40  CG  ASN d   1      67.053  43.239  -4.803  0.00  0.00     0.217 C 
ATOM     41  OD1 ASN d   1      66.351  43.916  -4.046  0.00  0.00    -0.274 OA
ATOM     42  ND2 ASN d   1      68.359  43.041  -4.591  0.00  0.00    -0.370 N 
ATOM     43  H14 ASN d   1      68.801  43.441  -3.788  0.00  0.00     0.159 HD
ATOM     44  H15 ASN d   1      68.893  42.493  -5.235  0.00  0.00     0.159 HD
ENDBRANCH  37  40
ENDBRANCH  17  37
ENDBRANCH  14  17
ENDBRANCH  11  13
BRANCH  11  45
ATOM     45  CB  GLU d   1      61.709  42.328  -9.056  0.00  0.00    -0.029 C 
ATOM     46  H18 GLU d   1      61.788  43.366  -8.699  0.00  0.00     0.037 H 
ATOM     47  H19 GLU d   1      60.927  41.803  -8.487  0.00  0.00     0.037 H 
BRANCH  45  48
ATOM     48  CG  GLU d   1      61.335  42.331 -10.551  0.00  0.00     0.018 C 
ATOM     49  H20 GLU d   1      62.025  41.654 -11.076  0.00  0.00     0.049 H 
ATOM     50  H21 GLU d   1      61.465  43.355 -10.932  0.00  0.00     0.049 H 
BRANCH  48  51
ATOM     51  CD  GLU d   1      59.921  41.892 -10.861  0.00  0.00     0.172 C 
ATOM     52  OE1 GLU d   1      59.609  40.675 -10.825  0.00  0.00    -0.648 OA
ATOM     53  OE2 GLU d   1      59.102  42.777 -11.170  0.00  0.00    -0.648 OA
ENDBRANCH  48  51
ENDBRANCH  45  48
ENDBRANCH  11  45
ENDBRANCH   8  11
ENDBRANCH   5   7
BRANCH   5  54
ATOM     54  CB  PTR d   1      66.033  39.521 -11.907  0.00  0.00    -0.014 C 
ATOM     55  H24 PTR d   1      66.386  39.316 -12.928  0.00  0.00     0.043 H 
ATOM     56  H25 PTR d   1      65.731  38.578 -11.427  0.00  0.00     0.043 H 
BRANCH  54  57
ATOM     57  CG  PTR d   1      67.147  40.145 -11.115  0.00  0.00    -0.056 A 
ATOM     58  CD1 PTR d   1      67.883  41.221 -11.658  0.00  0.00    -0.074 A 
ATOM     59  CE1 PTR d   1      68.913  41.798 -10.904  0.00  0.00    -0.050 A 
ATOM     60  H26 PTR d   1      67.653  41.597 -12.649  0.00  0.00     0.084 H 
ATOM     61  CZ  PTR d   1      69.204  41.298  -9.612  0.00  0.00     0.082 A 
ATOM     62  H28 PTR d   1      69.485  42.625 -11.309  0.00  0.00     0.087 H 
ATOM     63  CE2 PTR d   1      68.488  40.215  -9.032  0.00  0.00    -0.050 A 
ATOM     64  CD2 PTR d   1      67.455  39.651  -9.813  0.00  0.00    -0.074 A 
ATOM     65  H29 PTR d   1      68.723  39.842  -8.042  0.00  0.00     0.087 H 
ATOM     66  H27 PTR d   1      66.882  38.822  -9.413  0.00  0.00     0.084 H 
BRANCH  61  67
ATOM     67  OH  PTR d   1      70.251  41.903  -8.837  0.00  0.00    -0.240 OA
BRANCH  67  68
ATOM     68  P   PTR d   1      70.812  41.399  -7.384  0.00  0.00     0.427 P 
ATOM     69  O1P PTR d   1      69.719  41.449  -6.427  0.00  0.00    -0.617 OA
ATOM     70  O2P PTR d   1      71.912  42.316  -6.970  0.00  0.00    -0.617 OA
ATOM     71  O3P PTR d   1      71.315  39.979  -7.488  0.00  0.00    -0.617 OA
ENDBRANCH  67  68
ENDBRANCH  61  67
ENDBRANCH  54  57
ENDBRANCH   5  54
ENDBRANCH   3   5
BRANCH   1  72
ATOM     72  CA  THR d   1      62.725  40.329 -15.101  0.00  0.00     0.113 C 
ATOM     73  H31 THR d   1      62.126  39.504 -14.689  0.00  0.00     0.091 H 
BRANCH  72  74
ATOM     74  C   THR d   1      63.311  39.840 -16.430  0.00  0.00     0.243 C 
ATOM     75  O   THR d   1      64.469  40.069 -16.724  0.00  0.00    -0.271 OA
ATOM     76  N   GLU d   1      62.496  39.154 -17.218  0.00  0.00    -0.346 N 
ATOM     77  H37 GLU d   1      61.561  38.974 -16.912  0.00  0.00     0.163 HD
BRANCH  76  78
ATOM     78  CA  GLU d   1      62.923  38.658 -18.512  0.00  0.00     0.090 C 
ATOM     79  H38 GLU d   1      63.656  37.856 -18.337  0.00  0.00     0.087 H 
BRANCH  78  80
ATOM     80  C   GLU d   1      63.594  39.721 -19.395  0.00  0.00     0.240 C 
ATOM     81  O   GLU d   1      63.222  40.900 -19.356  0.00  0.00    -0.271 OA
ATOM     82  N   GLY d   1      64.581  39.303 -20.181  0.00  0.00    -0.351 N 
ATOM     83  H43 GLY d   1      64.851  38.340 -20.175  0.00  0.00     0.163 HD
BRANCH  82  84
ATOM     84  CA  GLY d   1      65.265  40.239 -21.045  0.00  0.00     0.069 C 
ATOM     85  H44 GLY d   1      66.037  39.702 -21.615  0.00  0.00     0.078 H 
ATOM     86  H45 GLY d   1      65.739  41.017 -20.428  0.00  0.00     0.078 H 
BRANCH  84  87
ATOM     87  C   GLY d   1      64.301  40.896 -22.015  0.00  0.00     0.238 C 
ATOM     88  O   GLY d   1      63.344  40.256 -22.488  0.00  0.00    -0.272 OA
ATOM     89  N   PRO d   1      64.534  42.178 -22.342  0.00  0.00    -0.337 N 
ATOM     90  CA  PRO d   1      63.697  42.954 -23.261  0.00  0.00     0.091 C 
ATOM     91  CD  PRO d   1      65.727  42.944 -21.940  0.00  0.00    -0.001 C 
ATOM     92  CB  PRO d   1      64.429  44.297 -23.371  0.00  0.00    -0.036 C 
ATOM     93  H46 PRO d   1      62.691  43.096 -22.838  0.00  0.00     0.087 H 
ATOM     94  CG  PRO d   1      65.302  44.348 -22.159  0.00  0.00    -0.048 C 
ATOM     95  H47 PRO d   1      63.712  45.132 -23.369  0.00  0.00     0.036 H 
ATOM     96  H48 PRO d   1      65.035  44.336 -24.288  0.00  0.00     0.036 H 
ATOM     97  H49 PRO d   1      64.739  44.722 -21.291  0.00  0.00     0.035 H 
ATOM     98  H50 PRO d   1      66.174  44.994 -22.337  0.00  0.00     0.035 H 
ATOM     99  H51 PRO d   1      66.593  42.689 -22.569  0.00  0.00     0.064 H 
ATOM    100  H52 PRO d   1      65.976  42.765 -20.884  0.00  0.00     0.064 H 
BRANCH  90 101
ATOM    101  C   PRO d   1      63.571  42.278 -24.623  0.00  0.00     0.241 C 
ATOM    102  O   PRO d   1      64.577  41.941 -25.247  0.00  0.00    -0.271 OA
ATOM    103  N   THR d   1      62.320  42.093 -25.041  0.00  0.00    -0.343 N 
ATOM    104  H53 THR d   1      61.589  42.399 -24.431  0.00  0.00     0.163 HD
BRANCH 103 105
ATOM    105  CA  THR d   1      61.914  41.486 -26.305  0.00  0.00     0.117 C 
ATOM    106  H54 THR d   1      60.861  41.200 -26.164  0.00  0.00     0.093 H 
BRANCH 105 107
ATOM    107  C   THR d   1      62.618  40.200 -26.771  0.00  0.00     0.166 C 
ATOM    108  O   THR d   1      63.809  39.988 -26.533  0.00  0.00    -0.648 OA
BRANCH 107 109
ATOM    109  O   THR d   1      61.923  39.292 -27.449  0.00  0.00    -0.775 OA
ATOM    110  H60 THR d   1      62.318  39.166 -28.304  0.00  0.00     0.167 HD
ENDBRANCH 107 109
ENDBRANCH 105 107
BRANCH 105 111
ATOM    111  CB  THR d   1      61.944  42.554 -27.414  0.00  0.00     0.061 C 
ATOM    112  H55 THR d   1      62.851  43.165 -27.300  0.00  0.00     0.086 H 
BRANCH 111 113
ATOM    113  OG1 THR d   1      60.784  43.383 -27.271  0.00  0.00    -0.393 OA
ATOM    114  H56 THR d   1      60.786  44.049 -27.949  0.00  0.00     0.210 HD
ENDBRANCH 111 113
BRANCH 111 115
ATOM    115  CG2 THR d   1      61.942  41.934 -28.789  0.00  0.00    -0.050 C 
ATOM    116  H57 THR d   1      61.964  42.728 -29.549  0.00  0.00     0.031 H 
ATOM    117  H58 THR d   1      61.032  41.329 -28.917  0.00  0.00     0.031 H 
ATOM    118  H59 THR d   1      62.828  41.293 -28.903  0.00  0.00     0.031 H 
ENDBRANCH 111 115
ENDBRANCH 105 111
ENDBRANCH 103 105
ENDBRANCH  90 101
ENDBRANCH  84  87
ENDBRANCH  82  84
ENDBRANCH  78  80
BRANCH  78 119
ATOM    119  CB  GLU d   1      61.722  38.068 -19.259  0.00  0.00    -0.029 C 
ATOM    120  H39 GLU d   1      61.534  37.058 -18.867  0.00  0.00     0.037 H 
ATOM    121  H40 GLU d   1      61.977  38.005 -20.327  0.00  0.00     0.037 H 
BRANCH 119 122
ATOM    122  CG  GLU d   1      60.434  38.886 -19.119  0.00  0.00     0.018 C 
ATOM    123  H41 GLU d   1      60.589  39.872 -19.581  0.00  0.00     0.049 H 
ATOM    124  H42 GLU d   1      60.209  39.013 -18.050  0.00  0.00     0.049 H 
BRANCH 122 125
ATOM    125  CD  GLU d   1      59.251  38.212 -19.790  0.00  0.00     0.172 C 
ATOM    126  OE1 GLU d   1      59.265  36.963 -19.870  0.00  0.00    -0.648 OA
ATOM    127  OE2 GLU d   1      58.308  38.918 -20.225  0.00  0.00    -0.648 OA
ENDBRANCH 122 125
ENDBRANCH 119 122
ENDBRANCH  78 119
ENDBRANCH  76  78
ENDBRANCH  72  74
BRANCH  72 128
ATOM    128  CB  THR d   1      61.776  41.530 -15.370  0.00  0.00     0.060 C 
ATOM    129  H32 THR d   1      61.211  41.346 -16.296  0.00  0.00     0.086 H 
BRANCH 128 130
ATOM    130  OG1 THR d   1      62.543  42.736 -15.504  0.00  0.00    -0.393 OA
ATOM    131  H33 THR d   1      63.028  42.892 -14.702  0.00  0.00     0.210 HD
ENDBRANCH 128 130
BRANCH 128 132
ATOM    132  CG2 THR d   1      60.815  41.705 -14.216  0.00  0.00    -0.050 C 
ATOM    133  H34 THR d   1      60.150  42.557 -14.419  0.00  0.00     0.031 H 
ATOM    134  H35 THR d   1      61.382  41.894 -13.292  0.00  0.00     0.031 H 
ATOM    135  H36 THR d   1      60.214  40.791 -14.097  0.00  0.00     0.031 H 
ENDBRANCH 128 132
ENDBRANCH  72 128
ENDBRANCH   1  72
TORSDOF 39
