REMARK  30 active torsions:
REMARK  status: ('A' for Active; 'I' for Inactive)
REMARK    1  A    between atoms: N_1  and  CA_2 
REMARK    2  A    between atoms: CA_2  and  C_3 
REMARK    3  A    between atoms: CA_2  and  CB_5 
REMARK       I    between atoms: C_3  and  N_9 
REMARK    4  A    between atoms: CB_5  and  CG_6 
REMARK       I    between atoms: CG_6  and  ND2_8 
REMARK    5  A    between atoms: N_9  and  CA_10 
REMARK    6  A    between atoms: CA_10  and  C_11 
REMARK    7  A    between atoms: CA_10  and  CB_13 
REMARK       I    between atoms: C_11  and  N_17 
REMARK    8  A    between atoms: CB_13  and  CG_14 
REMARK    9  A    between atoms: N_17  and  CA_18 
REMARK   10  A    between atoms: CA_18  and  C_19 
REMARK   11  A    between atoms: CA_18  and  CB_21 
REMARK       I    between atoms: C_19  and  N_33 
REMARK   12  A    between atoms: CB_21  and  CG_22 
REMARK   13  A    between atoms: CZ_27  and  OH_28 
REMARK   14  A    between atoms: OH_28  and  P_29 
REMARK   15  A    between atoms: N_33  and  CA_34 
REMARK   16  A    between atoms: CA_34  and  C_35 
REMARK   17  A    between atoms: CA_34  and  CB_37 
REMARK       I    between atoms: C_35  and  N_41 
REMARK   18  A    between atoms: CB_37  and  CG1_38 
REMARK   19  A    between atoms: CB_37  and  CG2_39 
REMARK   20  A    between atoms: CG1_38  and  CD1_40 
REMARK   21  A    between atoms: N_41  and  CA_42 
REMARK   22  A    between atoms: CA_42  and  C_43 
REMARK   23  A    between atoms: CA_42  and  CB_45 
REMARK       I    between atoms: C_43  and  N_49 
REMARK   24  A    between atoms: CB_45  and  CG_46 
REMARK   25  A    between atoms: N_49  and  CA_50 
REMARK   26  A    between atoms: CA_50  and  C_51 
REMARK   27  A    between atoms: CA_50  and  CB_53 
REMARK       I    between atoms: C_51  and  N_57 
REMARK   28  A    between atoms: CB_53  and  CG_54 
REMARK       I    between atoms: CG_54  and  ND2_56 
REMARK   29  A    between atoms: CA_58  and  C_59 
REMARK   30  A    between atoms: C_59  and  O_64 
ROOT
ATOM      1  CA  ILE d   1      59.923 -40.383 -10.024  0.00  0.00     0.092 C 
ATOM      2  H22 ILE d   1      60.657 -39.676  -9.609  0.00  0.00     0.088 H 
ENDROOT
BRANCH   1   3
ATOM      3  N   ILE d   1      59.080 -40.852  -8.943  0.00  0.00    -0.346 N 
ATOM      4  C   PTR d   1      58.807 -40.055  -7.918  0.00  0.00     0.241 C 
ATOM      5  O   PTR d   1      59.308 -38.928  -7.799  0.00  0.00    -0.271 OA
ATOM      6  H21 ILE d   1      58.703 -41.778  -8.970  0.00  0.00     0.163 HD
BRANCH   4   7
ATOM      7  CA  PTR d   1      57.877 -40.600  -6.831  0.00  0.00     0.093 C 
ATOM      8  H14 PTR d   1      57.592 -41.631  -7.087  0.00  0.00     0.088 H 
BRANCH   7   9
ATOM      9  N   PTR d   1      58.536 -40.609  -5.559  0.00  0.00    -0.346 N 
ATOM     10  C   ASP d   1      58.970 -41.737  -5.006  0.00  0.00     0.241 C 
ATOM     11  O   ASP d   1      58.787 -42.859  -5.509  0.00  0.00    -0.271 OA
ATOM     12  H13 PTR d   1      58.673 -39.745  -5.075  0.00  0.00     0.163 HD
BRANCH  10  13
ATOM     13  CA  ASP d   1      59.740 -41.569  -3.681  0.00  0.00     0.098 C 
ATOM     14  H10 ASP d   1      59.896 -40.488  -3.551  0.00  0.00     0.088 H 
BRANCH  13  15
ATOM     15  N   ASP d   1      59.102 -42.026  -2.452  0.00  0.00    -0.345 N 
ATOM     16  C   ASN d   1      58.241 -41.258  -1.785  0.00  0.00     0.249 C 
ATOM     17  O   ASN d   1      57.864 -40.152  -2.176  0.00  0.00    -0.271 OA
ATOM     18  H9  ASP d   1      59.316 -42.938  -2.101  0.00  0.00     0.163 HD
BRANCH  16  19
ATOM     19  CA  ASN d   1      57.685 -41.827  -0.488  0.00  0.00     0.183 C 
ATOM     20  H4  ASN d   1      58.421 -42.511  -0.040  0.00  0.00     0.099 H 
BRANCH  19  21
ATOM     21  N   ASN d   1      57.423 -40.692   0.464  0.00  0.00    -0.066 N 
ATOM     22  H1  ASN d   1      57.054 -41.057   1.328  0.00  0.00     0.275 HD
ATOM     23  H2  ASN d   1      56.755 -40.057   0.055  0.00  0.00     0.275 HD
ATOM     24  H3  ASN d   1      58.284 -40.201   0.647  0.00  0.00     0.275 HD
ENDBRANCH  19  21
BRANCH  19  25
ATOM     25  CB  ASN d   1      56.397 -42.608  -0.797  0.00  0.00     0.044 C 
ATOM     26  H5  ASN d   1      56.631 -43.404  -1.520  0.00  0.00     0.051 H 
ATOM     27  H6  ASN d   1      55.663 -41.917  -1.237  0.00  0.00     0.051 H 
BRANCH  25  28
ATOM     28  CG  ASN d   1      55.790 -43.239   0.442  0.00  0.00     0.217 C 
ATOM     29  OD1 ASN d   1      56.512 -43.861   1.235  0.00  0.00    -0.274 OA
ATOM     30  ND2 ASN d   1      54.462 -43.101   0.617  0.00  0.00    -0.370 N 
ATOM     31  H7  ASN d   1      54.019 -43.501   1.420  0.00  0.00     0.159 HD
ATOM     32  H8  ASN d   1      53.919 -42.599  -0.056  0.00  0.00     0.159 HD
ENDBRANCH  25  28
ENDBRANCH  19  25
ENDBRANCH  16  19
ENDBRANCH  13  15
BRANCH  13  33
ATOM     33  CB  ASP d   1      61.122 -42.225  -3.849  0.00  0.00     0.043 C 
ATOM     34  H11 ASP d   1      61.583 -41.841  -4.771  0.00  0.00     0.052 H 
ATOM     35  H12 ASP d   1      60.986 -43.313  -3.933  0.00  0.00     0.052 H 
BRANCH  33  36
ATOM     36  CG  ASP d   1      62.068 -41.939  -2.672  0.00  0.00     0.175 C 
ATOM     37  OD1 ASP d   1      62.083 -40.794  -2.154  0.00  0.00    -0.648 OA
ATOM     38  OD2 ASP d   1      62.820 -42.855  -2.276  0.00  0.00    -0.648 OA
ENDBRANCH  33  36
ENDBRANCH  13  33
ENDBRANCH  10  13
ENDBRANCH   7   9
BRANCH   7  39
ATOM     39  CB  PTR d   1      56.621 -39.736  -6.779  0.00  0.00    -0.014 C 
ATOM     40  H15 PTR d   1      56.246 -39.595  -7.803  0.00  0.00     0.043 H 
ATOM     41  H16 PTR d   1      56.881 -38.759  -6.346  0.00  0.00     0.043 H 
BRANCH  39  42
ATOM     42  CG  PTR d   1      55.527 -40.366  -5.941  0.00  0.00    -0.056 A 
ATOM     43  CD1 PTR d   1      54.795 -41.492  -6.419  0.00  0.00    -0.074 A 
ATOM     44  CE1 PTR d   1      53.780 -42.051  -5.599  0.00  0.00    -0.050 A 
ATOM     45  H17 PTR d   1      55.010 -41.915  -7.394  0.00  0.00     0.084 H 
ATOM     46  CZ  PTR d   1      53.519 -41.492  -4.334  0.00  0.00     0.082 A 
ATOM     47  H19 PTR d   1      53.209 -42.904  -5.946  0.00  0.00     0.087 H 
ATOM     48  CE2 PTR d   1      54.235 -40.370  -3.838  0.00  0.00    -0.050 A 
ATOM     49  CD2 PTR d   1      55.238 -39.829  -4.669  0.00  0.00    -0.074 A 
ATOM     50  H20 PTR d   1      54.020 -39.948  -2.863  0.00  0.00     0.087 H 
ATOM     51  H18 PTR d   1      55.805 -38.974  -4.319  0.00  0.00     0.084 H 
BRANCH  46  52
ATOM     52  OH  PTR d   1      52.507 -42.053  -3.490  0.00  0.00    -0.240 OA
BRANCH  52  53
ATOM     53  P   PTR d   1      51.909 -41.443  -2.083  0.00  0.00     0.427 P 
ATOM     54  O1P PTR d   1      53.005 -41.412  -1.085  0.00  0.00    -0.617 OA
ATOM     55  O2P PTR d   1      50.840 -42.347  -1.654  0.00  0.00    -0.617 OA
ATOM     56  O3P PTR d   1      51.423 -40.039  -2.292  0.00  0.00    -0.617 OA
ENDBRANCH  52  53
ENDBRANCH  46  52
ENDBRANCH  39  42
ENDBRANCH   7  39
ENDBRANCH   4   7
ENDBRANCH   1   3
BRANCH   1  57
ATOM     57  C   ILE d   1      59.059 -39.628 -11.032  0.00  0.00     0.241 C 
ATOM     58  O   ILE d   1      57.875 -39.912 -11.134  0.00  0.00    -0.271 OA
ATOM     59  N   ASP d   1      59.609 -38.677 -11.776  0.00  0.00    -0.345 N 
ATOM     60  H32 ASP d   1      60.596 -38.514 -11.760  0.00  0.00     0.163 HD
BRANCH  59  61
ATOM     61  CA  ASP d   1      58.731 -37.880 -12.615  0.00  0.00     0.098 C 
ATOM     62  H33 ASP d   1      57.800 -37.821 -12.032  0.00  0.00     0.088 H 
BRANCH  61  63
ATOM     63  C   ASP d   1      58.269 -38.356 -13.974  0.00  0.00     0.241 C 
ATOM     64  O   ASP d   1      57.062 -38.262 -14.260  0.00  0.00    -0.271 OA
ATOM     65  N   ASN d   1      59.158 -38.847 -14.826  0.00  0.00    -0.346 N 
ATOM     66  H36 ASN d   1      60.127 -38.905 -14.588  0.00  0.00     0.163 HD
BRANCH  65  67
ATOM     67  CA  ASN d   1      58.672 -39.297 -16.117  0.00  0.00     0.097 C 
ATOM     68  H37 ASN d   1      57.641 -39.641 -15.949  0.00  0.00     0.088 H 
BRANCH  67  69
ATOM     69  C   ASN d   1      59.407 -40.477 -16.763  0.00  0.00     0.243 C 
ATOM     70  O   ASN d   1      60.571 -40.359 -17.168  0.00  0.00    -0.271 OA
ATOM     71  N   PRO d   1      58.722 -41.635 -16.854  0.00  0.00    -0.336 N 
ATOM     72  CA  PRO d   1      59.246 -42.872 -17.441  0.00  0.00     0.095 C 
ATOM     73  CD  PRO d   1      57.396 -41.874 -16.243  0.00  0.00    -0.001 C 
ATOM     74  CB  PRO d   1      58.020 -43.789 -17.445  0.00  0.00    -0.035 C 
ATOM     75  H42 PRO d   1      60.026 -43.290 -16.788  0.00  0.00     0.089 H 
ATOM     76  CG  PRO d   1      57.324 -43.387 -16.174  0.00  0.00    -0.048 C 
ATOM     77  H43 PRO d   1      58.314 -44.849 -17.422  0.00  0.00     0.036 H 
ATOM     78  H44 PRO d   1      57.385 -43.604 -18.324  0.00  0.00     0.036 H 
ATOM     79  H45 PRO d   1      57.852 -43.773 -15.290  0.00  0.00     0.035 H 
ATOM     80  H46 PRO d   1      56.282 -43.738 -16.161  0.00  0.00     0.035 H 
ATOM     81  H47 PRO d   1      56.591 -41.468 -16.873  0.00  0.00     0.064 H 
ATOM     82  H48 PRO d   1      57.337 -41.429 -15.239  0.00  0.00     0.064 H 
BRANCH  72  83
ATOM     83  C   PRO d   1      59.855 -42.695 -18.848  0.00  0.00     0.163 C 
ATOM     84  O   PRO d   1      59.525 -41.744 -19.572  0.00  0.00    -0.648 OA
BRANCH  83  85
ATOM     85  O   PRO d   1      60.748 -43.576 -19.291  0.00  0.00    -0.775 OA
ATOM     86  H49 PRO d   1      61.565 -43.130 -19.479  0.00  0.00     0.167 HD
ENDBRANCH  83  85
ENDBRANCH  72  83
ENDBRANCH  67  69
BRANCH  67  87
ATOM     87  CB  ASN d   1      58.605 -38.106 -17.093  0.00  0.00     0.036 C 
ATOM     88  H38 ASN d   1      58.700 -38.487 -18.121  0.00  0.00     0.051 H 
ATOM     89  H39 ASN d   1      59.441 -37.425 -16.876  0.00  0.00     0.051 H 
BRANCH  87  90
ATOM     90  CG  ASN d   1      57.292 -37.323 -16.979  0.00  0.00     0.217 C 
ATOM     91  OD1 ASN d   1      56.200 -37.879 -17.173  0.00  0.00    -0.274 OA
ATOM     92  ND2 ASN d   1      57.393 -36.036 -16.651  0.00  0.00    -0.370 N 
ATOM     93  H40 ASN d   1      56.569 -35.476 -16.562  0.00  0.00     0.159 HD
ATOM     94  H41 ASN d   1      58.293 -35.629 -16.493  0.00  0.00     0.159 HD
ENDBRANCH  87  90
ENDBRANCH  67  87
ENDBRANCH  65  67
ENDBRANCH  61  63
BRANCH  61  95
ATOM     95  CB  ASP d   1      59.258 -36.456 -12.709  0.00  0.00     0.043 C 
ATOM     96  H34 ASP d   1      59.070 -36.071 -13.722  0.00  0.00     0.052 H 
ATOM     97  H35 ASP d   1      60.341 -36.462 -12.514  0.00  0.00     0.052 H 
BRANCH  95  98
ATOM     98  CG  ASP d   1      58.583 -35.549 -11.706  0.00  0.00     0.175 C 
ATOM     99  OD1 ASP d   1      59.259 -34.686 -11.104  0.00  0.00    -0.648 OA
ATOM    100  OD2 ASP d   1      57.353 -35.713 -11.505  0.00  0.00    -0.648 OA
ENDBRANCH  95  98
ENDBRANCH  61  95
ENDBRANCH  59  61
ENDBRANCH   1  57
BRANCH   1 101
ATOM    101  CB  ILE d   1      60.711 -41.553 -10.661  0.00  0.00    -0.030 C 
ATOM    102  H23 ILE d   1      61.330 -41.165 -11.483  0.00  0.00     0.043 H 
BRANCH 101 103
ATOM    103  CG1 ILE d   1      59.760 -42.615 -11.211  0.00  0.00    -0.063 C 
ATOM    104  H24 ILE d   1      58.734 -42.221 -11.165  0.00  0.00     0.033 H 
ATOM    105  H25 ILE d   1      59.837 -43.512 -10.579  0.00  0.00     0.033 H 
BRANCH 103 106
ATOM    106  CD1 ILE d   1      60.058 -43.010 -12.641  0.00  0.00    -0.076 C 
ATOM    107  H29 ILE d   1      59.337 -43.774 -12.968  0.00  0.00     0.027 H 
ATOM    108  H30 ILE d   1      61.078 -43.417 -12.704  0.00  0.00     0.027 H 
ATOM    109  H31 ILE d   1      59.975 -42.126 -13.290  0.00  0.00     0.027 H 
ENDBRANCH 103 106
ENDBRANCH 101 103
BRANCH 101 110
ATOM    110  CG2 ILE d   1      61.614 -42.183  -9.596  0.00  0.00    -0.071 C 
ATOM    111  H26 ILE d   1      62.300 -41.420  -9.199  0.00  0.00     0.028 H 
ATOM    112  H27 ILE d   1      62.196 -43.001 -10.046  0.00  0.00     0.028 H 
ATOM    113  H28 ILE d   1      60.995 -42.581  -8.779  0.00  0.00     0.028 H 
ENDBRANCH 101 110
ENDBRANCH   1 101
TORSDOF 30
