REMARK WARNING: 32 MAX_TORS EXCEEDED!!!
REMARK  50 active torsions:
REMARK  status: ('A' for Active; 'I' for Inactive)
REMARK    1  A    between atoms: N_1  and  CA_2 
REMARK    2  A    between atoms: CA_2  and  C_3 
REMARK    3  A    between atoms: CA_2  and  CB_5 
REMARK       I    between atoms: C_3  and  N_7 
REMARK    4  A    between atoms: CB_5  and  OG_6 
REMARK    5  A    between atoms: N_7  and  CA_8 
REMARK    6  A    between atoms: CA_8  and  C_9 
REMARK    7  A    between atoms: CA_8  and  CB_11 
REMARK       I    between atoms: C_9  and  N_18 
REMARK    8  A    between atoms: CB_11  and  CG_12 
REMARK    9  A    between atoms: N_18  and  CA_19 
REMARK   10  A    between atoms: CA_19  and  C_20 
REMARK   11  A    between atoms: CA_19  and  CB_22 
REMARK       I    between atoms: C_20  and  N_26 
REMARK   12  A    between atoms: CB_22  and  CG_23 
REMARK   13  A    between atoms: CG_23  and  CD1_24 
REMARK   14  A    between atoms: CG_23  and  CD2_25 
REMARK   15  A    between atoms: N_26  and  CA_27 
REMARK   16  A    between atoms: CA_27  and  C_28 
REMARK   17  A    between atoms: CA_27  and  CB_30 
REMARK       I    between atoms: C_28  and  N_35 
REMARK   18  A    between atoms: CB_30  and  CG_31 
REMARK   19  A    between atoms: CG_31  and  CD_32 
REMARK       I    between atoms: CD_32  and  NE2_34 
REMARK   20  A    between atoms: N_35  and  CA_36 
REMARK   21  A    between atoms: CA_36  and  C_37 
REMARK   22  A    between atoms: CA_36  and  CB_39 
REMARK       I    between atoms: C_37  and  N_46 
REMARK   23  A    between atoms: CB_39  and  CG_40 
REMARK   24  A    between atoms: CG_40  and  CD_41 
REMARK   25  A    between atoms: CD_41  and  NE_42 
REMARK       I    between atoms: NE_42  and  CZ_43 
REMARK       I    between atoms: CZ_43  and  NH1_44 
REMARK       I    between atoms: CZ_43  and  NH2_45 
REMARK   26  A    between atoms: N_46  and  CA_47 
REMARK   27  A    between atoms: CA_47  and  C_48 
REMARK   28  A    between atoms: CA_47  and  CB_50 
REMARK       I    between atoms: C_48  and  N_62 
REMARK   29  A    between atoms: CB_50  and  CG_51 
REMARK   30  A    between atoms: CZ_56  and  OH_57 
REMARK   31  A    between atoms: OH_57  and  P_58 
REMARK   32  A    between atoms: N_62  and  CA_63 
REMARK   33  A    between atoms: CA_63  and  C_64 
REMARK   34  A    between atoms: CA_63  and  CB_66 
REMARK       I    between atoms: C_64  and  N_68 
REMARK   35  A    between atoms: CB_66  and  OG_67 
REMARK   36  A    between atoms: N_68  and  CA_69 
REMARK   37  A    between atoms: CA_69  and  C_70 
REMARK   38  A    between atoms: CA_69  and  CB_72 
REMARK       I    between atoms: C_70  and  N_74 
REMARK   39  A    between atoms: CB_72  and  OG_73 
REMARK   40  A    between atoms: N_74  and  CA_75 
REMARK   41  A    between atoms: CA_75  and  C_76 
REMARK   42  A    between atoms: CA_75  and  CB_78 
REMARK       I    between atoms: C_76  and  N_82 
REMARK   43  A    between atoms: CB_78  and  CG_79 
REMARK   44  A    between atoms: CA_83  and  C_84 
REMARK       I    between atoms: C_84  and  N_89 
REMARK   45  A    between atoms: N_89  and  CA_90 
REMARK   46  A    between atoms: CA_90  and  C_91 
REMARK   47  A    between atoms: CA_90  and  CB_93 
REMARK   48  A    between atoms: C_91  and  O_175 
REMARK   49  A    between atoms: CB_93  and  OG1_94 
REMARK   50  A    between atoms: CB_93  and  CG2_95 
ROOT
ATOM      1  CA  ARG d   1      -9.111  -3.505   1.837  0.00  0.00     0.089 C 
ATOM      2  H37 ARG d   1      -9.940  -2.790   1.944  0.00  0.00     0.087 H 
ENDROOT
BRANCH   1   3
ATOM      3  N   ARG d   1      -9.517  -4.695   2.555  0.00  0.00    -0.346 N 
ATOM      4  C   GLN d   1     -10.049  -5.810   2.056  0.00  0.00     0.241 C 
ATOM      5  O   GLN d   1     -10.297  -6.008   0.856  0.00  0.00    -0.271 OA
ATOM      6  H36 ARG d   1      -9.382  -4.678   3.546  0.00  0.00     0.163 HD
BRANCH   4   7
ATOM      7  CA  GLN d   1     -10.325  -6.865   3.146  0.00  0.00     0.090 C 
ATOM      8  H29 GLN d   1     -10.256  -7.880   2.728  0.00  0.00     0.087 H 
BRANCH   7   9
ATOM      9  N   GLN d   1      -9.305  -6.683   4.199  0.00  0.00    -0.346 N 
ATOM     10  C   LEU d   1      -9.150  -7.404   5.305  0.00  0.00     0.241 C 
ATOM     11  O   LEU d   1      -9.857  -8.370   5.615  0.00  0.00    -0.271 OA
ATOM     12  H28 GLN d   1      -8.658  -5.933   4.065  0.00  0.00     0.163 HD
BRANCH  10  13
ATOM     13  CA  LEU d   1      -7.985  -6.941   6.179  0.00  0.00     0.089 C 
ATOM     14  H18 LEU d   1      -8.279  -6.003   6.673  0.00  0.00     0.087 H 
BRANCH  13  15
ATOM     15  N   LEU d   1      -7.618  -7.877   7.199  0.00  0.00    -0.346 N 
ATOM     16  C   PHE d   1      -7.827  -7.672   8.494  0.00  0.00     0.241 C 
ATOM     17  O   PHE d   1      -8.382  -6.663   8.936  0.00  0.00    -0.271 OA
ATOM     18  H17 LEU d   1      -7.180  -8.732   6.920  0.00  0.00     0.163 HD
BRANCH  16  19
ATOM     19  CA  PHE d   1      -7.334  -8.820   9.412  0.00  0.00     0.093 C 
ATOM     20  H9  PHE d   1      -6.414  -9.203   8.947  0.00  0.00     0.088 H 
BRANCH  19  21
ATOM     21  N   PHE d   1      -6.975  -8.498  10.791  0.00  0.00    -0.346 N 
ATOM     22  C   SER d   1      -6.005  -7.638  11.103  0.00  0.00     0.251 C 
ATOM     23  O   SER d   1      -5.359  -6.996  10.243  0.00  0.00    -0.271 OA
ATOM     24  H8  PHE d   1      -7.478  -8.941  11.533  0.00  0.00     0.163 HD
BRANCH  22  25
ATOM     25  CA  SER d   1      -5.721  -7.452  12.621  0.00  0.00     0.195 C 
ATOM     26  H4  SER d   1      -5.203  -8.350  12.990  0.00  0.00     0.102 H 
BRANCH  25  27
ATOM     27  N   SER d   1      -4.834  -6.264  12.842  0.00  0.00    -0.064 N 
ATOM     28  H1  SER d   1      -4.658  -6.155  13.829  0.00  0.00     0.275 HD
ATOM     29  H2  SER d   1      -5.287  -5.436  12.488  0.00  0.00     0.275 HD
ATOM     30  H3  SER d   1      -3.961  -6.402  12.358  0.00  0.00     0.275 HD
ENDBRANCH  25  27
BRANCH  25  31
ATOM     31  CB  SER d   1      -7.040  -7.287  13.416  0.00  0.00     0.051 C 
ATOM     32  H5  SER d   1      -7.620  -6.470  12.962  0.00  0.00     0.077 H 
ATOM     33  H6  SER d   1      -6.790  -7.026  14.455  0.00  0.00     0.077 H 
BRANCH  31  34
ATOM     34  OG  SER d   1      -7.848  -8.463  13.428  0.00  0.00    -0.398 OA
ATOM     35  H7  SER d   1      -8.638  -8.298  13.929  0.00  0.00     0.209 HD
ENDBRANCH  31  34
ENDBRANCH  25  31
ENDBRANCH  22  25
ENDBRANCH  19  21
BRANCH  19  36
ATOM     36  CB  PHE d   1      -8.369  -9.953   9.393  0.00  0.00    -0.014 C 
ATOM     37  H10 PHE d   1      -9.327  -9.555   9.758  0.00  0.00     0.043 H 
ATOM     38  H11 PHE d   1      -8.023 -10.752  10.066  0.00  0.00     0.043 H 
BRANCH  36  39
ATOM     39  CG  PHE d   1      -8.590 -10.546   8.022  0.00  0.00    -0.056 A 
ATOM     40  CD1 PHE d   1      -9.794 -11.168   7.703  0.00  0.00    -0.077 A 
ATOM     41  CE1 PHE d   1     -10.016 -11.674   6.421  0.00  0.00    -0.082 A 
ATOM     42  H12 PHE d   1     -10.567 -11.260   8.458  0.00  0.00     0.084 H 
ATOM     43  CZ  PHE d   1      -9.028 -11.562   5.446  0.00  0.00    -0.083 A 
ATOM     44  H14 PHE d   1     -10.958 -12.155   6.184  0.00  0.00     0.083 H 
ATOM     45  CE2 PHE d   1      -7.821 -10.948   5.754  0.00  0.00    -0.082 A 
ATOM     46  H16 PHE d   1      -9.200 -11.953   4.450  0.00  0.00     0.083 H 
ATOM     47  CD2 PHE d   1      -7.608 -10.447   7.035  0.00  0.00    -0.077 A 
ATOM     48  H15 PHE d   1      -7.048 -10.859   5.000  0.00  0.00     0.083 H 
ATOM     49  H13 PHE d   1      -6.663  -9.972   7.270  0.00  0.00     0.084 H 
ENDBRANCH  36  39
ENDBRANCH  19  36
ENDBRANCH  16  19
ENDBRANCH  13  15
BRANCH  13  50
ATOM     50  CB  LEU d   1      -6.778  -6.668   5.265  0.00  0.00    -0.035 C 
ATOM     51  H19 LEU d   1      -6.970  -5.703   4.773  0.00  0.00     0.037 H 
ATOM     52  H20 LEU d   1      -6.768  -7.469   4.511  0.00  0.00     0.037 H 
BRANCH  50  53
ATOM     53  CG  LEU d   1      -5.354  -6.591   5.841  0.00  0.00    -0.059 C 
ATOM     54  H21 LEU d   1      -5.354  -5.924   6.715  0.00  0.00     0.038 H 
BRANCH  53  55
ATOM     55  CD1 LEU d   1      -4.877  -7.973   6.275  0.00  0.00    -0.073 C 
ATOM     56  H22 LEU d   1      -3.858  -7.898   6.684  0.00  0.00     0.028 H 
ATOM     57  H23 LEU d   1      -4.875  -8.649   5.407  0.00  0.00     0.028 H 
ATOM     58  H24 LEU d   1      -5.553  -8.369   7.047  0.00  0.00     0.028 H 
ENDBRANCH  53  55
BRANCH  53  59
ATOM     59  CD2 LEU d   1      -4.418  -6.022   4.774  0.00  0.00    -0.073 C 
ATOM     60  H25 LEU d   1      -4.772  -5.026   4.469  0.00  0.00     0.028 H 
ATOM     61  H26 LEU d   1      -4.408  -6.691   3.901  0.00  0.00     0.028 H 
ATOM     62  H27 LEU d   1      -3.401  -5.940   5.185  0.00  0.00     0.028 H 
ENDBRANCH  53  59
ENDBRANCH  50  53
ENDBRANCH  13  50
ENDBRANCH  10  13
ENDBRANCH   7   9
BRANCH   7  63
ATOM     63  CB  GLN d   1     -11.739  -6.623   3.695  0.00  0.00    -0.030 C 
ATOM     64  H30 GLN d   1     -12.428  -6.588   2.838  0.00  0.00     0.037 H 
ATOM     65  H31 GLN d   1     -11.737  -5.648   4.204  0.00  0.00     0.037 H 
BRANCH  63  66
ATOM     66  CG  GLN d   1     -12.282  -7.670   4.690  0.00  0.00     0.011 C 
ATOM     67  H32 GLN d   1     -11.489  -7.918   5.410  0.00  0.00     0.047 H 
ATOM     68  H33 GLN d   1     -12.567  -8.574   4.132  0.00  0.00     0.047 H 
BRANCH  66  69
ATOM     69  CD  GLN d   1     -13.512  -7.157   5.464  0.00  0.00     0.215 C 
ATOM     70  OE1 GLN d   1     -13.478  -6.068   6.076  0.00  0.00    -0.274 OA
ATOM     71  NE2 GLN d   1     -14.602  -7.933   5.435  0.00  0.00    -0.370 N 
ATOM     72  H34 GLN d   1     -15.430  -7.651   5.920  0.00  0.00     0.159 HD
ATOM     73  H35 GLN d   1     -14.588  -8.795   4.929  0.00  0.00     0.159 HD
ENDBRANCH  66  69
ENDBRANCH  63  66
ENDBRANCH   7  63
ENDBRANCH   4   7
ENDBRANCH   1   3
BRANCH   1  74
ATOM     74  C   ARG d   1      -8.811  -3.588   0.323  0.00  0.00     0.241 C 
ATOM     75  O   ARG d   1      -9.341  -2.792  -0.472  0.00  0.00    -0.271 OA
ATOM     76  N   PTR d   1      -7.999  -4.558  -0.079  0.00  0.00    -0.346 N 
ATOM     77  H49 PTR d   1      -7.679  -5.240   0.579  0.00  0.00     0.163 HD
BRANCH  76  78
ATOM     78  CA  PTR d   1      -7.563  -4.641  -1.485  0.00  0.00     0.093 C 
ATOM     79  H50 PTR d   1      -7.381  -3.599  -1.788  0.00  0.00     0.088 H 
BRANCH  78  80
ATOM     80  C   PTR d   1      -8.490  -5.188  -2.554  0.00  0.00     0.241 C 
ATOM     81  O   PTR d   1      -9.163  -6.170  -2.358  0.00  0.00    -0.271 OA
ATOM     82  N   SER d   1      -8.431  -4.513  -3.704  0.00  0.00    -0.344 N 
ATOM     83  H57 SER d   1      -7.776  -3.759  -3.757  0.00  0.00     0.163 HD
BRANCH  82  84
ATOM     84  CA  SER d   1      -9.236  -4.777  -4.888  0.00  0.00     0.109 C 
ATOM     85  H58 SER d   1      -9.995  -5.516  -4.592  0.00  0.00     0.090 H 
BRANCH  84  86
ATOM     86  C   SER d   1      -8.522  -5.350  -6.130  0.00  0.00     0.243 C 
ATOM     87  O   SER d   1      -7.333  -5.116  -6.337  0.00  0.00    -0.271 OA
ATOM     88  N   SER d   1      -9.246  -6.084  -6.970  0.00  0.00    -0.344 N 
ATOM     89  H62 SER d   1     -10.220  -6.221  -6.789  0.00  0.00     0.163 HD
BRANCH  88  90
ATOM     90  CA  SER d   1      -8.644  -6.693  -8.150  0.00  0.00     0.109 C 
ATOM     91  H63 SER d   1      -7.753  -7.244  -7.814  0.00  0.00     0.090 H 
BRANCH  90  92
ATOM     92  C   SER d   1      -8.208  -5.717  -9.206  0.00  0.00     0.243 C 
ATOM     93  O   SER d   1      -8.855  -4.703  -9.425  0.00  0.00    -0.271 OA
ATOM     94  N   ASP d   1      -7.106  -6.022  -9.874  0.00  0.00    -0.345 N 
ATOM     95  H67 ASP d   1      -6.587  -6.847  -9.649  0.00  0.00     0.163 HD
BRANCH  94  96
ATOM     96  CA  ASP d   1      -6.664  -5.139 -10.938  0.00  0.00     0.099 C 
ATOM     97  H68 ASP d   1      -6.519  -4.139 -10.504  0.00  0.00     0.088 H 
BRANCH  96  98
ATOM     98  C   ASP d   1      -7.708  -5.025 -12.057  0.00  0.00     0.243 C 
ATOM     99  O   ASP d   1      -8.076  -6.038 -12.688  0.00  0.00    -0.271 OA
ATOM    100  N   PRO d   1      -8.220  -3.802 -12.295  0.00  0.00    -0.337 N 
ATOM    101  CA  PRO d   1      -9.218  -3.569 -13.336  0.00  0.00     0.091 C 
ATOM    102  CD  PRO d   1      -7.876  -2.537 -11.619  0.00  0.00    -0.001 C 
ATOM    103  CB  PRO d   1      -9.610  -2.110 -13.111  0.00  0.00    -0.036 C 
ATOM    104  H71 PRO d   1     -10.090  -4.223 -13.191  0.00  0.00     0.087 H 
ATOM    105  CG  PRO d   1      -8.358  -1.503 -12.604  0.00  0.00    -0.048 C 
ATOM    106  H72 PRO d   1     -10.418  -2.028 -12.369  0.00  0.00     0.036 H 
ATOM    107  H73 PRO d   1      -9.926  -1.636 -14.052  0.00  0.00     0.036 H 
ATOM    108  H74 PRO d   1      -8.554  -0.541 -12.108  0.00  0.00     0.035 H 
ATOM    109  H75 PRO d   1      -7.630  -1.355 -13.415  0.00  0.00     0.035 H 
ATOM    110  H76 PRO d   1      -6.791  -2.455 -11.455  0.00  0.00     0.064 H 
ATOM    111  H77 PRO d   1      -8.400  -2.445 -10.656  0.00  0.00     0.064 H 
BRANCH 101 112
ATOM    112  C   PRO d   1      -8.635  -3.832 -14.728  0.00  0.00     0.241 C 
ATOM    113  O   PRO d   1      -8.216  -2.904 -15.436  0.00  0.00    -0.271 OA
ATOM    114  N   THR d   1      -8.601  -5.115 -15.088  0.00  0.00    -0.343 N 
ATOM    115  H78 THR d   1      -8.947  -5.795 -14.442  0.00  0.00     0.163 HD
BRANCH 114 116
ATOM    116  CA  THR d   1      -8.089  -5.584 -16.367  0.00  0.00     0.117 C 
ATOM    117  H79 THR d   1      -8.498  -4.928 -17.149  0.00  0.00     0.093 H 
BRANCH 116 118
ATOM    118  C   THR d   1      -8.508  -7.034 -16.695  0.00  0.00     0.166 C 
ATOM    119  O   THR d   1      -8.179  -7.982 -15.961  0.00  0.00    -0.648 OA
BRANCH 118 120
ATOM    120  O   THR d   1      -9.235  -7.273 -17.783  0.00  0.00    -0.775 OA
ATOM    121  H85 THR d   1     -10.059  -7.673 -17.531  0.00  0.00     0.167 HD
ENDBRANCH 118 120
ENDBRANCH 116 118
BRANCH 116 122
ATOM    122  CB  THR d   1      -6.545  -5.489 -16.406  0.00  0.00     0.061 C 
ATOM    123  H80 THR d   1      -6.133  -6.005 -15.526  0.00  0.00     0.086 H 
BRANCH 122 124
ATOM    124  OG1 THR d   1      -6.148  -4.107 -16.368  0.00  0.00    -0.393 OA
ATOM    125  H81 THR d   1      -6.470  -3.708 -15.568  0.00  0.00     0.210 HD
ENDBRANCH 122 124
BRANCH 122 126
ATOM    126  CG2 THR d   1      -5.999  -6.157 -17.672  0.00  0.00    -0.050 C 
ATOM    127  H82 THR d   1      -4.902  -6.080 -17.683  0.00  0.00     0.031 H 
ATOM    128  H83 THR d   1      -6.411  -5.653 -18.559  0.00  0.00     0.031 H 
ATOM    129  H84 THR d   1      -6.292  -7.217 -17.683  0.00  0.00     0.031 H 
ENDBRANCH 122 126
ENDBRANCH 116 122
ENDBRANCH 114 116
ENDBRANCH 101 112
ENDBRANCH  96  98
BRANCH  96 130
ATOM    130  CB  ASP d   1      -5.318  -5.605 -11.530  0.00  0.00     0.043 C 
ATOM    131  H69 ASP d   1      -5.285  -6.704 -11.502  0.00  0.00     0.052 H 
ATOM    132  H70 ASP d   1      -4.504  -5.197 -10.913  0.00  0.00     0.052 H 
BRANCH 130 133
ATOM    133  CG  ASP d   1      -5.107  -5.143 -12.991  0.00  0.00     0.175 C 
ATOM    134  OD1 ASP d   1      -5.695  -4.118 -13.404  0.00  0.00    -0.648 OA
ATOM    135  OD2 ASP d   1      -4.338  -5.807 -13.729  0.00  0.00    -0.648 OA
ENDBRANCH 130 133
ENDBRANCH  96 130
ENDBRANCH  94  96
ENDBRANCH  90  92
BRANCH  90 136
ATOM    136  CB  SER d   1      -9.618  -7.687  -8.800  0.00  0.00     0.044 C 
ATOM    137  H64 SER d   1      -9.246  -7.942  -9.803  0.00  0.00     0.077 H 
ATOM    138  H65 SER d   1     -10.606  -7.211  -8.885  0.00  0.00     0.077 H 
BRANCH 136 139
ATOM    139  OG  SER d   1      -9.750  -8.882  -8.044  0.00  0.00    -0.398 OA
ATOM    140  H66 SER d   1     -10.359  -9.466  -8.480  0.00  0.00     0.209 HD
ENDBRANCH 136 139
ENDBRANCH  90 136
ENDBRANCH  88  90
ENDBRANCH  84  86
BRANCH  84 141
ATOM    141  CB  SER d   1      -9.942  -3.501  -5.292  0.00  0.00     0.044 C 
ATOM    142  H59 SER d   1     -10.164  -3.531  -6.369  0.00  0.00     0.077 H 
ATOM    143  H60 SER d   1      -9.293  -2.640  -5.075  0.00  0.00     0.077 H 
BRANCH 141 144
ATOM    144  OG  SER d   1     -11.145  -3.373  -4.570  0.00  0.00    -0.398 OA
ATOM    145  H61 SER d   1     -11.584  -2.571  -4.827  0.00  0.00     0.209 HD
ENDBRANCH 141 144
ENDBRANCH  84 141
ENDBRANCH  82  84
ENDBRANCH  78  80
BRANCH  78 146
ATOM    146  CB  PTR d   1      -6.213  -5.356  -1.517  0.00  0.00    -0.014 C 
ATOM    147  H51 PTR d   1      -5.876  -5.444  -2.561  0.00  0.00     0.043 H 
ATOM    148  H52 PTR d   1      -6.327  -6.360  -1.083  0.00  0.00     0.043 H 
BRANCH 146 149
ATOM    149  CG  PTR d   1      -5.174  -4.585  -0.722  0.00  0.00    -0.056 A 
ATOM    150  CD1 PTR d   1      -4.678  -3.336  -1.191  0.00  0.00    -0.074 A 
ATOM    151  CE1 PTR d   1      -3.717  -2.642  -0.408  0.00  0.00    -0.050 A 
ATOM    152  H53 PTR d   1      -5.028  -2.921  -2.130  0.00  0.00     0.084 H 
ATOM    153  CZ  PTR d   1      -3.277  -3.192   0.812  0.00  0.00     0.082 A 
ATOM    154  H55 PTR d   1      -3.323  -1.691  -0.749  0.00  0.00     0.087 H 
ATOM    155  CE2 PTR d   1      -3.738  -4.410   1.290  0.00  0.00    -0.050 A 
ATOM    156  CD2 PTR d   1      -4.691  -5.100   0.516  0.00  0.00    -0.074 A 
ATOM    157  H56 PTR d   1      -3.377  -4.817   2.228  0.00  0.00     0.087 H 
ATOM    158  H54 PTR d   1      -5.069  -6.051   0.873  0.00  0.00     0.084 H 
BRANCH 153 159
ATOM    159  OH  PTR d   1      -2.317  -2.501   1.618  0.00  0.00    -0.240 OA
BRANCH 159 160
ATOM    160  P   PTR d   1      -1.937  -2.792   3.188  0.00  0.00     0.427 P 
ATOM    161  O1P PTR d   1      -3.164  -3.118   3.940  0.00  0.00    -0.617 OA
ATOM    162  O2P PTR d   1      -1.287  -1.585   3.790  0.00  0.00    -0.617 OA
ATOM    163  O3P PTR d   1      -1.014  -3.957   3.281  0.00  0.00    -0.617 OA
ENDBRANCH 159 160
ENDBRANCH 153 159
ENDBRANCH 146 149
ENDBRANCH  78 146
ENDBRANCH  76  78
ENDBRANCH   1  74
BRANCH   1 164
ATOM    164  CB  ARG d   1      -7.872  -2.917   2.531  0.00  0.00    -0.036 C 
ATOM    165  H38 ARG d   1      -7.684  -1.922   2.100  0.00  0.00     0.036 H 
ATOM    166  H39 ARG d   1      -7.019  -3.577   2.315  0.00  0.00     0.036 H 
BRANCH 164 167
ATOM    167  CG  ARG d   1      -7.970  -2.760   4.047  0.00  0.00    -0.048 C 
ATOM    168  H40 ARG d   1      -8.584  -3.578   4.452  0.00  0.00     0.035 H 
ATOM    169  H41 ARG d   1      -8.447  -1.796   4.276  0.00  0.00     0.035 H 
BRANCH 167 170
ATOM    170  CD  ARG d   1      -6.588  -2.801   4.706  0.00  0.00     0.009 C 
ATOM    171  H42 ARG d   1      -5.853  -3.115   3.951  0.00  0.00     0.064 H 
ATOM    172  H43 ARG d   1      -6.614  -3.539   5.522  0.00  0.00     0.064 H 
BRANCH 170 173
ATOM    173  NE  ARG d   1      -6.161  -1.517   5.259  0.00  0.00    -0.227 N 
ATOM    174  CZ  ARG d   1      -5.042  -1.345   5.960  0.00  0.00     0.665 C 
ATOM    175  NH1 ARG d   1      -4.239  -2.369   6.191  0.00  0.00    -0.235 N 
ATOM    176  NH2 ARG d   1      -4.731  -0.152   6.441  0.00  0.00    -0.235 N 
ATOM    177  H45 ARG d   1      -3.374  -2.233   6.734  0.00  0.00     0.174 HD
ATOM    178  H46 ARG d   1      -4.478  -3.303   5.829  0.00  0.00     0.174 HD
ATOM    179  H47 ARG d   1      -5.351   0.652   6.266  0.00  0.00     0.174 HD
ATOM    180  H48 ARG d   1      -3.869  -0.027   6.991  0.00  0.00     0.174 HD
ATOM    181  H44 ARG d   1      -6.762  -0.696   5.097  0.00  0.00     0.177 HD
ENDBRANCH 170 173
ENDBRANCH 167 170
ENDBRANCH 164 167
ENDBRANCH   1 164
TORSDOF 50
