REMARK WARNING: 32 MAX_TORS EXCEEDED!!!
REMARK  37 active torsions:
REMARK  status: ('A' for Active; 'I' for Inactive)
REMARK    1  A    between atoms: N_1  and  CA_2 
REMARK    2  A    between atoms: CA_2  and  C_3 
REMARK    3  A    between atoms: CA_2  and  CB_5 
REMARK       I    between atoms: C_3  and  N_7 
REMARK    4  A    between atoms: CB_5  and  OG_6 
REMARK    5  A    between atoms: N_7  and  CA_8 
REMARK    6  A    between atoms: CA_8  and  C_9 
REMARK    7  A    between atoms: CA_8  and  CB_11 
REMARK       I    between atoms: C_9  and  N_18 
REMARK    8  A    between atoms: CB_11  and  CG_12 
REMARK    9  A    between atoms: N_18  and  CA_19 
REMARK   10  A    between atoms: CA_19  and  C_20 
REMARK   11  A    between atoms: CA_19  and  CB_22 
REMARK       I    between atoms: C_20  and  N_26 
REMARK   12  A    between atoms: CB_22  and  CG_23 
REMARK       I    between atoms: CG_23  and  ND2_25 
REMARK   13  A    between atoms: CA_27  and  C_28 
REMARK       I    between atoms: C_28  and  N_33 
REMARK   14  A    between atoms: N_33  and  CA_34 
REMARK   15  A    between atoms: CA_34  and  C_35 
REMARK   16  A    between atoms: CA_34  and  CB_37 
REMARK       I    between atoms: C_35  and  N_49 
REMARK   17  A    between atoms: CB_37  and  CG_38 
REMARK   18  A    between atoms: CZ_43  and  OH_44 
REMARK   19  A    between atoms: OH_44  and  P_45 
REMARK   20  A    between atoms: N_49  and  CA_50 
REMARK   21  A    between atoms: CA_50  and  C_51 
REMARK   22  A    between atoms: CA_50  and  CB_53 
REMARK       I    between atoms: C_51  and  N_58 
REMARK   23  A    between atoms: CB_53  and  CG_54 
REMARK   24  A    between atoms: CG_54  and  CD_55 
REMARK   25  A    between atoms: CA_59  and  C_60 
REMARK       I    between atoms: C_60  and  N_65 
REMARK   26  A    between atoms: N_65  and  CA_66 
REMARK   27  A    between atoms: CA_66  and  C_67 
REMARK   28  A    between atoms: CA_66  and  CB_69 
REMARK       I    between atoms: C_67  and  N_74 
REMARK   29  A    between atoms: CB_69  and  CG_70 
REMARK   30  A    between atoms: CG_70  and  CD_71 
REMARK   31  A    between atoms: N_74  and  CA_75 
REMARK   32  A    between atoms: CA_75  and  C_76 
REMARK   33  A    between atoms: CA_75  and  CB_78 
REMARK   34  A    between atoms: C_76  and  O_140 
REMARK   35  A    between atoms: CB_78  and  CG_79 
REMARK   36  A    between atoms: CG_79  and  CD1_80 
REMARK   37  A    between atoms: CG_79  and  CD2_81 
ROOT
ATOM      1  CA  PTR d   1      10.345 -12.186  27.452  0.00  0.00     0.093 C 
ATOM      2  H31 PTR d   1       9.320 -12.344  27.820  0.00  0.00     0.088 H 
ENDROOT
BRANCH   1   3
ATOM      3  N   PTR d   1      10.871 -10.967  28.034  0.00  0.00    -0.346 N 
ATOM      4  C   PRO d   1      10.250 -10.317  29.010  0.00  0.00     0.241 C 
ATOM      5  O   PRO d   1       9.154 -10.659  29.463  0.00  0.00    -0.271 OA
ATOM      6  H30 PTR d   1      11.735 -10.602  27.687  0.00  0.00     0.163 HD
BRANCH   4   7
ATOM      7  CA  PRO d   1      10.980  -9.077  29.539  0.00  0.00     0.091 C 
ATOM      8  N   PRO d   1      10.270  -7.810  29.374  0.00  0.00    -0.337 N 
ATOM      9  C   ASN d   1      10.225  -7.226  28.167  0.00  0.00     0.243 C 
ATOM     10  CD  PRO d   1       9.833  -7.277  30.676  0.00  0.00    -0.001 C 
ATOM     11  O   ASN d   1      10.771  -7.728  27.181  0.00  0.00    -0.271 OA
ATOM     12  CG  PRO d   1      10.012  -8.466  31.598  0.00  0.00    -0.048 C 
ATOM     13  H28 PRO d   1       8.781  -6.957  30.641  0.00  0.00     0.064 H 
ATOM     14  H29 PRO d   1      10.463  -6.432  30.991  0.00  0.00     0.064 H 
ATOM     15  CB  PRO d   1      11.225  -9.135  31.045  0.00  0.00    -0.036 C 
ATOM     16  H26 PRO d   1      10.177  -8.141  32.636  0.00  0.00     0.035 H 
ATOM     17  H27 PRO d   1       9.139  -9.133  31.558  0.00  0.00     0.035 H 
ATOM     18  H24 PRO d   1      12.140  -8.589  31.320  0.00  0.00     0.036 H 
ATOM     19  H25 PRO d   1      11.299 -10.175  31.395  0.00  0.00     0.036 H 
ATOM     20  H23 PRO d   1      11.943  -9.019  29.011  0.00  0.00     0.087 H 
BRANCH   9  21
ATOM     21  CA  ASN d   1       9.472  -5.901  28.058  0.00  0.00     0.097 C 
ATOM     22  H18 ASN d   1       9.379  -5.483  29.071  0.00  0.00     0.088 H 
BRANCH  21  23
ATOM     23  N   ASN d   1      10.152  -4.926  27.238  0.00  0.00    -0.346 N 
ATOM     24  C   PHE d   1      10.937  -3.996  27.768  0.00  0.00     0.241 C 
ATOM     25  O   PHE d   1      11.149  -3.901  28.984  0.00  0.00    -0.271 OA
ATOM     26  H17 ASN d   1      10.028  -4.952  26.246  0.00  0.00     0.163 HD
BRANCH  24  27
ATOM     27  CA  PHE d   1      11.599  -3.031  26.788  0.00  0.00     0.093 C 
ATOM     28  H9  PHE d   1      10.850  -2.718  26.046  0.00  0.00     0.088 H 
BRANCH  27  29
ATOM     29  N   PHE d   1      12.108  -1.844  27.442  0.00  0.00    -0.346 N 
ATOM     30  C   SER d   1      12.240  -0.691  26.800  0.00  0.00     0.251 C 
ATOM     31  O   SER d   1      11.964  -0.552  25.605  0.00  0.00    -0.271 OA
ATOM     32  H8  PHE d   1      12.368  -1.895  28.406  0.00  0.00     0.163 HD
BRANCH  30  33
ATOM     33  CA  SER d   1      12.781   0.480  27.626  0.00  0.00     0.195 C 
ATOM     34  H4  SER d   1      13.876   0.511  27.529  0.00  0.00     0.102 H 
BRANCH  33  35
ATOM     35  N   SER d   1      12.213   1.766  27.124  0.00  0.00    -0.064 N 
ATOM     36  H1  SER d   1      12.575   2.530  27.673  0.00  0.00     0.275 HD
ATOM     37  H2  SER d   1      11.208   1.742  27.201  0.00  0.00     0.275 HD
ATOM     38  H3  SER d   1      12.473   1.894  26.159  0.00  0.00     0.275 HD
ENDBRANCH  33  35
BRANCH  33  39
ATOM     39  CB  SER d   1      12.415   0.285  29.105  0.00  0.00     0.051 C 
ATOM     40  H5  SER d   1      11.320   0.271  29.206  0.00  0.00     0.077 H 
ATOM     41  H6  SER d   1      12.827   1.120  29.691  0.00  0.00     0.077 H 
BRANCH  39  42
ATOM     42  OG  SER d   1      12.938  -0.926  29.599  0.00  0.00    -0.398 OA
ATOM     43  H7  SER d   1      12.699  -1.023  30.513  0.00  0.00     0.209 HD
ENDBRANCH  39  42
ENDBRANCH  33  39
ENDBRANCH  30  33
ENDBRANCH  27  29
BRANCH  27  44
ATOM     44  CB  PHE d   1      12.728  -3.771  26.070  0.00  0.00    -0.014 C 
ATOM     45  H10 PHE d   1      13.322  -3.036  25.507  0.00  0.00     0.043 H 
ATOM     46  H11 PHE d   1      12.281  -4.494  25.372  0.00  0.00     0.043 H 
BRANCH  44  47
ATOM     47  CG  PHE d   1      13.645  -4.512  26.997  0.00  0.00    -0.056 A 
ATOM     48  CD1 PHE d   1      14.734  -3.873  27.581  0.00  0.00    -0.077 A 
ATOM     49  CE1 PHE d   1      15.537  -4.533  28.505  0.00  0.00    -0.082 A 
ATOM     50  H12 PHE d   1      14.960  -2.847  27.312  0.00  0.00     0.084 H 
ATOM     51  CZ  PHE d   1      15.247  -5.853  28.853  0.00  0.00    -0.083 A 
ATOM     52  H14 PHE d   1      16.384  -4.025  28.953  0.00  0.00     0.083 H 
ATOM     53  CE2 PHE d   1      14.164  -6.498  28.269  0.00  0.00    -0.082 A 
ATOM     54  H16 PHE d   1      15.864  -6.373  29.576  0.00  0.00     0.083 H 
ATOM     55  CD2 PHE d   1      13.372  -5.828  27.346  0.00  0.00    -0.077 A 
ATOM     56  H15 PHE d   1      13.937  -7.524  28.534  0.00  0.00     0.083 H 
ATOM     57  H13 PHE d   1      12.530  -6.339  26.892  0.00  0.00     0.084 H 
ENDBRANCH  44  47
ENDBRANCH  27  44
ENDBRANCH  24  27
ENDBRANCH  21  23
BRANCH  21  58
ATOM     58  CB  ASN d   1       8.069  -6.147  27.504  0.00  0.00     0.036 C 
ATOM     59  H19 ASN d   1       7.550  -6.861  28.160  0.00  0.00     0.051 H 
ATOM     60  H20 ASN d   1       8.157  -6.574  26.494  0.00  0.00     0.051 H 
BRANCH  58  61
ATOM     61  CG  ASN d   1       7.252  -4.876  27.425  0.00  0.00     0.217 C 
ATOM     62  OD1 ASN d   1       7.173  -4.121  28.395  0.00  0.00    -0.274 OA
ATOM     63  ND2 ASN d   1       6.632  -4.635  26.277  0.00  0.00    -0.370 N 
ATOM     64  H21 ASN d   1       6.079  -3.809  26.171  0.00  0.00     0.159 HD
ATOM     65  H22 ASN d   1       6.718  -5.280  25.517  0.00  0.00     0.159 HD
ENDBRANCH  58  61
ENDBRANCH  21  58
ENDBRANCH   9  21
ENDBRANCH   4   7
ENDBRANCH   1   3
BRANCH   1  66
ATOM     66  C   PTR d   1      11.207 -13.384  27.859  0.00  0.00     0.241 C 
ATOM     67  O   PTR d   1      12.432 -13.260  27.950  0.00  0.00    -0.271 OA
ATOM     68  N   GLU d   1      10.581 -14.529  28.112  0.00  0.00    -0.346 N 
ATOM     69  H38 GLU d   1       9.587 -14.579  28.018  0.00  0.00     0.163 HD
BRANCH  68  70
ATOM     70  CA  GLU d   1      11.324 -15.713  28.525  0.00  0.00     0.090 C 
ATOM     71  H39 GLU d   1      12.071 -15.386  29.264  0.00  0.00     0.087 H 
BRANCH  70  72
ATOM     72  C   GLU d   1      12.078 -16.427  27.398  0.00  0.00     0.243 C 
ATOM     73  O   GLU d   1      11.611 -16.475  26.259  0.00  0.00    -0.271 OA
ATOM     74  N   PRO d   1      13.253 -16.996  27.714  0.00  0.00    -0.337 N 
ATOM     75  CA  PRO d   1      14.102 -17.719  26.761  0.00  0.00     0.091 C 
ATOM     76  CD  PRO d   1      13.889 -16.956  29.044  0.00  0.00    -0.001 C 
ATOM     77  CB  PRO d   1      15.407 -17.886  27.530  0.00  0.00    -0.036 C 
ATOM     78  H44 PRO d   1      14.266 -17.105  25.863  0.00  0.00     0.087 H 
ATOM     79  CG  PRO d   1      14.930 -18.049  28.936  0.00  0.00    -0.048 C 
ATOM     80  H45 PRO d   1      16.047 -16.997  27.427  0.00  0.00     0.036 H 
ATOM     81  H46 PRO d   1      15.958 -18.776  27.191  0.00  0.00     0.036 H 
ATOM     82  H47 PRO d   1      15.747 -17.895  29.656  0.00  0.00     0.035 H 
ATOM     83  H48 PRO d   1      14.485 -19.042  29.094  0.00  0.00     0.035 H 
ATOM     84  H49 PRO d   1      13.162 -17.175  29.840  0.00  0.00     0.064 H 
ATOM     85  H50 PRO d   1      14.356 -15.978  29.233  0.00  0.00     0.064 H 
BRANCH  75  86
ATOM     86  C   PRO d   1      13.510 -19.068  26.317  0.00  0.00     0.241 C 
ATOM     87  O   PRO d   1      12.324 -19.338  26.528  0.00  0.00    -0.271 OA
ATOM     88  N   GLU d   1      14.349 -19.907  25.714  0.00  0.00    -0.346 N 
ATOM     89  H51 GLU d   1      15.303 -19.633  25.591  0.00  0.00     0.163 HD
BRANCH  88  90
ATOM     90  CA  GLU d   1      13.922 -21.213  25.227  0.00  0.00     0.090 C 
ATOM     91  H52 GLU d   1      13.061 -21.047  24.563  0.00  0.00     0.087 H 
BRANCH  90  92
ATOM     92  C   GLU d   1      13.477 -22.189  26.322  0.00  0.00     0.241 C 
ATOM     93  O   GLU d   1      12.321 -22.624  26.351  0.00  0.00    -0.271 OA
ATOM     94  N   LEU d   1      14.406 -22.532  27.211  0.00  0.00    -0.345 N 
ATOM     95  H57 LEU d   1      15.323 -22.142  27.124  0.00  0.00     0.163 HD
BRANCH  94  96
ATOM     96  CA  LEU d   1      14.137 -23.454  28.306  0.00  0.00     0.093 C 
ATOM     97  H58 LEU d   1      15.020 -23.448  28.962  0.00  0.00     0.089 H 
BRANCH  96  98
ATOM     98  C   LEU d   1      13.903 -24.903  27.866  0.00  0.00     0.163 C 
ATOM     99  O   LEU d   1      14.107 -25.841  28.644  0.00  0.00    -0.648 OA
BRANCH  98 100
ATOM    100  O   LEU d   1      13.475 -25.154  26.632  0.00  0.00    -0.775 OA
ATOM    101  H68 LEU d   1      13.367 -24.335  26.163  0.00  0.00     0.167 HD
ENDBRANCH  98 100
ENDBRANCH  96  98
BRANCH  96 102
ATOM    102  CB  LEU d   1      12.931 -22.971  29.119  0.00  0.00    -0.034 C 
ATOM    103  H59 LEU d   1      12.766 -23.693  29.932  0.00  0.00     0.037 H 
ATOM    104  H60 LEU d   1      12.058 -22.967  28.450  0.00  0.00     0.037 H 
BRANCH 102 105
ATOM    105  CG  LEU d   1      13.038 -21.579  29.750  0.00  0.00    -0.059 C 
ATOM    106  H61 LEU d   1      13.204 -20.836  28.956  0.00  0.00     0.038 H 
BRANCH 105 107
ATOM    107  CD1 LEU d   1      11.741 -21.249  30.470  0.00  0.00    -0.073 C 
ATOM    108  H62 LEU d   1      11.817 -20.250  30.923  0.00  0.00     0.028 H 
ATOM    109  H63 LEU d   1      11.558 -21.995  31.257  0.00  0.00     0.028 H 
ATOM    110  H64 LEU d   1      10.909 -21.263  29.751  0.00  0.00     0.028 H 
ENDBRANCH 105 107
BRANCH 105 111
ATOM    111  CD2 LEU d   1      14.214 -21.536  30.717  0.00  0.00    -0.073 C 
ATOM    112  H65 LEU d   1      15.142 -21.777  30.177  0.00  0.00     0.028 H 
ATOM    113  H66 LEU d   1      14.056 -22.271  31.520  0.00  0.00     0.028 H 
ATOM    114  H67 LEU d   1      14.294 -20.529  31.152  0.00  0.00     0.028 H 
ENDBRANCH 105 111
ENDBRANCH 102 105
ENDBRANCH  96 102
ENDBRANCH  94  96
ENDBRANCH  90  92
BRANCH  90 115
ATOM    115  CB  GLU d   1      15.043 -21.867  24.411  0.00  0.00    -0.029 C 
ATOM    116  H53 GLU d   1      14.588 -22.614  23.744  0.00  0.00     0.037 H 
ATOM    117  H54 GLU d   1      15.726 -22.369  25.112  0.00  0.00     0.037 H 
BRANCH 115 118
ATOM    118  CG  GLU d   1      15.863 -20.909  23.557  0.00  0.00     0.018 C 
ATOM    119  H55 GLU d   1      15.243 -20.034  23.314  0.00  0.00     0.049 H 
ATOM    120  H56 GLU d   1      16.152 -21.423  22.628  0.00  0.00     0.049 H 
BRANCH 118 121
ATOM    121  CD  GLU d   1      17.123 -20.433  24.263  0.00  0.00     0.172 C 
ATOM    122  OE1 GLU d   1      17.969 -21.287  24.610  0.00  0.00    -0.648 OA
ATOM    123  OE2 GLU d   1      17.271 -19.209  24.469  0.00  0.00    -0.648 OA
ENDBRANCH 118 121
ENDBRANCH 115 118
ENDBRANCH  90 115
ENDBRANCH  88  90
ENDBRANCH  75  86
ENDBRANCH  70  72
BRANCH  70 124
ATOM    124  CB  GLU d   1      10.386 -16.713  29.201  0.00  0.00    -0.029 C 
ATOM    125  H40 GLU d   1      10.980 -17.584  29.515  0.00  0.00     0.037 H 
ATOM    126  H41 GLU d   1       9.633 -17.029  28.465  0.00  0.00     0.037 H 
BRANCH 124 127
ATOM    127  CG  GLU d   1       9.661 -16.172  30.417  0.00  0.00     0.018 C 
ATOM    128  H42 GLU d   1       9.086 -16.989  30.878  0.00  0.00     0.049 H 
ATOM    129  H43 GLU d   1       8.973 -15.377  30.093  0.00  0.00     0.049 H 
BRANCH 127 130
ATOM    130  CD  GLU d   1      10.609 -15.603  31.449  0.00  0.00     0.172 C 
ATOM    131  OE1 GLU d   1      10.665 -14.362  31.582  0.00  0.00    -0.648 OA
ATOM    132  OE2 GLU d   1      11.302 -16.398  32.120  0.00  0.00    -0.648 OA
ENDBRANCH 127 130
ENDBRANCH 124 127
ENDBRANCH  70 124
ENDBRANCH  68  70
ENDBRANCH   1  66
BRANCH   1 133
ATOM    133  CB  PTR d   1      10.312 -12.057  25.926  0.00  0.00    -0.014 C 
ATOM    134  H32 PTR d   1      10.164 -13.057  25.491  0.00  0.00     0.043 H 
ATOM    135  H33 PTR d   1      11.275 -11.648  25.586  0.00  0.00     0.043 H 
BRANCH 133 136
ATOM    136  CG  PTR d   1       9.196 -11.144  25.438  0.00  0.00    -0.056 A 
ATOM    137  CD1 PTR d   1       7.840 -11.566  25.477  0.00  0.00    -0.074 A 
ATOM    138  CE1 PTR d   1       6.837 -10.684  25.010  0.00  0.00    -0.050 A 
ATOM    139  H34 PTR d   1       7.578 -12.547  25.858  0.00  0.00     0.084 H 
ATOM    140  CZ  PTR d   1       7.186  -9.401  24.514  0.00  0.00     0.082 A 
ATOM    141  H36 PTR d   1       5.797 -10.990  25.031  0.00  0.00     0.087 H 
ATOM    142  CE2 PTR d   1       8.518  -8.956  24.464  0.00  0.00    -0.050 A 
ATOM    143  CD2 PTR d   1       9.510  -9.851  24.934  0.00  0.00    -0.074 A 
ATOM    144  H37 PTR d   1       8.774  -7.974  24.084  0.00  0.00     0.087 H 
ATOM    145  H35 PTR d   1      10.548  -9.539  24.909  0.00  0.00     0.084 H 
BRANCH 140 146
ATOM    146  OH  PTR d   1       6.161  -8.497  24.040  0.00  0.00    -0.240 OA
BRANCH 146 147
ATOM    147  P   PTR d   1       6.340  -7.128  23.151  0.00  0.00     0.427 P 
ATOM    148  O1P PTR d   1       7.059  -6.128  23.966  0.00  0.00    -0.617 OA
ATOM    149  O2P PTR d   1       4.995  -6.625  22.800  0.00  0.00    -0.617 OA
ATOM    150  O3P PTR d   1       7.129  -7.404  21.919  0.00  0.00    -0.617 OA
ENDBRANCH 146 147
ENDBRANCH 140 146
ENDBRANCH 133 136
ENDBRANCH   1 133
TORSDOF 37
