REMARK WARNING: 32 MAX_TORS EXCEEDED!!!
REMARK  38 active torsions:
REMARK  status: ('A' for Active; 'I' for Inactive)
REMARK    1  A    between atoms: N_1  and  CA_2 
REMARK    2  A    between atoms: CA_2  and  C_3 
REMARK    3  A    between atoms: CA_2  and  CB_5 
REMARK       I    between atoms: C_3  and  N_9 
REMARK    4  A    between atoms: CB_5  and  CG_6 
REMARK       I    between atoms: CG_6  and  ND2_8 
REMARK    5  A    between atoms: N_9  and  CA_10 
REMARK    6  A    between atoms: CA_10  and  C_11 
REMARK    7  A    between atoms: CA_10  and  CB_13 
REMARK       I    between atoms: C_11  and  N_18 
REMARK    8  A    between atoms: CB_13  and  CG_14 
REMARK    9  A    between atoms: CG_14  and  CD_15 
REMARK   10  A    between atoms: N_18  and  CA_19 
REMARK   11  A    between atoms: CA_19  and  C_20 
REMARK   12  A    between atoms: CA_19  and  CB_22 
REMARK       I    between atoms: C_20  and  N_24 
REMARK   13  A    between atoms: CB_22  and  OG_23 
REMARK   14  A    between atoms: N_24  and  CA_25 
REMARK   15  A    between atoms: CA_25  and  C_26 
REMARK   16  A    between atoms: CA_25  and  CB_28 
REMARK       I    between atoms: C_26  and  N_31 
REMARK   17  A    between atoms: CB_28  and  CG1_29 
REMARK   18  A    between atoms: CB_28  and  CG2_30 
REMARK   19  A    between atoms: N_31  and  CA_32 
REMARK   20  A    between atoms: CA_32  and  C_33 
REMARK   21  A    between atoms: CA_32  and  CB_35 
REMARK       I    between atoms: C_33  and  N_39 
REMARK   22  A    between atoms: CB_35  and  CG_36 
REMARK   23  A    between atoms: N_39  and  CA_40 
REMARK   24  A    between atoms: CA_40  and  C_41 
REMARK   25  A    between atoms: CA_40  and  CB_43 
REMARK       I    between atoms: C_41  and  N_55 
REMARK   26  A    between atoms: CB_43  and  CG_44 
REMARK   27  A    between atoms: CZ_49  and  OH_50 
REMARK   28  A    between atoms: OH_50  and  P_51 
REMARK   29  A    between atoms: N_55  and  CA_56 
REMARK   30  A    between atoms: CA_56  and  C_57 
REMARK   31  A    between atoms: CA_56  and  CB_59 
REMARK       I    between atoms: C_57  and  N_66 
REMARK   32  A    between atoms: CB_59  and  CG_60 
REMARK   33  A    between atoms: CG_60  and  CD_61 
REMARK   34  A    between atoms: CD_61  and  NE_62 
REMARK       I    between atoms: NE_62  and  CZ_63 
REMARK       I    between atoms: CZ_63  and  NH1_64 
REMARK   35  A    between atoms: N_66  and  CA_67 
REMARK   36  A    between atoms: CA_67  and  C_68 
REMARK   37  A    between atoms: CA_67  and  CB_70 
REMARK   38  A    between atoms: C_68  and  O_126 
ROOT
ATOM      1  CA  ASP d   1     -10.819   6.922  30.072  0.00  0.00     0.098 C 
ATOM      2  H30 ASP d   1      -9.944   7.389  29.597  0.00  0.00     0.088 H 
ENDROOT
BRANCH   1   3
ATOM      3  N   ASP d   1     -11.583   7.961  30.752  0.00  0.00    -0.345 N 
ATOM      4  C   VAL d   1     -12.198   8.935  30.092  0.00  0.00     0.241 C 
ATOM      5  O   VAL d   1     -12.169   9.033  28.867  0.00  0.00    -0.271 OA
ATOM      6  H29 ASP d   1     -11.646   7.939  31.750  0.00  0.00     0.163 HD
BRANCH   4   7
ATOM      7  CA  VAL d   1     -12.957   9.960  30.948  0.00  0.00     0.092 C 
ATOM      8  H21 VAL d   1     -12.696   9.768  31.999  0.00  0.00     0.088 H 
BRANCH   7   9
ATOM      9  N   VAL d   1     -12.611  11.340  30.666  0.00  0.00    -0.346 N 
ATOM     10  C   SER d   1     -12.485  12.228  31.645  0.00  0.00     0.243 C 
ATOM     11  O   SER d   1     -12.652  11.942  32.832  0.00  0.00    -0.271 OA
ATOM     12  H20 VAL d   1     -12.465  11.627  29.719  0.00  0.00     0.163 HD
BRANCH  10  13
ATOM     13  CA  SER d   1     -12.122  13.653  31.234  0.00  0.00     0.109 C 
ATOM     14  H16 SER d   1     -11.190  13.913  31.756  0.00  0.00     0.090 H 
BRANCH  13  15
ATOM     15  N   SER d   1     -11.882  13.849  29.813  0.00  0.00    -0.344 N 
ATOM     16  C   GLU d   1     -10.696  14.265  29.379  0.00  0.00     0.241 C 
ATOM     17  O   GLU d   1      -9.759  14.483  30.142  0.00  0.00    -0.271 OA
ATOM     18  H15 SER d   1     -12.615  13.669  29.157  0.00  0.00     0.163 HD
BRANCH  16  19
ATOM     19  CA  GLU d   1     -10.511  14.467  27.872  0.00  0.00     0.090 C 
ATOM     20  H10 GLU d   1      -9.623  13.881  27.593  0.00  0.00     0.087 H 
BRANCH  19  21
ATOM     21  N   GLU d   1     -11.578  14.009  27.002  0.00  0.00    -0.346 N 
ATOM     22  C   ASN d   1     -12.177  12.830  27.157  0.00  0.00     0.249 C 
ATOM     23  O   ASN d   1     -11.919  12.037  28.074  0.00  0.00    -0.271 OA
ATOM     24  H9  GLU d   1     -11.876  14.603  26.255  0.00  0.00     0.163 HD
BRANCH  22  25
ATOM     25  CA  ASN d   1     -13.245  12.503  26.111  0.00  0.00     0.183 C 
ATOM     26  H4  ASN d   1     -13.889  11.700  26.498  0.00  0.00     0.099 H 
BRANCH  25  27
ATOM     27  N   ASN d   1     -14.092  13.697  25.810  0.00  0.00    -0.066 N 
ATOM     28  H1  ASN d   1     -14.785  13.452  25.120  0.00  0.00     0.275 HD
ATOM     29  H2  ASN d   1     -13.511  14.440  25.454  0.00  0.00     0.275 HD
ATOM     30  H3  ASN d   1     -14.552  14.004  26.653  0.00  0.00     0.275 HD
ENDBRANCH  25  27
BRANCH  25  31
ATOM     31  CB  ASN d   1     -12.557  12.025  24.823  0.00  0.00     0.044 C 
ATOM     32  H5  ASN d   1     -12.036  11.079  25.033  0.00  0.00     0.051 H 
ATOM     33  H6  ASN d   1     -11.826  12.786  24.512  0.00  0.00     0.051 H 
BRANCH  31  34
ATOM     34  CG  ASN d   1     -13.531  11.798  23.686  0.00  0.00     0.217 C 
ATOM     35  OD1 ASN d   1     -14.470  11.009  23.804  0.00  0.00    -0.274 OA
ATOM     36  ND2 ASN d   1     -13.306  12.492  22.566  0.00  0.00    -0.370 N 
ATOM     37  H7  ASN d   1     -13.915  12.385  21.780  0.00  0.00     0.159 HD
ATOM     38  H8  ASN d   1     -12.528  13.119  22.514  0.00  0.00     0.159 HD
ENDBRANCH  31  34
ENDBRANCH  25  31
ENDBRANCH  22  25
ENDBRANCH  19  21
BRANCH  19  39
ATOM     39  CB  GLU d   1     -10.194  15.944  27.595  0.00  0.00    -0.029 C 
ATOM     40  H11 GLU d   1      -9.502  16.303  28.371  0.00  0.00     0.037 H 
ATOM     41  H12 GLU d   1     -11.132  16.517  27.647  0.00  0.00     0.037 H 
BRANCH  39  42
ATOM     42  CG  GLU d   1      -9.561  16.183  26.241  0.00  0.00     0.018 C 
ATOM     43  H13 GLU d   1     -10.229  15.786  25.463  0.00  0.00     0.049 H 
ATOM     44  H14 GLU d   1      -8.598  15.653  26.203  0.00  0.00     0.049 H 
BRANCH  42  45
ATOM     45  CD  GLU d   1      -9.318  17.657  25.969  0.00  0.00     0.172 C 
ATOM     46  OE1 GLU d   1     -10.299  18.431  25.932  0.00  0.00    -0.648 OA
ATOM     47  OE2 GLU d   1      -8.146  18.042  25.798  0.00  0.00    -0.648 OA
ENDBRANCH  42  45
ENDBRANCH  39  42
ENDBRANCH  19  39
ENDBRANCH  16  19
ENDBRANCH  13  15
BRANCH  13  48
ATOM     48  CB  SER d   1     -13.220  14.606  31.711  0.00  0.00     0.044 C 
ATOM     49  H17 SER d   1     -12.925  15.639  31.475  0.00  0.00     0.077 H 
ATOM     50  H18 SER d   1     -13.339  14.498  32.799  0.00  0.00     0.077 H 
BRANCH  48  51
ATOM     51  OG  SER d   1     -14.457  14.326  31.083  0.00  0.00    -0.398 OA
ATOM     52  H19 SER d   1     -15.116  14.933  31.399  0.00  0.00     0.209 HD
ENDBRANCH  48  51
ENDBRANCH  13  48
ENDBRANCH  10  13
ENDBRANCH   7   9
BRANCH   7  53
ATOM     53  CB  VAL d   1     -14.482   9.739  30.781  0.00  0.00    -0.033 C 
ATOM     54  H22 VAL d   1     -15.014  10.455  31.425  0.00  0.00     0.042 H 
BRANCH  53  55
ATOM     55  CG1 VAL d   1     -14.894   9.992  29.338  0.00  0.00    -0.071 C 
ATOM     56  H23 VAL d   1     -15.977   9.832  29.233  0.00  0.00     0.028 H 
ATOM     57  H24 VAL d   1     -14.355   9.299  28.676  0.00  0.00     0.028 H 
ATOM     58  H25 VAL d   1     -14.648  11.028  29.063  0.00  0.00     0.028 H 
ENDBRANCH  53  55
BRANCH  53  59
ATOM     59  CG2 VAL d   1     -14.854   8.332  31.216  0.00  0.00    -0.071 C 
ATOM     60  H26 VAL d   1     -14.545   8.177  32.260  0.00  0.00     0.028 H 
ATOM     61  H27 VAL d   1     -14.344   7.602  30.571  0.00  0.00     0.028 H 
ATOM     62  H28 VAL d   1     -15.943   8.198  31.132  0.00  0.00     0.028 H 
ENDBRANCH  53  59
ENDBRANCH   7  53
ENDBRANCH   4   7
ENDBRANCH   1   3
BRANCH   1  63
ATOM     63  C   ASP d   1     -11.630   6.205  28.988  0.00  0.00     0.241 C 
ATOM     64  O   ASP d   1     -12.819   5.953  29.186  0.00  0.00    -0.271 OA
ATOM     65  N   PTR d   1     -11.012   5.860  27.858  0.00  0.00    -0.346 N 
ATOM     66  H33 PTR d   1     -10.039   6.052  27.728  0.00  0.00     0.163 HD
BRANCH  65  67
ATOM     67  CA  PTR d   1     -11.786   5.197  26.817  0.00  0.00     0.093 C 
ATOM     68  H34 PTR d   1     -12.735   5.750  26.764  0.00  0.00     0.088 H 
BRANCH  67  69
ATOM     69  C   PTR d   1     -12.184   3.747  27.089  0.00  0.00     0.241 C 
ATOM     70  O   PTR d   1     -12.999   3.177  26.355  0.00  0.00    -0.271 OA
ATOM     71  N   ARG d   1     -11.625   3.156  28.138  0.00  0.00    -0.346 N 
ATOM     72  H41 ARG d   1     -10.944   3.650  28.678  0.00  0.00     0.163 HD
BRANCH  71  73
ATOM     73  CA  ARG d   1     -11.991   1.803  28.509  0.00  0.00     0.089 C 
ATOM     74  H42 ARG d   1     -12.474   1.335  27.639  0.00  0.00     0.087 H 
BRANCH  73  75
ATOM     75  C   ARG d   1     -12.980   1.772  29.680  0.00  0.00     0.241 C 
ATOM     76  O   ARG d   1     -13.368   0.700  30.156  0.00  0.00    -0.271 OA
ATOM     77  N   ALA d   1     -13.377   2.957  30.135  0.00  0.00    -0.345 N 
ATOM     78  H54 ALA d   1     -13.020   3.787  29.706  0.00  0.00     0.163 HD
BRANCH  77  79
ATOM     79  CA  ALA d   1     -14.314   3.079  31.237  0.00  0.00     0.090 C 
ATOM     80  H55 ALA d   1     -14.194   2.191  31.875  0.00  0.00     0.088 H 
BRANCH  79  81
ATOM     81  C   ALA d   1     -15.780   3.135  30.795  0.00  0.00     0.163 C 
ATOM     82  O   ALA d   1     -16.106   3.722  29.757  0.00  0.00    -0.648 OA
BRANCH  81  83
ATOM     83  O   ALA d   1     -16.713   2.545  31.537  0.00  0.00    -0.775 OA
ATOM     84  H59 ALA d   1     -17.345   3.194  31.824  0.00  0.00     0.167 HD
ENDBRANCH  81  83
ENDBRANCH  79  81
BRANCH  79  85
ATOM     85  CB  ALA d   1     -13.977   4.316  32.068  0.00  0.00    -0.048 C 
ATOM     86  H56 ALA d   1     -14.690   4.403  32.901  0.00  0.00     0.030 H 
ATOM     87  H57 ALA d   1     -14.042   5.213  31.434  0.00  0.00     0.030 H 
ATOM     88  H58 ALA d   1     -12.956   4.223  32.467  0.00  0.00     0.030 H 
ENDBRANCH  79  85
ENDBRANCH  77  79
ENDBRANCH  73  75
BRANCH  73  89
ATOM     89  CB  ARG d   1     -10.756   0.981  28.876  0.00  0.00    -0.036 C 
ATOM     90  H43 ARG d   1     -11.093   0.046  29.348  0.00  0.00     0.036 H 
ATOM     91  H44 ARG d   1     -10.159   1.560  29.596  0.00  0.00     0.036 H 
BRANCH  89  92
ATOM     92  CG  ARG d   1      -9.863   0.623  27.699  0.00  0.00    -0.048 C 
ATOM     93  H45 ARG d   1      -9.324   1.522  27.366  0.00  0.00     0.035 H 
ATOM     94  H46 ARG d   1     -10.484   0.242  26.875  0.00  0.00     0.035 H 
BRANCH  92  95
ATOM     95  CD  ARG d   1      -8.861  -0.440  28.103  0.00  0.00     0.009 C 
ATOM     96  H47 ARG d   1      -9.408  -1.324  28.461  0.00  0.00     0.064 H 
ATOM     97  H48 ARG d   1      -8.232  -0.044  28.914  0.00  0.00     0.064 H 
BRANCH  95  98
ATOM     98  NE  ARG d   1      -8.000  -0.838  26.993  0.00  0.00    -0.227 N 
ATOM     99  CZ  ARG d   1      -7.092  -1.804  27.070  0.00  0.00     0.665 C 
ATOM    100  NH1 ARG d   1      -6.926  -2.470  28.205  0.00  0.00    -0.235 N 
ATOM    101  NH2 ARG d   1      -6.347  -2.103  26.014  0.00  0.00    -0.235 N 
ATOM    102  H50 ARG d   1      -6.222  -3.219  28.264  0.00  0.00     0.174 HD
ATOM    103  H51 ARG d   1      -7.502  -2.238  29.027  0.00  0.00     0.174 HD
ATOM    104  H52 ARG d   1      -6.474  -1.587  25.131  0.00  0.00     0.174 HD
ATOM    105  H53 ARG d   1      -5.641  -2.851  26.076  0.00  0.00     0.174 HD
ATOM    106  H49 ARG d   1      -8.103  -0.340  26.097  0.00  0.00     0.177 HD
ENDBRANCH  95  98
ENDBRANCH  92  95
ENDBRANCH  89  92
ENDBRANCH  73  89
ENDBRANCH  71  73
ENDBRANCH  67  69
BRANCH  67 107
ATOM    107  CB  PTR d   1     -11.114   5.364  25.435  0.00  0.00    -0.014 C 
ATOM    108  H35 PTR d   1     -10.775   6.408  25.361  0.00  0.00     0.043 H 
ATOM    109  H36 PTR d   1     -11.884   5.174  24.673  0.00  0.00     0.043 H 
BRANCH 107 110
ATOM    110  CG  PTR d   1      -9.917   4.475  25.101  0.00  0.00    -0.056 A 
ATOM    111  CD1 PTR d   1      -8.596   4.908  25.390  0.00  0.00    -0.074 A 
ATOM    112  CE1 PTR d   1      -7.509   4.077  25.044  0.00  0.00    -0.050 A 
ATOM    113  H37 PTR d   1      -8.425   5.865  25.870  0.00  0.00     0.084 H 
ATOM    114  CZ  PTR d   1      -7.734   2.833  24.413  0.00  0.00     0.082 A 
ATOM    115  H39 PTR d   1      -6.496   4.395  25.264  0.00  0.00     0.087 H 
ATOM    116  CE2 PTR d   1      -9.029   2.368  24.116  0.00  0.00    -0.050 A 
ATOM    117  CD2 PTR d   1     -10.111   3.213  24.468  0.00  0.00    -0.074 A 
ATOM    118  H40 PTR d   1      -9.191   1.408  23.640  0.00  0.00     0.087 H 
ATOM    119  H38 PTR d   1     -11.121   2.888  24.248  0.00  0.00     0.084 H 
BRANCH 114 120
ATOM    120  OH  PTR d   1      -6.613   1.997  24.053  0.00  0.00    -0.240 OA
BRANCH 120 121
ATOM    121  P   PTR d   1      -6.628   0.616  23.175  0.00  0.00     0.427 P 
ATOM    122  O1P PTR d   1      -7.307  -0.420  23.979  0.00  0.00    -0.617 OA
ATOM    123  O2P PTR d   1      -5.224   0.249  22.905  0.00  0.00    -0.617 OA
ATOM    124  O3P PTR d   1      -7.363   0.810  21.893  0.00  0.00    -0.617 OA
ENDBRANCH 120 121
ENDBRANCH 114 120
ENDBRANCH 107 110
ENDBRANCH  67 107
ENDBRANCH  65  67
ENDBRANCH   1  63
BRANCH   1 125
ATOM    125  CB  ASP d   1     -10.344   5.905  31.102  0.00  0.00     0.043 C 
ATOM    126  H31 ASP d   1     -11.198   5.277  31.396  0.00  0.00     0.052 H 
ATOM    127  H32 ASP d   1      -9.966   6.446  31.982  0.00  0.00     0.052 H 
BRANCH 125 128
ATOM    128  CG  ASP d   1      -9.250   5.015  30.578  0.00  0.00     0.175 C 
ATOM    129  OD1 ASP d   1      -8.073   5.438  30.625  0.00  0.00    -0.648 OA
ATOM    130  OD2 ASP d   1      -9.567   3.898  30.116  0.00  0.00    -0.648 OA
ENDBRANCH 125 128
ENDBRANCH   1 125
TORSDOF 38
