REMARK  11 active torsions:
REMARK  status: ('A' for Active; 'I' for Inactive)
REMARK    1  A    between atoms: C14_26  and  C16_3 
REMARK    2  A    between atoms: C14_26  and  C15_4 
REMARK    3  A    between atoms: C23_8  and  N22_27 
REMARK    4  A    between atoms: C24_9  and  C29_31 
REMARK    5  A    between atoms: C8_21  and  C11_10 
REMARK       I    between atoms: C11_10  and  N13_25 
REMARK    6  A    between atoms: N30_32  and  C27_12 
REMARK    7  A    between atoms: C31_33  and  C33_13 
REMARK    8  A    between atoms: N22_27  and  C5_18 
REMARK    9  A    between atoms: C7_20  and  C10_23 
REMARK   10  A    between atoms: N13_25  and  C14_26 
REMARK       I    between atoms: N30_32  and  C31_33 
REMARK   11  A    between atoms: C35_35  and  N39_39 
ROOT
ATOM      1  C23 P38 d   1      -3.696   0.760  17.822  0.00  0.00     0.041 A 
ATOM      2  C24 P38 d   1      -5.158   0.755  17.361  0.00  0.00    -0.035 A 
ATOM      3  C27 P38 d   1      -3.138   1.992  15.797  0.00  0.00     0.037 A 
ATOM      4  C25 P38 d   1      -5.535   1.421  16.045  0.00  0.00    -0.073 A 
ATOM      5  C26 P38 d   1      -4.502   1.994  15.315  0.00  0.00    -0.057 A 
ATOM      6  C28 P38 d   1      -2.715   1.385  17.061  0.00  0.00    -0.031 A 
ATOM      7  H18 P38 d   1      -6.561   1.447  15.695  0.00  0.00     0.084 H 
ATOM      8  H19 P38 d   1      -4.723   2.455  14.359  0.00  0.00     0.086 H 
ATOM      9  H20 P38 d   1      -1.682   1.421  17.389  0.00  0.00     0.090 H 
ENDROOT
BRANCH   1  10
ATOM     10  N22 P38 d   1      -3.330   0.151  18.959  0.00  0.00    -0.339 N 
ATOM     11  H17 P38 d   1      -3.289  -0.878  18.955  0.00  0.00     0.167 HD
BRANCH  10  12
ATOM     12  C5  P38 d   1      -3.010   0.787  20.114  0.00  0.00     0.159 C 
ATOM     13  N4  P38 d   1      -2.899   2.127  20.087  0.00  0.00    -0.220 NA
ATOM     14  C3  P38 d   1      -2.454   2.843  21.175  0.00  0.00     0.108 C 
ATOM     15  N2  P38 d   1      -2.459   2.254  22.402  0.00  0.00    -0.161 NA
ATOM     16  H10 P38 d   1      -2.103   3.867  21.056  0.00  0.00     0.149 H 
ATOM     17  N1  P38 d   1      -2.511   0.768  22.415  0.00  0.00    -0.239 N 
ATOM     18  C6  P38 d   1      -2.779   0.006  21.237  0.00  0.00     0.111 A 
ATOM     19  C9  P38 d   1      -2.315  -0.164  23.368  0.00  0.00     0.020 A 
ATOM     20  C7  P38 d   1      -2.713  -1.473  21.509  0.00  0.00    -0.012 A 
ATOM     21  C8  P38 d   1      -2.450  -1.514  22.898  0.00  0.00     0.058 A 
ATOM     22  H11 P38 d   1      -2.076   0.084  24.401  0.00  0.00     0.116 H 
BRANCH  20  23
ATOM     23  C10 P38 d   1      -2.858  -2.661  20.502  0.00  0.00    -0.048 C 
ATOM     24  H12 P38 d   1      -3.062  -2.266  19.496  0.00  0.00     0.033 H 
ATOM     25  H13 P38 d   1      -3.689  -3.309  20.817  0.00  0.00     0.033 H 
ATOM     26  H14 P38 d   1      -1.925  -3.243  20.485  0.00  0.00     0.033 H 
ENDBRANCH  20  23
BRANCH  21  27
ATOM     27  C11 P38 d   1      -2.282  -2.524  23.762  0.00  0.00     0.254 C 
ATOM     28  O12 P38 d   1      -2.568  -3.696  23.482  0.00  0.00    -0.268 OA
ATOM     29  N13 P38 d   1      -1.684  -2.003  24.962  0.00  0.00    -0.349 N 
ATOM     30  H15 P38 d   1      -1.413  -1.040  24.952  0.00  0.00     0.163 HD
BRANCH  29  31
ATOM     31  C14 P38 d   1      -1.419  -2.794  26.273  0.00  0.00     0.034 C 
ATOM     32  H16 P38 d   1      -1.123  -1.926  26.880  0.00  0.00     0.079 H 
BRANCH  31  33
ATOM     33  C16 P38 d   1      -2.675  -3.116  26.923  0.00  0.00    -0.036 A 
ATOM     34  C17 P38 d   1      -3.394  -2.064  27.553  0.00  0.00    -0.075 A 
ATOM     35  C18 P38 d   1      -4.621  -2.390  28.199  0.00  0.00    -0.082 A 
ATOM     36  H2  P38 d   1      -3.021  -1.046  27.542  0.00  0.00     0.084 H 
ATOM     37  C19 P38 d   1      -5.104  -3.734  28.212  0.00  0.00    -0.083 A 
ATOM     38  H1  P38 d   1      -5.194  -1.609  28.686  0.00  0.00     0.083 H 
ATOM     39  C20 P38 d   1      -4.395  -4.798  27.587  0.00  0.00    -0.082 A 
ATOM     40  H6  P38 d   1      -6.040  -3.950  28.714  0.00  0.00     0.083 H 
ATOM     41  C21 P38 d   1      -3.165  -4.468  26.936  0.00  0.00    -0.075 A 
ATOM     42  H7  P38 d   1      -4.771  -5.815  27.604  0.00  0.00     0.083 H 
ATOM     43  H8  P38 d   1      -2.594  -5.248  26.445  0.00  0.00     0.084 H 
ENDBRANCH  31  33
BRANCH  31  44
ATOM     44  C15 P38 d   1      -0.228  -3.662  26.675  0.00  0.00    -0.053 C 
ATOM     45  H3  P38 d   1       0.667  -3.334  26.126  0.00  0.00     0.030 H 
ATOM     46  H4  P38 d   1      -0.442  -4.713  26.432  0.00  0.00     0.030 H 
ATOM     47  H5  P38 d   1      -0.051  -3.564  27.756  0.00  0.00     0.030 H 
ENDBRANCH  31  44
ENDBRANCH  29  31
ENDBRANCH  21  27
ENDBRANCH  10  12
ENDBRANCH   1  10
BRANCH   2  48
ATOM     48  C29 P38 d   1      -6.342   0.067  18.116  0.00  0.00    -0.049 C 
ATOM     49  H21 P38 d   1      -5.970  -0.382  19.049  0.00  0.00     0.033 H 
ATOM     50  H22 P38 d   1      -6.777  -0.717  17.479  0.00  0.00     0.033 H 
ATOM     51  H23 P38 d   1      -7.112   0.817  18.351  0.00  0.00     0.033 H 
ENDBRANCH   2  48
BRANCH   3  52
ATOM     52  N30 P38 d   1      -2.214   2.662  14.974  0.00  0.00    -0.323 N 
ATOM     53  C31 P38 d   1      -0.842   2.337  14.891  0.00  0.00     0.256 C 
ATOM     54  O32 P38 d   1      -0.169   1.572  15.607  0.00  0.00    -0.267 OA
ATOM     55  H24 P38 d   1      -2.550   3.417  14.411  0.00  0.00     0.169 HD
BRANCH  53  56
ATOM     56  C33 P38 d   1      -0.141   3.077  13.862  0.00  0.00     0.037 A 
ATOM     57  C34 P38 d   1       1.067   2.478  13.442  0.00  0.00    -0.024 A 
ATOM     58  C35 P38 d   1       1.902   3.108  12.460  0.00  0.00     0.126 A 
ATOM     59  H9  P38 d   1       1.368   1.528  13.868  0.00  0.00     0.090 H 
ATOM     60  N36 P38 d   1       1.466   4.255  11.960  0.00  0.00    -0.243 NA
ATOM     61  C37 P38 d   1       0.256   4.796  12.383  0.00  0.00     0.005 A 
ATOM     62  C38 P38 d   1      -0.615   4.331  13.323  0.00  0.00    -0.051 A 
ATOM     63  H25 P38 d   1      -0.036   5.719  11.896  0.00  0.00     0.114 H 
ATOM     64  H26 P38 d   1      -1.530   4.829  13.622  0.00  0.00     0.087 H 
BRANCH  58  65
ATOM     65  N39 P38 d   1       3.115   2.508  12.090  0.00  0.00    -0.362 N 
ATOM     66  C40 P38 d   1       3.480   1.266  12.853  0.00  0.00     0.016 C 
ATOM     67  C41 P38 d   1       4.505   0.433  12.123  0.00  0.00     0.034 C 
ATOM     68  H27 P38 d   1       2.573   0.662  13.002  0.00  0.00     0.067 H 
ATOM     69  H28 P38 d   1       3.891   1.558  13.831  0.00  0.00     0.067 H 
ATOM     70  O42 P38 d   1       5.599   1.224  11.860  0.00  0.00    -0.388 OA
ATOM     71  H29 P38 d   1       4.079   0.063  11.179  0.00  0.00     0.076 H 
ATOM     72  H30 P38 d   1       4.805  -0.420  12.749  0.00  0.00     0.076 H 
ATOM     73  C43 P38 d   1       5.392   2.426  11.060  0.00  0.00     0.034 C 
ATOM     74  C44 P38 d   1       4.253   3.314  11.562  0.00  0.00     0.016 C 
ATOM     75  H31 P38 d   1       5.164   2.121  10.028  0.00  0.00     0.076 H 
ATOM     76  H32 P38 d   1       6.321   3.014  11.072  0.00  0.00     0.076 H 
ATOM     77  H33 P38 d   1       4.634   3.962  12.366  0.00  0.00     0.067 H 
ATOM     78  H34 P38 d   1       3.893   3.936  10.729  0.00  0.00     0.067 H 
ENDBRANCH  58  65
ENDBRANCH  53  56
ENDBRANCH   3  52
TORSDOF 11
