REMARK  11 active torsions:
REMARK  status: ('A' for Active; 'I' for Inactive)
REMARK    1  A    between atoms: C14_26  and  C16_3 
REMARK    2  A    between atoms: C14_26  and  C15_4 
REMARK    3  A    between atoms: C23_8  and  N22_27 
REMARK    4  A    between atoms: C24_9  and  C29_31 
REMARK    5  A    between atoms: C8_21  and  C11_10 
REMARK       I    between atoms: C11_10  and  N13_25 
REMARK    6  A    between atoms: N30_32  and  C27_12 
REMARK    7  A    between atoms: C31_33  and  C33_13 
REMARK    8  A    between atoms: N22_27  and  C5_18 
REMARK    9  A    between atoms: C7_20  and  C10_23 
REMARK   10  A    between atoms: N13_25  and  C14_26 
REMARK       I    between atoms: N30_32  and  C31_33 
REMARK   11  A    between atoms: C35_35  and  N39_39 
ROOT
ATOM      1  C23 P39 d   1      -3.301  36.599  21.150  0.00  0.00     0.041 A 
ATOM      2  C24 P39 d   1      -4.666  36.637  21.448  0.00  0.00    -0.035 A 
ATOM      3  C27 P39 d   1      -2.763  35.191  23.174  0.00  0.00     0.037 A 
ATOM      4  C25 P39 d   1      -5.076  35.943  22.632  0.00  0.00    -0.073 A 
ATOM      5  C26 P39 d   1      -4.170  35.233  23.487  0.00  0.00    -0.057 A 
ATOM      6  C28 P39 d   1      -2.434  35.909  21.975  0.00  0.00    -0.031 A 
ATOM      7  H18 P39 d   1      -6.127  35.955  22.896  0.00  0.00     0.084 H 
ATOM      8  H19 P39 d   1      -4.543  34.727  24.370  0.00  0.00     0.086 H 
ATOM      9  H20 P39 d   1      -1.389  35.910  21.685  0.00  0.00     0.090 H 
ENDROOT
BRANCH   1  10
ATOM     10  N22 P39 d   1      -2.814  37.250  20.022  0.00  0.00    -0.339 N 
ATOM     11  H17 P39 d   1      -2.707  38.273  20.075  0.00  0.00     0.167 HD
BRANCH  10  12
ATOM     12  C5  P39 d   1      -2.458  36.628  18.823  0.00  0.00     0.159 A 
ATOM     13  N4  P39 d   1      -2.516  35.356  18.956  0.00  0.00    -0.220 NA
ATOM     14  C3  P39 d   1      -2.208  34.609  17.839  0.00  0.00     0.108 A 
ATOM     15  N2  P39 d   1      -1.832  35.257  16.708  0.00  0.00    -0.161 NA
ATOM     16  H10 P39 d   1      -2.265  33.522  17.864  0.00  0.00     0.149 H 
ATOM     17  N1  P39 d   1      -1.778  36.565  16.553  0.00  0.00    -0.239 N 
ATOM     18  C6  P39 d   1      -2.082  37.364  17.662  0.00  0.00     0.111 A 
ATOM     19  C9  P39 d   1      -1.460  37.344  15.518  0.00  0.00     0.020 A 
ATOM     20  C7  P39 d   1      -1.924  38.770  17.347  0.00  0.00    -0.012 A 
ATOM     21  C8  P39 d   1      -1.539  38.735  15.940  0.00  0.00     0.058 A 
ATOM     22  H11 P39 d   1      -1.187  36.997  14.523  0.00  0.00     0.116 H 
BRANCH  20  23
ATOM     23  C10 P39 d   1      -2.168  40.065  18.281  0.00  0.00    -0.048 C 
ATOM     24  H12 P39 d   1      -2.448  39.739  19.294  0.00  0.00     0.033 H 
ATOM     25  H13 P39 d   1      -2.977  40.677  17.856  0.00  0.00     0.033 H 
ATOM     26  H14 P39 d   1      -1.245  40.661  18.330  0.00  0.00     0.033 H 
ENDBRANCH  20  23
BRANCH  21  27
ATOM     27  C11 P39 d   1      -1.330  39.862  15.057  0.00  0.00     0.254 C 
ATOM     28  O12 P39 d   1      -1.533  41.078  15.365  0.00  0.00    -0.268 OA
ATOM     29  N13 P39 d   1      -1.007  39.539  13.813  0.00  0.00    -0.349 N 
ATOM     30  H15 P39 d   1      -1.029  38.606  13.454  0.00  0.00     0.163 HD
BRANCH  29  31
ATOM     31  C14 P39 d   1      -0.626  40.674  13.051  0.00  0.00     0.034 C 
ATOM     32  H16 P39 d   1      -0.543  41.559  13.700  0.00  0.00     0.079 H 
BRANCH  31  33
ATOM     33  C16 P39 d   1      -1.705  40.768  12.083  0.00  0.00    -0.036 A 
ATOM     34  C17 P39 d   1      -2.057  42.058  11.518  0.00  0.00    -0.075 A 
ATOM     35  C18 P39 d   1      -3.121  42.011  10.578  0.00  0.00    -0.082 A 
ATOM     36  H2  P39 d   1      -1.552  42.978  11.790  0.00  0.00     0.084 H 
ATOM     37  C19 P39 d   1      -3.778  40.770  10.240  0.00  0.00    -0.083 A 
ATOM     38  H1  P39 d   1      -3.448  42.929  10.103  0.00  0.00     0.083 H 
ATOM     39  C20 P39 d   1      -3.432  39.525  10.811  0.00  0.00    -0.082 A 
ATOM     40  H6  P39 d   1      -4.579  40.795   9.510  0.00  0.00     0.083 H 
ATOM     41  C21 P39 d   1      -2.386  39.557  11.734  0.00  0.00    -0.075 A 
ATOM     42  H7  P39 d   1      -3.945  38.606  10.550  0.00  0.00     0.083 H 
ATOM     43  H8  P39 d   1      -2.077  38.631  12.205  0.00  0.00     0.084 H 
ENDBRANCH  31  33
BRANCH  31  44
ATOM     44  C15 P39 d   1       0.581  40.554  12.195  0.00  0.00    -0.053 C 
ATOM     45  H3  P39 d   1       1.475  40.475  12.831  0.00  0.00     0.030 H 
ATOM     46  H4  P39 d   1       0.665  41.443  11.553  0.00  0.00     0.030 H 
ATOM     47  H5  P39 d   1       0.497  39.655  11.567  0.00  0.00     0.030 H 
ENDBRANCH  31  44
ENDBRANCH  29  31
ENDBRANCH  21  27
ENDBRANCH  10  12
ENDBRANCH   1  10
BRANCH   2  48
ATOM     48  C29 P39 d   1      -5.649  37.363  20.547  0.00  0.00    -0.049 C 
ATOM     49  H21 P39 d   1      -5.107  37.818  19.705  0.00  0.00     0.033 H 
ATOM     50  H22 P39 d   1      -6.161  38.149  21.121  0.00  0.00     0.033 H 
ATOM     51  H23 P39 d   1      -6.391  36.648  20.162  0.00  0.00     0.033 H 
ENDBRANCH   2  48
BRANCH   3  52
ATOM     52  N30 P39 d   1      -1.886  34.526  24.021  0.00  0.00    -0.323 N 
ATOM     53  C31 P39 d   1      -0.611  34.941  24.077  0.00  0.00     0.256 C 
ATOM     54  O32 P39 d   1      -0.092  35.784  23.328  0.00  0.00    -0.267 OA
ATOM     55  H24 P39 d   1      -2.198  33.755  24.577  0.00  0.00     0.169 HD
BRANCH  53  56
ATOM     56  C33 P39 d   1       0.377  34.281  25.032  0.00  0.00     0.034 A 
ATOM     57  C34 P39 d   1       1.606  34.955  25.450  0.00  0.00    -0.042 A 
ATOM     58  C35 P39 d   1       2.444  34.344  26.303  0.00  0.00     0.031 A 
ATOM     59  H9  P39 d   1       1.839  35.944  25.073  0.00  0.00     0.088 H 
ATOM     60  C36 P39 d   1       2.073  33.137  26.700  0.00  0.00    -0.057 A 
ATOM     61  C37 P39 d   1       1.018  32.428  26.394  0.00  0.00    -0.080 A 
ATOM     62  H25 P39 d   1       2.756  32.658  27.392  0.00  0.00     0.086 H 
ATOM     63  C38 P39 d   1       0.145  32.996  25.536  0.00  0.00    -0.068 A 
ATOM     64  H26 P39 d   1       0.854  31.439  26.806  0.00  0.00     0.083 H 
ATOM     65  H27 P39 d   1      -0.743  32.453  25.235  0.00  0.00     0.085 H 
BRANCH  58  66
ATOM     66  N39 P39 d   1       3.613  34.884  26.700  0.00  0.00    -0.377 N 
ATOM     67  C40 P39 d   1       3.825  36.237  26.357  0.00  0.00     0.015 C 
ATOM     68  C41 P39 d   1       5.262  36.691  26.764  0.00  0.00     0.034 C 
ATOM     69  H28 P39 d   1       3.087  36.862  26.881  0.00  0.00     0.067 H 
ATOM     70  H29 P39 d   1       3.703  36.358  25.270  0.00  0.00     0.067 H 
ATOM     71  O42 P39 d   1       6.089  35.879  27.588  0.00  0.00    -0.388 OA
ATOM     72  H30 P39 d   1       5.148  37.651  27.288  0.00  0.00     0.076 H 
ATOM     73  H31 P39 d   1       5.816  36.848  25.827  0.00  0.00     0.076 H 
ATOM     74  C43 P39 d   1       5.503  34.903  28.407  0.00  0.00     0.034 C 
ATOM     75  C44 P39 d   1       4.685  34.059  27.356  0.00  0.00     0.015 C 
ATOM     76  H32 P39 d   1       4.842  35.355  29.161  0.00  0.00     0.076 H 
ATOM     77  H33 P39 d   1       6.266  34.289  28.909  0.00  0.00     0.076 H 
ATOM     78  H34 P39 d   1       5.373  33.688  26.583  0.00  0.00     0.067 H 
ATOM     79  H35 P39 d   1       4.216  33.207  27.869  0.00  0.00     0.067 H 
ENDBRANCH  58  66
ENDBRANCH  53  56
ENDBRANCH   3  52
TORSDOF 11
