REMARK  5 active torsions:
REMARK  status: ('A' for Active; 'I' for Inactive)
REMARK    1  A    between atoms: C3_4  and  C2_3 
REMARK    2  A    between atoms: C12_16  and  C13_15 
REMARK    3  A    between atoms: OS_31  and  C10_17 
REMARK    4  A    between atoms: C29_23  and  C30_22 
REMARK    5  A    between atoms: C26_28  and  O15_29 
ROOT
ATOM      1  C3  DWC d   1      20.231 -38.935  -1.628  0.00  0.00     0.012 A 
ATOM      2  C4  DWC d   1      21.064 -39.820  -2.345  0.00  0.00    -0.068 A 
ATOM      3  C5  DWC d   1      21.120 -39.762  -3.756  0.00  0.00    -0.065 A 
ATOM      4  C6  DWC d   1      20.335 -38.834  -4.470  0.00  0.00     0.003 A 
ATOM      5  C7  DWC d   1      19.504 -38.047  -2.409  0.00  0.00     0.106 A 
ATOM      6  N21 DWC d   1      19.551 -37.958  -3.803  0.00  0.00    -0.258 N 
ATOM      7  C22 DWC d   1      18.649 -37.145  -1.784  0.00  0.00     0.214 A 
ATOM      8  N19 DWC d   1      17.939 -36.271  -2.545  0.00  0.00     0.159 N 
ATOM      9  C17 DWC d   1      16.057 -36.612  -4.980  0.00  0.00    -0.046 A 
ATOM     10  C16 DWC d   1      16.639 -37.866  -5.401  0.00  0.00    -0.042 A 
ATOM     11  C14 DWC d   1      17.577 -37.591  -6.456  0.00  0.00    -0.042 A 
ATOM     12  C13 DWC d   1      17.573 -36.175  -6.677  0.00  0.00    -0.046 A 
ATOM     13  C12 DWC d   1      16.641 -35.570  -5.768  0.00  0.00    -0.057 A 
ATOM     14  C29 DWC d   1      18.446 -37.006  -0.417  0.00  0.00     0.033 A 
ATOM     15  C28 DWC d   1      17.527 -35.968  -0.291  0.00  0.00     0.018 A 
ATOM     16  C23 DWC d   1      17.214 -35.545  -1.610  0.00  0.00     0.184 A 
ATOM     17  C24 DWC d   1      16.282 -34.531  -1.835  0.00  0.00    -0.043 A 
ATOM     18  C25 DWC d   1      15.704 -33.894  -0.738  0.00  0.00    -0.049 A 
ATOM     19  C26 DWC d   1      15.988 -34.299   0.589  0.00  0.00     0.066 A 
ATOM     20  C27 DWC d   1      16.897 -35.365   0.812  0.00  0.00    -0.038 A 
ATOM     21 OS   DWC d   1      18.233 -36.554  -4.619  0.00  0.00     0.000 Os
ATOM     22  H1  DWC d   1      21.664 -40.548  -1.811  0.00  0.00     0.085 H 
ATOM     23  H2  DWC d   1      21.774 -40.438  -4.295  0.00  0.00     0.085 H 
ATOM     24  H3  DWC d   1      20.360 -38.823  -5.554  0.00  0.00     0.114 H 
ATOM     25  H4  DWC d   1      17.939 -36.171  -3.570  0.00  0.00     0.331 HD
ATOM     26  H5  DWC d   1      15.307 -36.483  -4.201  0.00  0.00     0.041 H 
ATOM     27  H6  DWC d   1      16.408 -38.848  -4.991  0.00  0.00     0.041 H 
ATOM     28  H7  DWC d   1      18.180 -38.325  -6.989  0.00  0.00     0.041 H 
ATOM     29  H8  DWC d   1      18.177 -35.646  -7.413  0.00  0.00     0.041 H 
ATOM     30  H9  DWC d   1      17.165 -34.856  -5.115  0.00  0.00     0.034 H 
ATOM     31  H10 DWC d   1      15.857 -35.044  -6.332  0.00  0.00     0.034 H 
ATOM     32  H14 DWC d   1      16.012 -34.244  -2.845  0.00  0.00     0.087 H 
ATOM     33  H15 DWC d   1      15.021 -33.069  -0.905  0.00  0.00     0.087 H 
ATOM     34  H17 DWC d   1      17.103 -35.710   1.819  0.00  0.00     0.089 H 
ENDROOT
BRANCH  21  35
ATOM     35  C10 DWC d   1      19.500 -35.179  -4.711  0.00  0.00     0.055 C 
ATOM     36  O11 DWC d   1      20.260 -34.371  -4.788  0.00  0.00    -0.315 OA
ATOM     37  H11 DWC d   1      18.598 -35.023  -4.122  0.00  0.00     0.130 H 
ATOM     38  H12 DWC d   1      19.658 -36.126  -5.225  0.00  0.00     0.130 H 
ENDBRANCH  21  35
BRANCH   1  39
ATOM     39  C2  DWC d   1      20.061 -38.848  -0.214  0.00  0.00     0.061 A 
ATOM     40  C1  DWC d   1      20.612 -39.592   0.816  0.00  0.00     0.260 A 
ATOM     41  O9  DWC d   1      21.431 -40.526   0.720  0.00  0.00    -0.267 OA
ATOM     42  N20 DWC d   1      20.115 -39.153   2.031  0.00  0.00    -0.289 N 
ATOM     43  C31 DWC d   1      19.232 -38.135   1.781  0.00  0.00     0.260 A 
ATOM     44  H13 DWC d   1      20.357 -39.514   2.931  0.00  0.00     0.172 HD
ATOM     45  O8  DWC d   1      18.639 -37.550   2.679  0.00  0.00    -0.267 OA
ATOM     46  C30 DWC d   1      19.172 -37.914   0.402  0.00  0.00     0.062 A 
ENDBRANCH   1  39
BRANCH  19  47
ATOM     47  O15 DWC d   1      15.362 -33.685   1.644  0.00  0.00    -0.361 OA
ATOM     48  H16 DWC d   1      15.662 -34.072   2.458  0.00  0.00     0.217 HD
ENDBRANCH  19  47
TORSDOF 5
