REMARK  14 active torsions:
REMARK  status: ('A' for Active; 'I' for Inactive)
REMARK       I    between atoms: N1_1  and  C15_2 
REMARK    1  A    between atoms: N1_1  and  C2_10 
REMARK       I    between atoms: C15_2  and  N9_4 
REMARK    2  A    between atoms: C2_10  and  C3_11 
REMARK    3  A    between atoms: C2_10  and  C5_34 
REMARK       I    between atoms: C3_11  and  N28_13 
REMARK    4  A    between atoms: N28_13  and  C19_14 
REMARK    5  A    between atoms: C19_14  and  C18_15 
REMARK    6  A    between atoms: C19_14  and  C20_26 
REMARK    7  A    between atoms: C18_15  and  C17_16 
REMARK    8  A    between atoms: C17_16  and  S33_17 
REMARK    9  A    between atoms: S33_17  and  C32_20 
REMARK   10  A    between atoms: C20_26  and  C21_27 
REMARK   11  A    between atoms: C21_27  and  C22_28 
REMARK   12  A    between atoms: C5_34  and  C6_35 
REMARK   13  A    between atoms: C6_35  and  C7_36 
REMARK   14  A    between atoms: C6_35  and  C8_37 
ROOT
ATOM      1  C19 C1P d   1       6.738 -22.737  48.771  0.00  0.00     0.013 C 
ATOM      2  H   C1P d   1       7.759 -22.774  48.392  0.00  0.00     0.072 H 
ENDROOT
BRANCH   1   3
ATOM      3  N28 C1P d   1       6.690 -21.746  49.883  0.00  0.00    -0.355 N 
ATOM      4  C3  C1P d   1       7.734 -21.007  50.216  0.00  0.00     0.240 C 
ATOM      5  O4  C1P d   1       8.847 -21.115  49.660  0.00  0.00    -0.271 OA
ATOM      6  H   C1P d   1       5.821 -21.634  50.405  0.00  0.00     0.162 HD
BRANCH   4   7
ATOM      7  C2  C1P d   1       7.514 -20.032  51.413  0.00  0.00     0.091 C 
ATOM      8  H   C1P d   1       6.597 -20.158  51.989  0.00  0.00     0.087 H 
BRANCH   7   9
ATOM      9  N1  C1P d   1       8.723 -20.282  52.215  0.00  0.00    -0.330 N 
ATOM     10  C15 C1P d   1       8.895 -21.427  52.871  0.00  0.00     0.319 C 
ATOM     11  O16 C1P d   1       8.006 -22.282  52.888  0.00  0.00    -0.247 OA
ATOM     12  N9  C1P d   1      10.041 -21.691  53.547  0.00  0.00    -0.330 N 
ATOM     13  C14 C1P d   1      11.171 -20.748  53.654  0.00  0.00     0.019 C 
ATOM     14  C10 C1P d   1      10.179 -22.947  54.293  0.00  0.00     0.019 C 
ATOM     15  C13 C1P d   1      12.486 -21.507  53.491  0.00  0.00     0.034 C 
ATOM     16  H   C1P d   1      11.149 -20.265  54.631  0.00  0.00     0.067 H 
ATOM     17  H   C1P d   1      11.089 -19.993  52.873  0.00  0.00     0.067 H 
ATOM     18  O12 C1P d   1      12.450 -22.637  54.287  0.00  0.00    -0.388 OA
ATOM     19  H   C1P d   1      13.319 -20.871  53.790  0.00  0.00     0.076 H 
ATOM     20  H   C1P d   1      12.620 -21.794  52.448  0.00  0.00     0.076 H 
ATOM     21  C11 C1P d   1      11.486 -23.595  53.933  0.00  0.00     0.034 C 
ATOM     22  H   C1P d   1      11.634 -24.542  54.453  0.00  0.00     0.076 H 
ATOM     23  H   C1P d   1      11.537 -23.862  52.877  0.00  0.00     0.076 H 
ATOM     24  H   C1P d   1       9.357 -23.616  54.038  0.00  0.00     0.067 H 
ATOM     25  H   C1P d   1      10.155 -22.741  55.363  0.00  0.00     0.067 H 
ATOM     26  H   C1P d   1       9.444 -19.562  52.269  0.00  0.00     0.165 HD
ENDBRANCH   7   9
BRANCH   7  27
ATOM     27  C5  C1P d   1       7.504 -18.613  50.835  0.00  0.00    -0.035 C 
ATOM     28  H   C1P d   1       6.608 -18.535  50.220  0.00  0.00     0.037 H 
ATOM     29  H   C1P d   1       8.449 -18.487  50.306  0.00  0.00     0.037 H 
BRANCH  27  30
ATOM     30  C6  C1P d   1       7.427 -17.499  51.849  0.00  0.00    -0.059 C 
ATOM     31  H   C1P d   1       8.310 -17.557  52.485  0.00  0.00     0.038 H 
BRANCH  30  32
ATOM     32  C7  C1P d   1       6.271 -17.632  52.827  0.00  0.00    -0.073 C 
ATOM     33  H   C1P d   1       5.330 -17.633  52.277  0.00  0.00     0.028 H 
ATOM     34  H   C1P d   1       6.371 -18.566  53.381  0.00  0.00     0.028 H 
ATOM     35  H   C1P d   1       6.286 -16.793  53.522  0.00  0.00     0.028 H 
ENDBRANCH  30  32
BRANCH  30  36
ATOM     36  C8  C1P d   1       7.417 -16.168  51.107  0.00  0.00    -0.073 C 
ATOM     37  H   C1P d   1       8.330 -16.074  50.520  0.00  0.00     0.028 H 
ATOM     38  H   C1P d   1       6.552 -16.129  50.445  0.00  0.00     0.028 H 
ATOM     39  H   C1P d   1       7.362 -15.352  51.828  0.00  0.00     0.028 H 
ENDBRANCH  30  36
ENDBRANCH  27  30
ENDBRANCH   7  27
ENDBRANCH   4   7
ENDBRANCH   1   3
BRANCH   1  40
ATOM     40  C18 C1P d   1       5.825 -22.305  47.631  0.00  0.00    -0.034 C 
ATOM     41  H   C1P d   1       5.992 -22.989  46.799  0.00  0.00     0.037 H 
ATOM     42  H   C1P d   1       6.064 -21.268  47.394  0.00  0.00     0.037 H 
BRANCH  40  43
ATOM     43  C17 C1P d   1       4.330 -22.366  47.988  0.00  0.00     0.035 C 
ATOM     44  H   C1P d   1       3.913 -21.409  47.675  0.00  0.00     0.056 H 
ATOM     45  H   C1P d   1       4.290 -22.605  49.051  0.00  0.00     0.056 H 
BRANCH  43  46
ATOM     46  S33 C1P d   1       3.321 -23.642  47.155  0.00  0.00     0.175 S 
ATOM     47  O34 C1P d   1       2.947 -23.189  45.842  0.00  0.00    -0.223 OA
ATOM     48  O35 C1P d   1       4.116 -24.872  46.976  0.00  0.00    -0.223 OA
BRANCH  46  49
ATOM     49  C32 C1P d   1       1.845 -23.934  48.012  0.00  0.00     0.059 A 
ATOM     50  C36 C1P d   1       1.645 -23.455  49.310  0.00  0.00    -0.062 A 
ATOM     51  C37 C1P d   1       0.461 -23.702  50.006  0.00  0.00    -0.082 A 
ATOM     52  H   C1P d   1       2.433 -22.875  49.790  0.00  0.00     0.085 H 
ATOM     53  C29 C1P d   1      -0.566 -24.422  49.378  0.00  0.00    -0.083 A 
ATOM     54  H   C1P d   1       0.336 -23.340  51.026  0.00  0.00     0.083 H 
ATOM     55  C30 C1P d   1      -0.396 -24.923  48.069  0.00  0.00    -0.082 A 
ATOM     56  H   C1P d   1      -1.504 -24.596  49.905  0.00  0.00     0.083 H 
ATOM     57  C31 C1P d   1       0.820 -24.664  47.384  0.00  0.00    -0.062 A 
ATOM     58  H   C1P d   1      -1.187 -25.500  47.591  0.00  0.00     0.083 H 
ATOM     59  H   C1P d   1       0.960 -25.032  46.368  0.00  0.00     0.085 H 
ENDBRANCH  46  49
ENDBRANCH  43  46
ENDBRANCH  40  43
ENDBRANCH   1  40
BRANCH   1  60
ATOM     60  C20 C1P d   1       6.383 -24.139  49.264  0.00  0.00    -0.043 C 
ATOM     61  H   C1P d   1       6.283 -24.805  48.407  0.00  0.00     0.036 H 
ATOM     62  H   C1P d   1       5.445 -24.096  49.817  0.00  0.00     0.036 H 
BRANCH  60  63
ATOM     63  C21 C1P d   1       7.474 -24.664  50.176  0.00  0.00    -0.039 C 
ATOM     64  H   C1P d   1       7.582 -23.973  51.012  0.00  0.00     0.040 H 
ATOM     65  H   C1P d   1       8.393 -24.748  49.596  0.00  0.00     0.040 H 
BRANCH  63  66
ATOM     66  C22 C1P d   1       7.139 -26.024  50.729  0.00  0.00    -0.058 A 
ATOM     67  C23 C1P d   1       7.663 -27.168  50.129  0.00  0.00    -0.077 A 
ATOM     68  C24 C1P d   1       7.354 -28.436  50.624  0.00  0.00    -0.082 A 
ATOM     69  H   C1P d   1       8.320 -27.071  49.265  0.00  0.00     0.084 H 
ATOM     70  C25 C1P d   1       6.505 -28.560  51.731  0.00  0.00    -0.083 A 
ATOM     71  H   C1P d   1       7.771 -29.325  50.151  0.00  0.00     0.083 H 
ATOM     72  C26 C1P d   1       5.984 -27.402  52.359  0.00  0.00    -0.082 A 
ATOM     73  H   C1P d   1       6.245 -29.549  52.110  0.00  0.00     0.083 H 
ATOM     74  C27 C1P d   1       6.309 -26.124  51.856  0.00  0.00    -0.077 A 
ATOM     75  H   C1P d   1       5.334 -27.498  53.228  0.00  0.00     0.083 H 
ATOM     76  H   C1P d   1       5.920 -25.226  52.337  0.00  0.00     0.084 H 
ENDBRANCH  63  66
ENDBRANCH  60  63
ENDBRANCH   1  60
TORSDOF 14
