REMARK  10 active torsions:
REMARK  status: ('A' for Active; 'I' for Inactive)
REMARK    1  A    between atoms: C5_5  and  C10_10 
REMARK    2  A    between atoms: C6_6  and  C12_12 
REMARK    3  A    between atoms: N19_19  and  C7_7 
REMARK    4  A    between atoms: C8_8  and  C11_11 
REMARK    5  A    between atoms: N20_20  and  C9_9 
REMARK       I    between atoms: C10_10  and  N21_21 
REMARK       I    between atoms: C11_11  and  N19_19 
REMARK    6  A    between atoms: C16_16  and  C13_13 
REMARK    7  A    between atoms: C17_17  and  C14_14 
REMARK    8  A    between atoms: N21_21  and  C15_15 
REMARK    9  A    between atoms: C17_17  and  C16_16 
REMARK   10  A    between atoms: C17_17  and  N20_20 
ROOT
ATOM      1  C11 304 d   1      -2.953  37.009  19.005  0.00  0.00     0.264 C 
ATOM      2  N19 304 d   1      -3.601  37.407  20.165  0.00  0.00    -0.322 N 
ATOM      3  O23 304 d   1      -2.509  35.874  18.835  0.00  0.00    -0.267 OA
ATOM      4  H20 304 d   1      -3.970  38.334  20.231  0.00  0.00     0.169 HD
ENDROOT
BRANCH   1   5
ATOM      5  C8  304 d   1      -2.828  38.029  17.998  0.00  0.00     0.094 A 
ATOM      6  C4  304 d   1      -2.996  39.386  18.062  0.00  0.00     0.027 A 
ATOM      7  N18 304 d   1      -2.783  40.072  16.893  0.00  0.00    -0.235 NA
ATOM      8  H4  304 d   1      -3.281  39.890  18.984  0.00  0.00     0.117 H 
ATOM      9  C9  304 d   1      -2.440  39.251  15.913  0.00  0.00     0.167 A 
ATOM     10  S24 304 d   1      -2.385  37.582  16.413  0.00  0.00    -0.045 SA
BRANCH   9  11
ATOM     11  N20 304 d   1      -2.191  39.725  14.650  0.00  0.00    -0.365 N 
ATOM     12  H21 304 d   1      -2.668  40.607  14.413  0.00  0.00     0.162 HD
BRANCH  11  13
ATOM     13  C17 304 d   1      -1.350  39.169  13.585  0.00  0.00     0.007 C 
ATOM     14  H19 304 d   1      -0.857  40.010  13.075  0.00  0.00     0.071 H 
BRANCH  13  15
ATOM     15  C14 304 d   1      -2.166  38.407  12.531  0.00  0.00    -0.057 C 
ATOM     16  H11 304 d   1      -1.490  38.012  11.759  0.00  0.00     0.030 H 
ATOM     17  H12 304 d   1      -2.894  39.089  12.067  0.00  0.00     0.030 H 
ATOM     18  H13 304 d   1      -2.699  37.574  13.012  0.00  0.00     0.030 H 
ENDBRANCH  13  15
BRANCH  13  19
ATOM     19  C16 304 d   1      -0.270  38.290  14.185  0.00  0.00    -0.050 C 
ATOM     20  H17 304 d   1      -0.731  37.586  14.894  0.00  0.00     0.035 H 
ATOM     21  H18 304 d   1       0.225  37.728  13.380  0.00  0.00     0.035 H 
BRANCH  19  22
ATOM     22  C13 304 d   1       0.764  39.124  14.916  0.00  0.00    -0.075 C 
ATOM     23  H8  304 d   1       1.534  38.463  15.341  0.00  0.00     0.027 H 
ATOM     24  H9  304 d   1       0.276  39.686  15.726  0.00  0.00     0.027 H 
ATOM     25  H10 304 d   1       1.232  39.828  14.212  0.00  0.00     0.027 H 
ENDBRANCH  19  22
ENDBRANCH  13  19
ENDBRANCH  11  13
ENDBRANCH   9  11
ENDBRANCH   1   5
BRANCH   2  26
ATOM     26  C7  304 d   1      -3.747  36.513  21.262  0.00  0.00     0.042 A 
ATOM     27  C3  304 d   1      -2.592  36.023  21.912  0.00  0.00    -0.041 A 
ATOM     28  C5  304 d   1      -2.685  35.140  23.000  0.00  0.00     0.034 A 
ATOM     29  H3  304 d   1      -1.614  36.335  21.564  0.00  0.00     0.088 H 
ATOM     30  C1  304 d   1      -3.956  34.772  23.439  0.00  0.00    -0.067 A 
ATOM     31  C2  304 d   1      -5.110  35.255  22.803  0.00  0.00    -0.074 A 
ATOM     32  H1  304 d   1      -4.054  34.102  24.285  0.00  0.00     0.085 H 
ATOM     33  C6  304 d   1      -5.032  36.131  21.710  0.00  0.00    -0.035 A 
ATOM     34  H2  304 d   1      -6.084  34.944  23.164  0.00  0.00     0.084 H 
BRANCH  28  35
ATOM     35  C10 304 d   1      -1.420  34.656  23.662  0.00  0.00     0.251 C 
ATOM     36  N21 304 d   1      -1.522  33.610  24.564  0.00  0.00    -0.361 N 
ATOM     37  H22 304 d   1      -2.367  33.076  24.593  0.00  0.00     0.162 HD
ATOM     38  O22 304 d   1      -0.344  35.194  23.406  0.00  0.00    -0.268 OA
BRANCH  36  39
ATOM     39  C15 304 d   1      -0.442  33.266  25.466  0.00  0.00    -0.018 C 
ATOM     40  H14 304 d   1      -0.742  32.409  26.087  0.00  0.00     0.056 H 
ATOM     41  H15 304 d   1      -0.216  34.127  26.113  0.00  0.00     0.056 H 
ATOM     42  H16 304 d   1       0.452  33.001  24.883  0.00  0.00     0.056 H 
ENDBRANCH  36  39
ENDBRANCH  28  35
BRANCH  33  43
ATOM     43  C12 304 d   1      -6.304  36.629  21.081  0.00  0.00    -0.049 C 
ATOM     44  H5  304 d   1      -7.167  36.191  21.604  0.00  0.00     0.033 H 
ATOM     45  H6  304 d   1      -6.329  36.334  20.021  0.00  0.00     0.033 H 
ATOM     46  H7  304 d   1      -6.346  37.725  21.158  0.00  0.00     0.033 H 
ENDBRANCH  33  43
ENDBRANCH   2  26
TORSDOF 10
