REMARK  4 active torsions:
REMARK  status: ('A' for Active; 'I' for Inactive)
REMARK    1  A    between atoms: CAA_1  and  CAX_2 
REMARK    2  A    between atoms: CAX_2  and  CAB_3 
REMARK    3  A    between atoms: CAX_2  and  CAZ_4 
REMARK    4  A    between atoms: CA_8  and  C_9 
ROOT
ATOM      1  CAZ DRS d   1       3.039   1.805  11.923  0.00  0.00     0.092 C 
ATOM      2  CAU DRS d   1       4.077   0.795  12.418  0.00  0.00     0.241 C 
ATOM      3  OAE DRS d   1       4.177  -0.315  11.898  0.00  0.00    -0.271 OA
ATOM      4  N   DRS d   1       4.829   1.211  13.434  0.00  0.00    -0.344 N 
ATOM      5  CA  DRS d   1       5.841   0.349  14.063  0.00  0.00     0.100 C 
ATOM      6  CB  DRS d   1       7.191   1.065  14.152  0.00  0.00    -0.013 C 
ATOM      7  CG  DRS d   1       7.581   1.663  12.798  0.00  0.00    -0.056 A 
ATOM      8  CD2 DRS d   1       7.524   3.043  12.637  0.00  0.00    -0.074 A 
ATOM      9  CE2 DRS d   1       7.721   3.607  11.380  0.00  0.00    -0.050 A 
ATOM     10  CD1 DRS d   1       7.860   0.841  11.710  0.00  0.00    -0.074 A 
ATOM     11  CE1 DRS d   1       8.057   1.406  10.452  0.00  0.00    -0.050 A 
ATOM     12  CZ  DRS d   1       7.977   2.786  10.286  0.00  0.00     0.068 A 
ATOM     13  OH  DRS d   1       8.080   3.359   9.055  0.00  0.00    -0.351 OA
ATOM     14  CAM DRS d   1       7.185   2.786   8.085  0.00  0.00     0.026 C 
ATOM     15  CAK DRS d   1       5.715   2.835   8.510  0.00  0.00    -0.044 C 
ATOM     16  CAL DRS d   1       5.210   4.267   8.706  0.00  0.00    -0.055 C 
ATOM     17  CAN DRS d   1       3.740   4.291   9.134  0.00  0.00     0.009 C 
ATOM     18  CAS DRS d   1       3.543   3.763  10.558  0.00  0.00     0.218 C 
ATOM     19  OAC DRS d   1       3.446   4.535  11.511  0.00  0.00    -0.274 OA
ATOM     20  NAP DRS d   1       3.490   2.439  10.676  0.00  0.00    -0.347 N 
ATOM     21  H8  DRS d   1       2.913   2.585  12.688  0.00  0.00     0.088 H 
ATOM     22  H9  DRS d   1       4.702   2.140  13.781  0.00  0.00     0.163 HD
ATOM     23  H10 DRS d   1       5.958  -0.574  13.477  0.00  0.00     0.090 H 
ATOM     24  H11 DRS d   1       7.962   0.344  14.463  0.00  0.00     0.043 H 
ATOM     25  H12 DRS d   1       7.122   1.872  14.896  0.00  0.00     0.043 H 
ATOM     26  H13 DRS d   1       7.326   3.680  13.491  0.00  0.00     0.084 H 
ATOM     27  H14 DRS d   1       7.675   4.683  11.254  0.00  0.00     0.087 H 
ATOM     28  H15 DRS d   1       7.924  -0.233  11.841  0.00  0.00     0.084 H 
ATOM     29  H16 DRS d   1       8.273   0.770   9.601  0.00  0.00     0.087 H 
ATOM     30  H17 DRS d   1       7.468   1.735   7.928  0.00  0.00     0.075 H 
ATOM     31  H18 DRS d   1       7.293   3.340   7.141  0.00  0.00     0.075 H 
ATOM     32  H19 DRS d   1       5.603   2.288   9.458  0.00  0.00     0.036 H 
ATOM     33  H20 DRS d   1       5.106   2.349   7.733  0.00  0.00     0.036 H 
ATOM     34  H21 DRS d   1       5.315   4.816   7.758  0.00  0.00     0.033 H 
ATOM     35  H22 DRS d   1       5.816   4.756   9.482  0.00  0.00     0.033 H 
ATOM     36  H23 DRS d   1       3.159   3.665   8.441  0.00  0.00     0.047 H 
ATOM     37  H24 DRS d   1       3.374   5.327   9.087  0.00  0.00     0.047 H 
ATOM     38  H25 DRS d   1       3.762   1.865   9.903  0.00  0.00     0.163 HD
ENDROOT
BRANCH   1  39
ATOM     39  CAX DRS d   1       1.693   1.106  11.704  0.00  0.00    -0.033 C 
ATOM     40  H4  DRS d   1       1.821   0.361  10.905  0.00  0.00     0.042 H 
BRANCH  39  41
ATOM     41  CAA DRS d   1       0.629   2.111  11.258  0.00  0.00    -0.071 C 
ATOM     42  H1  DRS d   1      -0.328   1.589  11.107  0.00  0.00     0.028 H 
ATOM     43  H2  DRS d   1       0.943   2.583  10.315  0.00  0.00     0.028 H 
ATOM     44  H3  DRS d   1       0.507   2.883  12.032  0.00  0.00     0.028 H 
ENDBRANCH  39  41
BRANCH  39  45
ATOM     45  CAB DRS d   1       1.236   0.376  12.969  0.00  0.00    -0.071 C 
ATOM     46  H5  DRS d   1       2.010  -0.342  13.278  0.00  0.00     0.028 H 
ATOM     47  H6  DRS d   1       0.298  -0.161  12.764  0.00  0.00     0.028 H 
ATOM     48  H7  DRS d   1       1.072   1.107  13.775  0.00  0.00     0.028 H 
ENDBRANCH  39  45
ENDBRANCH   1  39
BRANCH   5  49
ATOM     49  C   DRS d   1       5.340   0.015  15.471  0.00  0.00     0.197 C 
ATOM     50  OXT DRS d   1       4.150   0.163  15.747  0.00  0.00    -0.646 OA
ATOM     51  O   DRS d   1       6.102  -0.426  16.330  0.00  0.00    -0.646 OA
ENDBRANCH   5  49
TORSDOF 4
