REMARK  8 active torsions:
REMARK  status: ('A' for Active; 'I' for Inactive)
REMARK    1  A    between atoms: O3A_8  and  PB_1 
REMARK    2  A    between atoms: PA_5  and  O3A_8 
REMARK    3  A    between atoms: PA_5  and  O5'_9 
REMARK    4  A    between atoms: O5'_9  and  C5'_10 
REMARK    5  A    between atoms: C5'_10  and  C4'_11 
REMARK    6  A    between atoms: C3'_13  and  O3'_14 
REMARK    7  A    between atoms: C2'_15  and  O2'_16 
REMARK    8  A    between atoms: C1'_17  and  N9_18 
ROOT
ATOM      1  C4' ADP d   1      53.900  -4.195   5.077  0.00  0.00     0.089 A 
ATOM      2  O4' ADP d   1      53.958  -4.836   3.793  0.00  0.00    -0.353 OA
ATOM      3  C3' ADP d   1      53.847  -2.663   4.764  0.00  0.00     0.091 A 
ATOM      4  C2' ADP d   1      53.870  -2.474   3.254  0.00  0.00     0.105 A 
ATOM      5  C1' ADP d   1      53.931  -3.862   2.694  0.00  0.00     0.139 A 
ATOM      6  H3  ADP d   1      54.814  -4.412   5.649  0.00  0.00     0.090 H 
ATOM      7  H4  ADP d   1      52.904  -2.260   5.161  0.00  0.00     0.091 H 
ATOM      8  H6  ADP d   1      52.941  -1.987   2.924  0.00  0.00     0.093 H 
ATOM      9  H8  ADP d   1      54.850  -3.950   2.096  0.00  0.00     0.122 H 
ENDROOT
BRANCH   5  10
ATOM     10  N9  ADP d   1      52.740  -4.236   1.821  0.00  0.00    -0.294 N 
ATOM     11  C8  ADP d   1      51.402  -4.263   2.209  0.00  0.00     0.071 A 
ATOM     12  N7  ADP d   1      50.643  -4.673   1.155  0.00  0.00    -0.236 NA
ATOM     13  H9  ADP d   1      51.024  -3.999   3.196  0.00  0.00     0.144 H 
ATOM     14  C5  ADP d   1      51.428  -4.912   0.112  0.00  0.00     0.149 A 
ATOM     15  C6  ADP d   1      51.239  -5.332  -1.186  0.00  0.00     0.155 A 
ATOM     16  C4  ADP d   1      52.778  -4.609   0.539  0.00  0.00     0.167 A 
ATOM     17  N6  ADP d   1      50.016  -5.635  -1.625  0.00  0.00    -0.382 N 
ATOM     18  N1  ADP d   1      52.324  -5.465  -2.042  0.00  0.00    -0.222 NA
ATOM     19  H10 ADP d   1      49.881  -5.949  -2.597  0.00  0.00     0.157 HD
ATOM     20  H11 ADP d   1      49.207  -5.555  -0.992  0.00  0.00     0.157 HD
ATOM     21  C2  ADP d   1      53.622  -5.180  -1.645  0.00  0.00     0.091 A 
ATOM     22  N3  ADP d   1      53.824  -4.769  -0.359  0.00  0.00    -0.222 NA
ATOM     23  H12 ADP d   1      54.452  -5.281  -2.336  0.00  0.00     0.146 H 
ENDBRANCH   5  10
BRANCH   4  24
ATOM     24  O2' ADP d   1      54.988  -1.640   2.850  0.00  0.00    -0.388 OA
ATOM     25  H7  ADP d   1      54.911  -0.788   3.263  0.00  0.00     0.210 HD
ENDBRANCH   4  24
BRANCH   1  26
ATOM     26  C5' ADP d   1      52.677  -4.745   5.888  0.00  0.00     0.058 C 
ATOM     27  H1  ADP d   1      52.142  -5.525   5.326  0.00  0.00     0.079 H 
ATOM     28  H2  ADP d   1      52.991  -5.146   6.863  0.00  0.00     0.079 H 
BRANCH  26  29
ATOM     29  O5' ADP d   1      51.892  -3.597   6.038  0.00  0.00    -0.287 OA
BRANCH  29  30
ATOM     30  PA  ADP d   1      51.323  -3.030   7.358  0.00  0.00     0.418 P 
ATOM     31  O1A ADP d   1      52.316  -2.895   8.457  0.00  0.00    -0.624 OA
ATOM     32  O2A ADP d   1      50.661  -1.782   7.042  0.00  0.00    -0.624 OA
BRANCH  30  33
ATOM     33  O3A ADP d   1      50.144  -3.968   7.682  0.00  0.00    -0.173 OA
BRANCH  33  34
ATOM     34  PB  ADP d   1      49.722  -4.773   8.896  0.00  0.00     0.431 P 
ATOM     35  O1B ADP d   1      48.991  -3.879   9.822  0.00  0.00    -0.616 OA
ATOM     36  O2B ADP d   1      51.081  -5.334   9.588  0.00  0.00    -0.616 OA
ATOM     37  O3B ADP d   1      48.817  -5.875   8.481  0.00  0.00    -0.616 OA
ENDBRANCH  33  34
ENDBRANCH  30  33
ENDBRANCH  29  30
ENDBRANCH  26  29
ENDBRANCH   1  26
BRANCH   3  38
ATOM     38  O3' ADP d   1      54.912  -1.950   5.353  0.00  0.00    -0.390 OA
ATOM     39  H5  ADP d   1      54.834  -1.029   5.134  0.00  0.00     0.210 HD
ENDBRANCH   3  38
TORSDOF 8
