REMARK  11 active torsions:
REMARK  status: ('A' for Active; 'I' for Inactive)
REMARK    1  A    between atoms: N7_25  and  C8_4 
REMARK    2  A    between atoms: C10_6  and  N2_7 
REMARK    3  A    between atoms: N2_7  and  C13_9 
REMARK    4  A    between atoms: C15_11  and  O3_27 
REMARK    5  A    between atoms: C16_12  and  O1_14 
REMARK    6  A    between atoms: C17_13  and  O2_15 
REMARK    7  A    between atoms: O1_14  and  C9_16 
REMARK    8  A    between atoms: O2_15  and  C18_28 
REMARK    9  A    between atoms: N1_26  and  C12_24 
REMARK   10  A    between atoms: C24_34  and  N1_26 
REMARK   11  A    between atoms: O3_27  and  C19_29 
ROOT
ATOM      1  N3  AM0 d   1      25.065  34.894  81.762  0.00  0.00    -0.055 NA
ATOM      2  C7  AM0 d   1      23.758  34.942  82.133  0.00  0.00     0.124 A 
ATOM      3  N4  AM0 d   1      23.340  35.746  83.142  0.00  0.00    -0.054 NA
ATOM      4  C8  AM0 d   1      24.258  36.581  83.856  0.00  0.00     0.765 A 
ATOM      5  N5  AM0 d   1      25.594  36.496  83.451  0.00  0.00     0.131 NA
ATOM      6  C10 AM0 d   1      25.974  35.670  82.424  0.00  0.00     0.744 A 
ATOM      7  H1  AM0 d   1      23.035  34.325  81.612  0.00  0.00     0.148 H 
ENDROOT
BRANCH   4   8
ATOM      8  N7  AM0 d   1      23.936  37.528  84.876  0.00  0.00     0.031 N 
ATOM      9  C4  AM0 d   1      24.791  38.350  85.692  0.00  0.00     0.104 A 
ATOM     10  C3  AM0 d   1      23.854  39.137  86.523  0.00  0.00     0.104 A 
ATOM     11  C5  AM0 d   1      26.252  38.553  85.871  0.00  0.00    -0.053 A 
ATOM     12  C2  AM0 d   1      24.393  40.098  87.496  0.00  0.00    -0.052 A 
ATOM     13  N6  AM0 d   1      22.573  38.725  86.142  0.00  0.00    -0.061 NA
ATOM     14  C1  AM0 d   1      25.831  40.269  87.643  0.00  0.00    -0.081 A 
ATOM     15  H9  AM0 d   1      23.716  40.683  88.108  0.00  0.00     0.087 H 
ATOM     16  C6  AM0 d   1      26.781  39.504  86.841  0.00  0.00    -0.081 A 
ATOM     17  H8  AM0 d   1      26.206  40.983  88.367  0.00  0.00     0.083 H 
ATOM     18  H11 AM0 d   1      27.850  39.639  86.963  0.00  0.00     0.083 H 
ATOM     19  C12 AM0 d   1      22.655  37.791  85.188  0.00  0.00     0.727 A 
ATOM     20  H10 AM0 d   1      26.943  37.979  85.264  0.00  0.00     0.087 H 
BRANCH  19  21
ATOM     21  N1  AM0 d   1      21.466  37.138  84.592  0.00  0.00    -0.189 N 
ATOM     22  H12 AM0 d   1      21.621  36.340  83.960  0.00  0.00     0.184 HD
BRANCH  21  23
ATOM     23  C24 AM0 d   1      20.168  37.529  84.828  0.00  0.00     0.049 A 
ATOM     24  C23 AM0 d   1      19.369  37.740  83.639  0.00  0.00    -0.057 A 
ATOM     25  C22 AM0 d   1      17.992  38.107  83.768  0.00  0.00    -0.081 A 
ATOM     26  H22 AM0 d   1      19.811  37.621  82.657  0.00  0.00     0.086 H 
ATOM     27  C21 AM0 d   1      17.490  38.246  85.115  0.00  0.00    -0.083 A 
ATOM     28  H21 AM0 d   1      17.360  38.272  82.903  0.00  0.00     0.083 H 
ATOM     29  C20 AM0 d   1      18.239  38.056  86.349  0.00  0.00    -0.081 A 
ATOM     30  H20 AM0 d   1      16.446  38.520  85.218  0.00  0.00     0.083 H 
ATOM     31  C25 AM0 d   1      19.618  37.687  86.192  0.00  0.00    -0.057 A 
ATOM     32  H19 AM0 d   1      17.785  38.185  87.325  0.00  0.00     0.083 H 
ATOM     33  H23 AM0 d   1      20.247  37.527  87.060  0.00  0.00     0.086 H 
ENDBRANCH  21  23
ENDBRANCH  19  21
ENDBRANCH   4   8
BRANCH   6  34
ATOM     34  N2  AM0 d   1      27.306  35.627  82.025  0.00  0.00    -0.187 N 
ATOM     35  H2  AM0 d   1      27.570  34.840  81.416  0.00  0.00     0.184 HD
BRANCH  34  36
ATOM     36  C13 AM0 d   1      28.328  36.521  82.350  0.00  0.00     0.054 A 
ATOM     37  C11 AM0 d   1      29.600  35.963  82.198  0.00  0.00    -0.022 A 
ATOM     38  C17 AM0 d   1      30.743  36.739  82.514  0.00  0.00     0.106 A 
ATOM     39  H3  AM0 d   1      29.712  34.945  81.841  0.00  0.00     0.091 H 
ATOM     40  C16 AM0 d   1      30.546  38.068  82.976  0.00  0.00     0.135 A 
ATOM     41  C15 AM0 d   1      29.273  38.678  83.150  0.00  0.00     0.106 A 
ATOM     42  C14 AM0 d   1      28.148  37.881  82.823  0.00  0.00    -0.022 A 
ATOM     43  H4  AM0 d   1      27.149  38.289  82.927  0.00  0.00     0.091 H 
BRANCH  38  44
ATOM     44  O2  AM0 d   1      32.048  36.284  82.422  0.00  0.00    -0.353 OA
BRANCH  44  45
ATOM     45  C18 AM0 d   1      32.313  34.940  81.981  0.00  0.00     0.010 C 
ATOM     46  H13 AM0 d   1      33.399  34.764  81.973  0.00  0.00     0.066 H 
ATOM     47  H14 AM0 d   1      31.912  34.801  80.966  0.00  0.00     0.066 H 
ATOM     48  H15 AM0 d   1      31.831  34.227  82.667  0.00  0.00     0.066 H 
ENDBRANCH  44  45
ENDBRANCH  38  44
BRANCH  40  49
ATOM     49  O1  AM0 d   1      31.605  38.885  83.277  0.00  0.00    -0.351 OA
BRANCH  49  50
ATOM     50  C9  AM0 d   1      32.114  38.653  84.586  0.00  0.00     0.011 C 
ATOM     51  H5  AM0 d   1      32.959  39.331  84.776  0.00  0.00     0.067 H 
ATOM     52  H6  AM0 d   1      32.455  37.611  84.667  0.00  0.00     0.067 H 
ATOM     53  H7  AM0 d   1      31.321  38.838  85.326  0.00  0.00     0.067 H 
ENDBRANCH  49  50
ENDBRANCH  40  49
BRANCH  41  54
ATOM     54  O3  AM0 d   1      29.213  39.990  83.654  0.00  0.00    -0.353 OA
BRANCH  54  55
ATOM     55  C19 AM0 d   1      28.019  40.803  83.544  0.00  0.00     0.010 C 
ATOM     56  H16 AM0 d   1      28.201  41.785  84.004  0.00  0.00     0.066 H 
ATOM     57  H17 AM0 d   1      27.187  40.304  84.062  0.00  0.00     0.066 H 
ATOM     58  H18 AM0 d   1      27.763  40.937  82.483  0.00  0.00     0.066 H 
ENDBRANCH  54  55
ENDBRANCH  41  54
ENDBRANCH  34  36
ENDBRANCH   6  34
TORSDOF 11
