REMARK  7 active torsions:
REMARK  status: ('A' for Active; 'I' for Inactive)
REMARK    1  A    between atoms: C1_1  and  N3_7 
REMARK    2  A    between atoms: N3_7  and  C5_8 
REMARK    3  A    between atoms: C8_11  and  N7_34 
REMARK    4  A    between atoms: N5_16  and  C19_26 
REMARK    5  A    between atoms: C20_27  and  C26_33 
REMARK    6  A    between atoms: C24_31  and  C25_32 
REMARK    7  A    between atoms: N8_37  and  C31_40 
ROOT
ATOM      1  C1  AM9 d   1      25.759  35.800  82.930  0.00  0.00     0.728 A 
ATOM      2  N1  AM9 d   1      25.574  36.546  84.069  0.00  0.00    -0.043 NA
ATOM      3  C2  AM9 d   1      24.371  36.768  84.633  0.00  0.00     0.187 A 
ATOM      4  C3  AM9 d   1      23.214  36.141  83.938  0.00  0.00     0.099 A 
ATOM      5  C4  AM9 d   1      23.389  35.328  82.727  0.00  0.00     0.040 A 
ATOM      6  N2  AM9 d   1      24.682  35.202  82.277  0.00  0.00    -0.074 NA
ATOM      7  N4  AM9 d   1      24.250  37.621  85.821  0.00  0.00    -0.124 N 
ATOM      8  C11 AM9 d   1      23.045  37.913  86.429  0.00  0.00     0.724 A 
ATOM      9  N5  AM9 d   1      21.892  37.337  85.833  0.00  0.00    -0.107 N 
ATOM     10  C12 AM9 d   1      22.007  36.496  84.618  0.00  0.00     0.282 A 
ATOM     11  C13 AM9 d   1      25.187  38.354  86.628  0.00  0.00     0.088 A 
ATOM     12  C14 AM9 d   1      24.508  39.096  87.704  0.00  0.00     0.103 A 
ATOM     13  N6  AM9 d   1      23.176  38.793  87.550  0.00  0.00    -0.061 NA
ATOM     14  C15 AM9 d   1      26.657  38.522  86.577  0.00  0.00    -0.054 A 
ATOM     15  C16 AM9 d   1      27.424  39.358  87.515  0.00  0.00    -0.081 A 
ATOM     16  C17 AM9 d   1      26.681  40.060  88.542  0.00  0.00    -0.081 A 
ATOM     17  C18 AM9 d   1      25.244  39.951  88.659  0.00  0.00    -0.052 A 
ATOM     18  O1  AM9 d   1      21.024  36.087  84.012  0.00  0.00    -0.266 OA
ATOM     19  H1  AM9 d   1      22.553  34.858  82.221  0.00  0.00     0.117 H 
ATOM     20  H7  AM9 d   1      27.202  37.997  85.801  0.00  0.00     0.087 H 
ATOM     21  H8  AM9 d   1      28.502  39.445  87.440  0.00  0.00     0.083 H 
ATOM     22  H9  AM9 d   1      27.219  40.686  89.244  0.00  0.00     0.083 H 
ATOM     23  H10 AM9 d   1      24.714  40.489  89.436  0.00  0.00     0.087 H 
ENDROOT
BRANCH   1  24
ATOM     24  N3  AM9 d   1      27.045  35.726  82.415  0.00  0.00    -0.188 N 
ATOM     25  H2  AM9 d   1      27.157  35.048  81.647  0.00  0.00     0.184 HD
BRANCH  24  26
ATOM     26  C5  AM9 d   1      28.233  36.421  82.761  0.00  0.00     0.049 A 
ATOM     27  C6  AM9 d   1      28.153  37.686  83.517  0.00  0.00    -0.054 A 
ATOM     28  C7  AM9 d   1      29.312  38.347  83.982  0.00  0.00    -0.055 A 
ATOM     29  H3  AM9 d   1      27.180  38.119  83.721  0.00  0.00     0.087 H 
ATOM     30  C8  AM9 d   1      30.536  37.684  83.649  0.00  0.00     0.030 A 
ATOM     31  H4  AM9 d   1      29.277  39.275  84.542  0.00  0.00     0.087 H 
ATOM     32  C9  AM9 d   1      30.672  36.421  82.868  0.00  0.00    -0.055 A 
ATOM     33  C10 AM9 d   1      29.478  35.777  82.410  0.00  0.00    -0.054 A 
ATOM     34  H5  AM9 d   1      31.648  36.002  82.653  0.00  0.00     0.087 H 
ATOM     35  H6  AM9 d   1      29.506  34.859  81.833  0.00  0.00     0.087 H 
BRANCH  30  36
ATOM     36  N7  AM9 d   1      31.578  38.364  84.228  0.00  0.00    -0.378 N 
ATOM     37  C27 AM9 d   1      32.642  38.740  83.331  0.00  0.00     0.018 C 
ATOM     38  C28 AM9 d   1      33.995  38.460  83.971  0.00  0.00     0.098 C 
ATOM     39  H20 AM9 d   1      32.563  39.813  83.104  0.00  0.00     0.066 H 
ATOM     40  H21 AM9 d   1      32.554  38.161  82.400  0.00  0.00     0.066 H 
ATOM     41  N8  AM9 d   1      33.945  39.015  85.334  0.00  0.00    -0.072 N 
ATOM     42  H22 AM9 d   1      34.795  38.946  83.393  0.00  0.00     0.078 H 
ATOM     43  H23 AM9 d   1      34.178  37.376  84.010  0.00  0.00     0.078 H 
ATOM     44  C29 AM9 d   1      33.020  38.275  86.206  0.00  0.00     0.098 C 
ATOM     45  H24 AM9 d   1      33.764  40.007  85.335  0.00  0.00     0.279 HD
ATOM     46  C30 AM9 d   1      31.662  38.748  85.695  0.00  0.00     0.018 C 
ATOM     47  H25 AM9 d   1      33.165  38.543  87.263  0.00  0.00     0.078 H 
ATOM     48  H26 AM9 d   1      33.137  37.188  86.084  0.00  0.00     0.078 H 
ATOM     49  H27 AM9 d   1      30.855  38.258  86.260  0.00  0.00     0.066 H 
ATOM     50  H28 AM9 d   1      31.577  39.839  85.805  0.00  0.00     0.066 H 
BRANCH  41  51
ATOM     51  C31 AM9 d   1      35.238  38.638  85.884  0.00  0.00     0.066 C 
ATOM     52  H29 AM9 d   1      36.038  39.132  85.313  0.00  0.00     0.068 H 
ATOM     53  H30 AM9 d   1      35.361  37.547  85.818  0.00  0.00     0.068 H 
ATOM     54  H31 AM9 d   1      35.294  38.950  86.937  0.00  0.00     0.068 H 
ENDBRANCH  41  51
ENDBRANCH  30  36
ENDBRANCH  24  26
ENDBRANCH   1  24
BRANCH   9  55
ATOM     55  C19 AM9 d   1      20.676  37.486  86.446  0.00  0.00     0.072 A 
ATOM     56  C20 AM9 d   1      20.154  36.434  87.317  0.00  0.00    -0.034 A 
ATOM     57  C21 AM9 d   1      18.855  36.605  87.953  0.00  0.00    -0.075 A 
ATOM     58  C22 AM9 d   1      18.055  37.775  87.767  0.00  0.00    -0.082 A 
ATOM     59  H11 AM9 d   1      18.480  35.814  88.593  0.00  0.00     0.084 H 
ATOM     60  C23 AM9 d   1      18.608  38.762  86.916  0.00  0.00    -0.075 A 
ATOM     61  H12 AM9 d   1      17.090  37.898  88.245  0.00  0.00     0.083 H 
ATOM     62  C24 AM9 d   1      19.884  38.671  86.241  0.00  0.00    -0.034 A 
ATOM     63  H13 AM9 d   1      18.026  39.662  86.757  0.00  0.00     0.084 H 
BRANCH  56  64
ATOM     64  C26 AM9 d   1      20.981  35.179  87.517  0.00  0.00    -0.049 C 
ATOM     65  H17 AM9 d   1      21.919  35.263  86.948  0.00  0.00     0.033 H 
ATOM     66  H18 AM9 d   1      20.414  34.306  87.162  0.00  0.00     0.033 H 
ATOM     67  H19 AM9 d   1      21.210  35.057  88.586  0.00  0.00     0.033 H 
ENDBRANCH  56  64
BRANCH  62  68
ATOM     68  C25 AM9 d   1      20.318  39.788  85.316  0.00  0.00    -0.049 C 
ATOM     69  H14 AM9 d   1      21.306  39.551  84.894  0.00  0.00     0.033 H 
ATOM     70  H15 AM9 d   1      20.377  40.730  85.881  0.00  0.00     0.033 H 
ATOM     71  H16 AM9 d   1      19.587  39.894  84.501  0.00  0.00     0.033 H 
ENDBRANCH  62  68
ENDBRANCH   9  55
TORSDOF 7
