REMARK  10 active torsions:
REMARK  status: ('A' for Active; 'I' for Inactive)
REMARK    1  A    between atoms: C10_3  and  C11_4 
REMARK       I    between atoms: C11_4  and  N3_5 
REMARK    2  A    between atoms: N3_5  and  C14_6 
REMARK    3  A    between atoms: C17_10  and  C20_12 
REMARK    4  A    between atoms: C8_27  and  C13_17 
REMARK    5  A    between atoms: C21_18  and  C22_19 
REMARK    6  A    between atoms: C24_22  and  N6_26 
REMARK    7  A    between atoms: N7_29  and  C26_25 
REMARK       I    between atoms: N6_26  and  C8_27 
REMARK    8  A    between atoms: C5_34  and  N7_29 
REMARK    9  A    between atoms: N5_40  and  C28_31 
REMARK   10  A    between atoms: N2_37  and  C2_42 
ROOT
ATOM      1  N1  AM5 d   1      22.989  -3.291  38.636  0.00  0.00    -0.073 NA
ATOM      2  C23 AM5 d   1      21.672  -3.187  38.983  0.00  0.00     0.048 A 
ATOM      3  C24 AM5 d   1      21.252  -2.467  40.159  0.00  0.00     0.071 A 
ATOM      4  C25 AM5 d   1      22.300  -1.868  40.940  0.00  0.00     0.048 A 
ATOM      5  N4  AM5 d   1      23.571  -1.997  40.564  0.00  0.00    -0.073 NA
ATOM      6  C26 AM5 d   1      23.929  -2.698  39.422  0.00  0.00     0.726 A 
ATOM      7  H12 AM5 d   1      20.923  -3.659  38.357  0.00  0.00     0.119 H 
ATOM      8  H13 AM5 d   1      22.055  -1.310  41.837  0.00  0.00     0.119 H 
ENDROOT
BRANCH   3   9
ATOM      9  N6  AM5 d   1      19.918  -2.417  40.480  0.00  0.00    -0.320 N 
ATOM     10  C8  AM5 d   1      19.411  -1.714  41.487  0.00  0.00     0.256 C 
ATOM     11  O2  AM5 d   1      20.061  -1.206  42.395  0.00  0.00    -0.267 OA
ATOM     12  H14 AM5 d   1      19.284  -2.947  39.917  0.00  0.00     0.169 HD
BRANCH  10  13
ATOM     13  C13 AM5 d   1      18.036  -1.542  41.516  0.00  0.00     0.039 A 
ATOM     14  C12 AM5 d   1      17.503  -0.596  40.645  0.00  0.00    -0.052 A 
ATOM     15  C10 AM5 d   1      16.110  -0.391  40.761  0.00  0.00     0.033 A 
ATOM     16  H8  AM5 d   1      18.113  -0.056  39.930  0.00  0.00     0.086 H 
ATOM     17  C9  AM5 d   1      15.273  -1.108  41.738  0.00  0.00    -0.067 A 
ATOM     18  C7  AM5 d   1      15.844  -2.078  42.621  0.00  0.00    -0.075 A 
ATOM     19  H2  AM5 d   1      14.211  -0.898  41.789  0.00  0.00     0.085 H 
ATOM     20  C21 AM5 d   1      17.243  -2.275  42.477  0.00  0.00    -0.046 A 
ATOM     21  H1  AM5 d   1      15.252  -2.623  43.347  0.00  0.00     0.084 H 
BRANCH  15  22
ATOM     22  C11 AM5 d   1      15.614   0.596  39.763  0.00  0.00     0.256 C 
ATOM     23  N3  AM5 d   1      14.351   1.002  40.075  0.00  0.00    -0.323 N 
ATOM     24  H3  AM5 d   1      14.004   0.763  40.982  0.00  0.00     0.169 HD
ATOM     25  O1  AM5 d   1      16.319   1.025  38.836  0.00  0.00    -0.267 OA
BRANCH  23  26
ATOM     26  C14 AM5 d   1      13.520   1.708  39.252  0.00  0.00     0.035 A 
ATOM     27  C15 AM5 d   1      12.329   2.283  39.838  0.00  0.00    -0.057 A 
ATOM     28  C19 AM5 d   1      11.361   3.071  39.083  0.00  0.00    -0.080 A 
ATOM     29  H4  AM5 d   1      12.146   2.120  40.894  0.00  0.00     0.086 H 
ATOM     30  C18 AM5 d   1      11.598   3.283  37.690  0.00  0.00    -0.068 A 
ATOM     31  H5  AM5 d   1      10.484   3.485  39.567  0.00  0.00     0.083 H 
ATOM     32  C17 AM5 d   1      12.788   2.706  37.080  0.00  0.00     0.050 A 
ATOM     33  H6  AM5 d   1      10.902   3.865  37.096  0.00  0.00     0.084 H 
ATOM     34  C16 AM5 d   1      13.760   1.916  37.855  0.00  0.00    -0.043 A 
ATOM     35  H7  AM5 d   1      14.640   1.500  37.378  0.00  0.00     0.088 H 
BRANCH  32  36
ATOM     36  C20 AM5 d   1      13.072   2.856  35.606  0.00  0.00     0.417 C 
ATOM     37  F1  AM5 d   1      13.527   1.657  35.185  0.00  0.00    -0.166 F 
ATOM     38  F3  AM5 d   1      14.005   3.770  35.528  0.00  0.00    -0.166 F 
ATOM     39  F2  AM5 d   1      12.070   3.246  34.832  0.00  0.00    -0.166 F 
ENDBRANCH  32  36
ENDBRANCH  23  26
ENDBRANCH  15  22
BRANCH  20  40
ATOM     40  C22 AM5 d   1      17.859  -3.286  43.343  0.00  0.00    -0.050 C 
ATOM     41  H9  AM5 d   1      17.091  -3.725  43.997  0.00  0.00     0.033 H 
ATOM     42  H10 AM5 d   1      18.640  -2.815  43.958  0.00  0.00     0.033 H 
ATOM     43  H11 AM5 d   1      18.308  -4.076  42.723  0.00  0.00     0.033 H 
ENDBRANCH  20  40
ENDBRANCH  10  13
ENDBRANCH   3   9
BRANCH   6  44
ATOM     44  N7  AM5 d   1      25.269  -2.802  39.033  0.00  0.00    -0.188 N 
ATOM     45  H15 AM5 d   1      25.470  -3.489  38.292  0.00  0.00     0.184 HD
BRANCH  44  46
ATOM     46  C5  AM5 d   1      26.347  -2.107  39.512  0.00  0.00     0.049 A 
ATOM     47  C30 AM5 d   1      27.645  -2.746  39.485  0.00  0.00    -0.054 A 
ATOM     48  C29 AM5 d   1      28.752  -2.017  39.988  0.00  0.00    -0.055 A 
ATOM     49  H18 AM5 d   1      27.767  -3.749  39.093  0.00  0.00     0.087 H 
ATOM     50  C28 AM5 d   1      28.501  -0.677  40.493  0.00  0.00     0.030 A 
ATOM     51  H17 AM5 d   1      29.749  -2.443  39.996  0.00  0.00     0.087 H 
ATOM     52  C27 AM5 d   1      27.220  -0.021  40.530  0.00  0.00    -0.055 A 
ATOM     53  C31 AM5 d   1      26.146  -0.760  40.029  0.00  0.00    -0.054 A 
ATOM     54  H16 AM5 d   1      27.097   0.982  40.922  0.00  0.00     0.087 H 
ATOM     55  H19 AM5 d   1      25.152  -0.327  40.025  0.00  0.00     0.087 H 
BRANCH  50  56
ATOM     56  N5  AM5 d   1      29.588  -0.057  40.924  0.00  0.00    -0.378 N 
ATOM     57  C4  AM5 d   1      30.891  -0.219  40.241  0.00  0.00     0.018 C 
ATOM     58  C3  AM5 d   1      31.946  -0.524  41.281  0.00  0.00     0.098 C 
ATOM     59  H25 AM5 d   1      30.831  -1.048  39.520  0.00  0.00     0.066 H 
ATOM     60  H26 AM5 d   1      31.150   0.710  39.712  0.00  0.00     0.066 H 
ATOM     61  N2  AM5 d   1      31.921   0.493  42.331  0.00  0.00    -0.072 N 
ATOM     62  H23 AM5 d   1      31.746  -1.511  41.724  0.00  0.00     0.078 H 
ATOM     63  H24 AM5 d   1      32.937  -0.531  40.804  0.00  0.00     0.078 H 
ATOM     64  C1  AM5 d   1      30.647   0.691  43.041  0.00  0.00     0.098 C 
ATOM     65  H22 AM5 d   1      32.237   1.379  41.968  0.00  0.00     0.279 HD
ATOM     66  C6  AM5 d   1      29.489   0.809  42.085  0.00  0.00     0.018 C 
ATOM     67  H20 AM5 d   1      30.711   1.612  43.639  0.00  0.00     0.078 H 
ATOM     68  H21 AM5 d   1      30.473  -0.167  43.707  0.00  0.00     0.078 H 
ATOM     69  H27 AM5 d   1      29.434   1.851  41.735  0.00  0.00     0.066 H 
ATOM     70  H28 AM5 d   1      28.566   0.555  42.627  0.00  0.00     0.066 H 
BRANCH  61  71
ATOM     71  C2  AM5 d   1      32.863  -0.086  43.283  0.00  0.00     0.066 C 
ATOM     72  H29 AM5 d   1      32.958   0.578  44.155  0.00  0.00     0.068 H 
ATOM     73  H30 AM5 d   1      33.845  -0.203  42.802  0.00  0.00     0.068 H 
ATOM     74  H31 AM5 d   1      32.496  -1.070  43.610  0.00  0.00     0.068 H 
ENDBRANCH  61  71
ENDBRANCH  50  56
ENDBRANCH  44  46
ENDBRANCH   6  44
TORSDOF 10
