REMARK  11 active torsions:
REMARK  status: ('A' for Active; 'I' for Inactive)
REMARK    1  A    between atoms: C11_3  and  N3_4 
REMARK       I    between atoms: N3_4  and  C7_5 
REMARK    2  A    between atoms: C7_5  and  C14_6 
REMARK    3  A    between atoms: C17_10  and  C20_12 
REMARK    4  A    between atoms: C16_11  and  C27_31 
REMARK    5  A    between atoms: C8_27  and  C13_17 
REMARK    6  A    between atoms: C21_18  and  C22_19 
REMARK    7  A    between atoms: C24_22  and  N6_26 
REMARK    8  A    between atoms: N7_29  and  C26_25 
REMARK       I    between atoms: N6_26  and  C8_27 
REMARK    9  A    between atoms: C5_36  and  N7_29 
REMARK   10  A    between atoms: N5_42  and  C29_33 
REMARK   11  A    between atoms: N2_39  and  C2_44 
ROOT
ATOM      1  N1  AM6 d   1      23.134  -3.394  38.569  0.00  0.00    -0.073 NA
ATOM      2  C23 AM6 d   1      21.846  -3.276  38.886  0.00  0.00     0.048 A 
ATOM      3  C24 AM6 d   1      21.449  -2.543  40.072  0.00  0.00     0.071 A 
ATOM      4  C25 AM6 d   1      22.432  -1.944  40.917  0.00  0.00     0.048 A 
ATOM      5  N4  AM6 d   1      23.634  -2.108  40.539  0.00  0.00    -0.073 NA
ATOM      6  C26 AM6 d   1      23.977  -2.807  39.400  0.00  0.00     0.726 A 
ATOM      7  H11 AM6 d   1      21.091  -3.730  38.254  0.00  0.00     0.119 H 
ATOM      8  H12 AM6 d   1      22.172  -1.391  41.813  0.00  0.00     0.119 H 
ENDROOT
BRANCH   3   9
ATOM      9  N6  AM6 d   1      20.157  -2.415  40.394  0.00  0.00    -0.320 N 
ATOM     10  C8  AM6 d   1      19.647  -1.476  41.277  0.00  0.00     0.256 C 
ATOM     11  O2  AM6 d   1      20.257  -0.564  41.830  0.00  0.00    -0.267 OA
ATOM     12  H13 AM6 d   1      19.510  -3.045  39.965  0.00  0.00     0.169 HD
BRANCH  10  13
ATOM     13  C13 AM6 d   1      18.255  -1.589  41.562  0.00  0.00     0.040 A 
ATOM     14  C12 AM6 d   1      17.392  -0.674  40.905  0.00  0.00    -0.041 A 
ATOM     15  C11 AM6 d   1      16.008  -0.793  41.234  0.00  0.00     0.036 A 
ATOM     16  H7  AM6 d   1      17.759   0.065  40.202  0.00  0.00     0.088 H 
ATOM     17  C10 AM6 d   1      15.515  -1.763  42.184  0.00  0.00    -0.057 A 
ATOM     18  C9  AM6 d   1      16.411  -2.668  42.829  0.00  0.00    -0.074 A 
ATOM     19  H2  AM6 d   1      14.455  -1.804  42.409  0.00  0.00     0.086 H 
ATOM     20  C21 AM6 d   1      17.797  -2.565  42.491  0.00  0.00    -0.046 A 
ATOM     21  H1  AM6 d   1      16.056  -3.401  43.544  0.00  0.00     0.084 H 
BRANCH  15  22
ATOM     22  N3  AM6 d   1      15.081  -0.014  40.586  0.00  0.00    -0.323 N 
ATOM     23  C7  AM6 d   1      15.236   0.786  39.439  0.00  0.00     0.256 C 
ATOM     24  O1  AM6 d   1      16.274   0.961  38.793  0.00  0.00    -0.267 OA
ATOM     25  H3  AM6 d   1      14.165  -0.016  40.987  0.00  0.00     0.169 HD
BRANCH  23  26
ATOM     26  C14 AM6 d   1      14.042   1.469  39.011  0.00  0.00     0.039 A 
ATOM     27  C15 AM6 d   1      13.219   2.087  40.004  0.00  0.00    -0.067 A 
ATOM     28  C19 AM6 d   1      12.059   2.796  39.625  0.00  0.00    -0.081 A 
ATOM     29  H4  AM6 d   1      13.487   2.011  41.051  0.00  0.00     0.085 H 
ATOM     30  C18 AM6 d   1      11.730   2.883  38.246  0.00  0.00    -0.068 A 
ATOM     31  H5  AM6 d   1      11.430   3.266  40.373  0.00  0.00     0.083 H 
ATOM     32  C17 AM6 d   1      12.528   2.275  37.197  0.00  0.00     0.054 A 
ATOM     33  H6  AM6 d   1      10.838   3.431  37.963  0.00  0.00     0.084 H 
ATOM     34  C16 AM6 d   1      13.711   1.548  37.594  0.00  0.00    -0.031 A 
BRANCH  32  35
ATOM     35  C20 AM6 d   1      12.070   2.448  35.707  0.00  0.00     0.418 C 
ATOM     36  F1  AM6 d   1      11.130   3.303  35.499  0.00  0.00    -0.166 F 
ATOM     37  F3  AM6 d   1      11.522   1.312  35.252  0.00  0.00    -0.166 F 
ATOM     38  F2  AM6 d   1      13.095   2.944  34.977  0.00  0.00    -0.166 F 
ENDBRANCH  32  35
BRANCH  34  39
ATOM     39  C27 AM6 d   1      14.569   0.876  36.539  0.00  0.00    -0.049 C 
ATOM     40  H15 AM6 d   1      15.420   0.374  37.023  0.00  0.00     0.033 H 
ATOM     41  H16 AM6 d   1      14.943   1.633  35.834  0.00  0.00     0.033 H 
ATOM     42  H17 AM6 d   1      13.967   0.133  35.995  0.00  0.00     0.033 H 
ENDBRANCH  34  39
ENDBRANCH  23  26
ENDBRANCH  15  22
BRANCH  20  43
ATOM     43  C22 AM6 d   1      18.838  -3.497  43.068  0.00  0.00    -0.050 C 
ATOM     44  H8  AM6 d   1      18.356  -4.197  43.767  0.00  0.00     0.033 H 
ATOM     45  H9  AM6 d   1      19.599  -2.910  43.603  0.00  0.00     0.033 H 
ATOM     46  H10 AM6 d   1      19.316  -4.062  42.254  0.00  0.00     0.033 H 
ENDBRANCH  20  43
ENDBRANCH  10  13
ENDBRANCH   3   9
BRANCH   6  47
ATOM     47  N7  AM6 d   1      25.221  -2.884  39.107  0.00  0.00    -0.188 N 
ATOM     48  H14 AM6 d   1      25.544  -3.649  38.498  0.00  0.00     0.184 HD
BRANCH  47  49
ATOM     49  C5  AM6 d   1      26.109  -2.006  39.566  0.00  0.00     0.049 A 
ATOM     50  C31 AM6 d   1      27.297  -2.758  39.458  0.00  0.00    -0.054 A 
ATOM     51  C30 AM6 d   1      28.485  -1.962  39.890  0.00  0.00    -0.055 A 
ATOM     52  H20 AM6 d   1      27.342  -3.782  39.106  0.00  0.00     0.087 H 
ATOM     53  C29 AM6 d   1      28.345  -0.549  40.381  0.00  0.00     0.030 A 
ATOM     54  H19 AM6 d   1      29.470  -2.414  39.848  0.00  0.00     0.087 H 
ATOM     55  C28 AM6 d   1      27.016   0.109  40.456  0.00  0.00    -0.055 A 
ATOM     56  C32 AM6 d   1      25.881  -0.623  40.029  0.00  0.00    -0.054 A 
ATOM     57  H18 AM6 d   1      26.917   1.123  40.828  0.00  0.00     0.087 H 
ATOM     58  H21 AM6 d   1      24.889  -0.187  40.042  0.00  0.00     0.087 H 
BRANCH  53  59
ATOM     59  N5  AM6 d   1      29.384   0.242  40.771  0.00  0.00    -0.378 N 
ATOM     60  C4  AM6 d   1      30.828  -0.075  40.367  0.00  0.00     0.018 C 
ATOM     61  C3  AM6 d   1      31.592  -0.511  41.480  0.00  0.00     0.098 C 
ATOM     62  H27 AM6 d   1      30.821  -0.868  39.605  0.00  0.00     0.066 H 
ATOM     63  H28 AM6 d   1      31.290   0.831  39.949  0.00  0.00     0.066 H 
ATOM     64  N2  AM6 d   1      31.482   0.741  42.321  0.00  0.00    -0.072 N 
ATOM     65  H25 AM6 d   1      31.144  -1.385  41.975  0.00  0.00     0.078 H 
ATOM     66  H26 AM6 d   1      32.633  -0.738  41.206  0.00  0.00     0.078 H 
ATOM     67  C1  AM6 d   1      30.137   1.003  42.961  0.00  0.00     0.098 C 
ATOM     68  H24 AM6 d   1      31.860   1.549  41.852  0.00  0.00     0.279 HD
ATOM     69  C6  AM6 d   1      29.378   1.424  41.786  0.00  0.00     0.018 C 
ATOM     70  H22 AM6 d   1      30.193   1.799  43.718  0.00  0.00     0.078 H 
ATOM     71  H23 AM6 d   1      29.716   0.094  43.415  0.00  0.00     0.078 H 
ATOM     72  H29 AM6 d   1      29.849   2.309  41.333  0.00  0.00     0.066 H 
ATOM     73  H30 AM6 d   1      28.344   1.665  42.074  0.00  0.00     0.066 H 
BRANCH  64  74
ATOM     74  C2  AM6 d   1      32.154   0.325  43.522  0.00  0.00     0.066 C 
ATOM     75  H31 AM6 d   1      32.154   1.152  44.247  0.00  0.00     0.068 H 
ATOM     76  H32 AM6 d   1      33.191   0.046  43.284  0.00  0.00     0.068 H 
ATOM     77  H33 AM6 d   1      31.631  -0.541  43.954  0.00  0.00     0.068 H 
ENDBRANCH  64  74
ENDBRANCH  53  59
ENDBRANCH  47  49
ENDBRANCH   6  47
TORSDOF 11
