REMARK  10 active torsions:
REMARK  status: ('A' for Active; 'I' for Inactive)
REMARK    1  A    between atoms: N30_16  and  C35_1 
REMARK    2  A    between atoms: S31_14  and  C34_2 
REMARK    3  A    between atoms: C6_5  and  C8_9 
REMARK    4  A    between atoms: C12_19  and  C13_6 
REMARK    5  A    between atoms: C20_7  and  N30_16 
REMARK    6  A    between atoms: N30_16  and  S31_14 
REMARK    7  A    between atoms: N10_20  and  C12_19 
REMARK    8  A    between atoms: C5_21  and  N10_20 
REMARK    9  A    between atoms: N9_27  and  C3_26 
REMARK   10  A    between atoms: N9_27  and  C11_28 
ROOT
ATOM      1  N2  YAM d   1      14.279   3.801   6.773  0.00  0.00    -0.074 NA
ATOM      2  C7  YAM d   1      13.914   4.904   7.401  0.00  0.00     0.039 A 
ATOM      3  C6  YAM d   1      12.584   5.275   7.452  0.00  0.00     0.112 A 
ATOM      4  C5  YAM d   1      11.657   4.438   6.796  0.00  0.00     0.159 A 
ATOM      5  N4  YAM d   1      12.103   3.347   6.171  0.00  0.00    -0.044 NA
ATOM      6  C3  YAM d   1      13.389   3.032   6.178  0.00  0.00     0.728 A 
ATOM      7  H7  YAM d   1      14.664   5.523   7.880  0.00  0.00     0.117 H 
ENDROOT
BRANCH   4   8
ATOM      8  N10 YAM d   1      10.295   4.668   6.803  0.00  0.00    -0.369 N 
ATOM      9  H14 YAM d   1       9.915   5.545   7.186  0.00  0.00     0.161 HD
BRANCH   8  10
ATOM     10  C12 YAM d   1       9.397   3.644   6.257  0.00  0.00     0.021 C 
ATOM     11  H12 YAM d   1       9.718   3.387   5.237  0.00  0.00     0.071 H 
ATOM     12  H13 YAM d   1       9.441   2.747   6.892  0.00  0.00     0.071 H 
BRANCH  10  13
ATOM     13  C13 YAM d   1       7.982   4.155   6.218  0.00  0.00     0.006 A 
ATOM     14  C20 YAM d   1       7.096   3.932   7.273  0.00  0.00     0.146 A 
ATOM     15  N1  YAM d   1       5.843   4.386   7.203  0.00  0.00    -0.242 NA
ATOM     16  C19 YAM d   1       5.410   5.074   6.156  0.00  0.00     0.004 A 
ATOM     17  C18 YAM d   1       6.244   5.339   5.087  0.00  0.00    -0.065 A 
ATOM     18  H10 YAM d   1       4.388   5.434   6.138  0.00  0.00     0.114 H 
ATOM     19  C17 YAM d   1       7.545   4.856   5.108  0.00  0.00    -0.070 A 
ATOM     20  H8  YAM d   1       5.887   5.917   4.242  0.00  0.00     0.085 H 
ATOM     21  H11 YAM d   1       8.209   5.025   4.268  0.00  0.00     0.084 H 
BRANCH  14  22
ATOM     22  N30 YAM d   1       7.476   3.192   8.395  0.00  0.00    -0.264 N 
BRANCH  22  23
ATOM     23  C35 YAM d   1       7.206   1.749   8.434  0.00  0.00    -0.002 C 
ATOM     24  H1  YAM d   1       6.851   1.416   7.448  0.00  0.00     0.058 H 
ATOM     25  H2  YAM d   1       6.436   1.540   9.191  0.00  0.00     0.058 H 
ATOM     26  H3  YAM d   1       8.129   1.210   8.693  0.00  0.00     0.058 H 
ENDBRANCH  22  23
BRANCH  22  27
ATOM     27  S31 YAM d   1       8.025   3.948   9.760  0.00  0.00     0.230 S 
ATOM     28  O33 YAM d   1       8.767   5.054   9.268  0.00  0.00    -0.206 OA
ATOM     29  O32 YAM d   1       8.622   2.885  10.482  0.00  0.00    -0.206 OA
BRANCH  27  30
ATOM     30  C34 YAM d   1       6.477   4.494  10.538  0.00  0.00     0.033 C 
ATOM     31  H4  YAM d   1       6.043   5.318   9.952  0.00  0.00     0.051 H 
ATOM     32  H5  YAM d   1       6.683   4.841  11.561  0.00  0.00     0.051 H 
ATOM     33  H6  YAM d   1       5.767   3.654  10.572  0.00  0.00     0.051 H 
ENDBRANCH  27  30
ENDBRANCH  22  27
ENDBRANCH  14  22
ENDBRANCH  10  13
ENDBRANCH   8  10
ENDBRANCH   4   8
BRANCH   3  34
ATOM     34  C8  YAM d   1      12.236   6.540   8.210  0.00  0.00     0.422 C 
ATOM     35  F29 YAM d   1      11.312   6.282   9.218  0.00  0.00    -0.166 F 
ATOM     36  F28 YAM d   1      11.733   7.528   7.371  0.00  0.00    -0.166 F 
ATOM     37  F27 YAM d   1      13.397   7.062   8.778  0.00  0.00    -0.166 F 
ENDBRANCH   3  34
BRANCH   6  38
ATOM     38  N9  YAM d   1      13.888   1.931   5.510  0.00  0.00    -0.188 N 
ATOM     39  H15 YAM d   1      14.854   1.635   5.711  0.00  0.00     0.184 HD
BRANCH  38  40
ATOM     40  C11 YAM d   1      13.149   1.195   4.573  0.00  0.00     0.050 A 
ATOM     41  C16 YAM d   1      11.764   1.041   4.644  0.00  0.00    -0.054 A 
ATOM     42  C15 YAM d   1      11.089   0.332   3.664  0.00  0.00    -0.054 A 
ATOM     43  H9  YAM d   1      11.214   1.478   5.470  0.00  0.00     0.087 H 
ATOM     44  C21 YAM d   1      11.798  -0.235   2.601  0.00  0.00     0.041 A 
ATOM     45  H19 YAM d   1      10.013   0.217   3.721  0.00  0.00     0.087 H 
ATOM     46  C22 YAM d   1      13.181  -0.089   2.551  0.00  0.00    -0.021 A 
ATOM     47  N25 YAM d   1      11.359  -0.952   1.489  0.00  0.00    -0.326 N 
ATOM     48  C14 YAM d   1      13.849   0.627   3.514  0.00  0.00    -0.048 A 
ATOM     49  C23 YAM d   1      13.652  -0.814   1.311  0.00  0.00     0.035 A 
ATOM     50  H16 YAM d   1      14.924   0.750   3.449  0.00  0.00     0.087 H 
ATOM     51  C24 YAM d   1      12.374  -1.354   0.705  0.00  0.00     0.226 A 
ATOM     52  H17 YAM d   1      14.339  -1.633   1.572  0.00  0.00     0.054 H 
ATOM     53  H18 YAM d   1      14.153  -0.122   0.618  0.00  0.00     0.054 H 
ATOM     54  O26 YAM d   1      12.276  -2.002  -0.320  0.00  0.00    -0.273 OA
ATOM     55  H20 YAM d   1      10.397  -1.145   1.296  0.00  0.00     0.169 HD
ENDBRANCH  38  40
ENDBRANCH   6  38
TORSDOF 10
