REMARK WARNING: 32 MAX_TORS EXCEEDED!!!
REMARK  42 active torsions:
REMARK  status: ('A' for Active; 'I' for Inactive)
REMARK    1  A    between atoms: N_1  and  CA_2 
REMARK    2  A    between atoms: CA_2  and  C_3 
REMARK    3  A    between atoms: CA_2  and  CB_5 
REMARK       I    between atoms: C_3  and  N_8 
REMARK    4  A    between atoms: CB_5  and  CG1_6 
REMARK    5  A    between atoms: CB_5  and  CG2_7 
REMARK    6  A    between atoms: N_8  and  CA_9 
REMARK    7  A    between atoms: CA_9  and  C_10 
REMARK    8  A    between atoms: CA_9  and  CB_12 
REMARK       I    between atoms: C_10  and  N_16 
REMARK    9  A    between atoms: CB_12  and  CG_13 
REMARK   10  A    between atoms: CG_13  and  SD_14 
REMARK   11  A    between atoms: SD_14  and  CE_15 
REMARK   12  A    between atoms: N_16  and  CA_17 
REMARK   13  A    between atoms: CA_17  and  C_18 
REMARK   14  A    between atoms: CA_17  and  CB_20 
REMARK       I    between atoms: C_18  and  N_21 
REMARK   15  A    between atoms: CA_22  and  C_23 
REMARK       I    between atoms: C_23  and  N_28 
REMARK   16  A    between atoms: N_28  and  CA_29 
REMARK   17  A    between atoms: CA_29  and  C_30 
REMARK   18  A    between atoms: CA_29  and  CB_32 
REMARK       I    between atoms: C_30  and  N_39 
REMARK   19  A    between atoms: CB_32  and  CG_33 
REMARK   20  A    between atoms: CG_33  and  CD_34 
REMARK   21  A    between atoms: CD_34  and  NE_35 
REMARK       I    between atoms: NE_35  and  CZ_36 
REMARK       I    between atoms: CZ_36  and  NH1_37 
REMARK   22  A    between atoms: N_39  and  CA_40 
REMARK   23  A    between atoms: CA_40  and  C_41 
REMARK   24  A    between atoms: CA_40  and  CB_43 
REMARK       I    between atoms: C_41  and  N_46 
REMARK   25  A    between atoms: CB_43  and  OG1_44 
REMARK   26  A    between atoms: CB_43  and  CG2_45 
REMARK   27  A    between atoms: N_46  and  CA_47 
REMARK   28  A    between atoms: CA_47  and  C_48 
REMARK   29  A    between atoms: CA_47  and  CB_50 
REMARK       I    between atoms: C_48  and  N_54 
REMARK   30  A    between atoms: CB_50  and  CG_51 
REMARK   31  A    between atoms: CG_51  and  CD1_52 
REMARK   32  A    between atoms: CG_51  and  CD2_53 
REMARK   33  A    between atoms: N_54  and  CA_55 
REMARK   34  A    between atoms: CA_55  and  C_56 
REMARK   35  A    between atoms: CA_55  and  CB_58 
REMARK       I    between atoms: C_56  and  N_65 
REMARK   36  A    between atoms: CB_58  and  CG_59 
REMARK   37  A    between atoms: N_65  and  CA_66 
REMARK   38  A    between atoms: CA_66  and  C_67 
REMARK   39  A    between atoms: CA_66  and  CB_69 
REMARK   40  A    between atoms: CB_69  and  CG_70 
REMARK   41  A    between atoms: CG_70  and  CD1_71 
REMARK   42  A    between atoms: CG_70  and  CD2_72 
ROOT
ATOM      1  CA  ARG d   1      11.541   0.784  -1.966  0.00  0.00     0.089 C 
ATOM      2  H34 ARG d   1      12.391   0.152  -2.262  0.00  0.00     0.087 H 
ENDROOT
BRANCH   1   3
ATOM      3  N   ARG d   1      10.472  -0.048  -1.450  0.00  0.00    -0.346 N 
ATOM      4  C   PRO d   1      10.403  -1.336  -1.729  0.00  0.00     0.241 C 
ATOM      5  O   PRO d   1      11.226  -1.906  -2.436  0.00  0.00    -0.271 OA
ATOM      6  H33 ARG d   1       9.770   0.364  -0.869  0.00  0.00     0.163 HD
BRANCH   4   7
ATOM      7  CA  PRO d   1       9.220  -2.093  -1.130  0.00  0.00     0.091 C 
ATOM      8  N   PRO d   1       8.367  -1.270  -0.257  0.00  0.00    -0.337 N 
ATOM      9  C   ALA d   1       8.667  -1.001   1.022  0.00  0.00     0.243 C 
ATOM     10  CD  PRO d   1       7.107  -0.920  -0.942  0.00  0.00    -0.001 C 
ATOM     11  O   ALA d   1       9.672  -1.426   1.545  0.00  0.00    -0.271 OA
ATOM     12  CG  PRO d   1       7.393  -1.327  -2.394  0.00  0.00    -0.048 C 
ATOM     13  H31 PRO d   1       6.899   0.157  -0.865  0.00  0.00     0.064 H 
ATOM     14  H32 PRO d   1       6.260  -1.488  -0.530  0.00  0.00     0.064 H 
ATOM     15  CB  PRO d   1       8.246  -2.557  -2.206  0.00  0.00    -0.036 C 
ATOM     16  H29 PRO d   1       6.464  -1.562  -2.935  0.00  0.00     0.035 H 
ATOM     17  H30 PRO d   1       7.940  -0.538  -2.931  0.00  0.00     0.035 H 
ATOM     18  H27 PRO d   1       7.646  -3.413  -1.863  0.00  0.00     0.036 H 
ATOM     19  H28 PRO d   1       8.772  -2.827  -3.134  0.00  0.00     0.036 H 
ATOM     20  H26 PRO d   1       9.611  -2.954  -0.569  0.00  0.00     0.087 H 
BRANCH   9  21
ATOM     21  CA  ALA d   1       7.701  -0.146   1.812  0.00  0.00     0.086 C 
ATOM     22  H22 ALA d   1       6.792   0.029   1.217  0.00  0.00     0.086 H 
BRANCH  21  23
ATOM     23  N   ALA d   1       7.363  -0.859   3.022  0.00  0.00    -0.346 N 
ATOM     24  C   MET d   1       6.847  -2.082   2.995  0.00  0.00     0.241 C 
ATOM     25  O   MET d   1       6.613  -2.700   1.949  0.00  0.00    -0.271 OA
ATOM     26  H21 ALA d   1       7.522  -0.419   3.906  0.00  0.00     0.163 HD
BRANCH  24  27
ATOM     27  CA  MET d   1       6.552  -2.706   4.352  0.00  0.00     0.090 C 
ATOM     28  H13 MET d   1       6.066  -1.962   5.000  0.00  0.00     0.087 H 
BRANCH  27  29
ATOM     29  N   MET d   1       5.665  -3.849   4.180  0.00  0.00    -0.346 N 
ATOM     30  C   VAL d   1       4.356  -3.700   4.197  0.00  0.00     0.249 C 
ATOM     31  O   VAL d   1       3.821  -2.619   4.375  0.00  0.00    -0.271 OA
ATOM     32  H12 MET d   1       6.056  -4.760   4.047  0.00  0.00     0.163 HD
BRANCH  30  33
ATOM     33  CA  VAL d   1       3.526  -4.954   4.008  0.00  0.00     0.178 C 
ATOM     34  H4  VAL d   1       3.956  -5.757   4.625  0.00  0.00     0.099 H 
BRANCH  33  35
ATOM     35  N   VAL d   1       2.134  -4.704   4.461  0.00  0.00    -0.066 N 
ATOM     36  H1  VAL d   1       2.142  -4.412   5.426  0.00  0.00     0.275 HD
ATOM     37  H2  VAL d   1       1.594  -5.551   4.371  0.00  0.00     0.275 HD
ATOM     38  H3  VAL d   1       1.721  -3.980   3.894  0.00  0.00     0.275 HD
ENDBRANCH  33  35
BRANCH  33  39
ATOM     39  CB  VAL d   1       3.555  -5.408   2.522  0.00  0.00    -0.025 C 
ATOM     40  H5  VAL d   1       4.580  -5.712   2.264  0.00  0.00     0.042 H 
BRANCH  39  41
ATOM     41  CG1 VAL d   1       2.627  -6.603   2.350  0.00  0.00    -0.071 C 
ATOM     42  H6  VAL d   1       2.642  -6.931   1.300  0.00  0.00     0.028 H 
ATOM     43  H7  VAL d   1       1.603  -6.315   2.630  0.00  0.00     0.028 H 
ATOM     44  H8  VAL d   1       2.966  -7.426   2.996  0.00  0.00     0.028 H 
ENDBRANCH  39  41
BRANCH  39  45
ATOM     45  CG2 VAL d   1       3.138  -4.272   1.592  0.00  0.00    -0.071 C 
ATOM     46  H9  VAL d   1       3.818  -3.418   1.729  0.00  0.00     0.028 H 
ATOM     47  H10 VAL d   1       2.109  -3.963   1.829  0.00  0.00     0.028 H 
ATOM     48  H11 VAL d   1       3.187  -4.616   0.548  0.00  0.00     0.028 H 
ENDBRANCH  39  45
ENDBRANCH  33  39
ENDBRANCH  30  33
ENDBRANCH  27  29
BRANCH  27  49
ATOM     49  CB  MET d   1       7.863  -3.159   4.993  0.00  0.00    -0.030 C 
ATOM     50  H14 MET d   1       7.634  -3.627   5.962  0.00  0.00     0.037 H 
ATOM     51  H15 MET d   1       8.496  -2.274   5.154  0.00  0.00     0.037 H 
BRANCH  49  52
ATOM     52  CG  MET d   1       8.625  -4.143   4.158  0.00  0.00    -0.021 C 
ATOM     53  H16 MET d   1       8.698  -3.762   3.129  0.00  0.00     0.049 H 
ATOM     54  H17 MET d   1       8.090  -5.104   4.156  0.00  0.00     0.049 H 
BRANCH  52  55
ATOM     55  SD  MET d   1      10.259  -4.390   4.802  0.00  0.00    -0.173 SA
BRANCH  55  56
ATOM     56  CE  MET d   1      11.116  -2.939   4.203  0.00  0.00    -0.035 C 
ATOM     57  H18 MET d   1      12.163  -2.967   4.538  0.00  0.00     0.041 H 
ATOM     58  H19 MET d   1      10.628  -2.036   4.598  0.00  0.00     0.041 H 
ATOM     59  H20 MET d   1      11.084  -2.922   3.104  0.00  0.00     0.041 H 
ENDBRANCH  55  56
ENDBRANCH  52  55
ENDBRANCH  49  52
ENDBRANCH  27  49
ENDBRANCH  24  27
ENDBRANCH  21  23
BRANCH  21  60
ATOM     60  CB  ALA d   1       8.339   1.199   2.167  0.00  0.00    -0.049 C 
ATOM     61  H23 ALA d   1       8.595   1.739   1.243  0.00  0.00     0.030 H 
ATOM     62  H24 ALA d   1       9.252   1.028   2.756  0.00  0.00     0.030 H 
ATOM     63  H25 ALA d   1       7.629   1.798   2.756  0.00  0.00     0.030 H 
ENDBRANCH  21  60
ENDBRANCH   9  21
ENDBRANCH   4   7
ENDBRANCH   1   3
BRANCH   1  64
ATOM     64  C   ARG d   1      11.989   1.741  -0.855  0.00  0.00     0.241 C 
ATOM     65  O   ARG d   1      11.180   2.183  -0.035  0.00  0.00    -0.271 OA
ATOM     66  N   THR d   1      13.284   2.032  -0.818  0.00  0.00    -0.344 N 
ATOM     67  H46 THR d   1      13.895   1.621  -1.494  0.00  0.00     0.163 HD
BRANCH  66  68
ATOM     68  CA  THR d   1      13.839   2.936   0.183  0.00  0.00     0.113 C 
ATOM     69  H47 THR d   1      13.018   3.460   0.695  0.00  0.00     0.091 H 
BRANCH  68  70
ATOM     70  C   THR d   1      14.710   3.951  -0.552  0.00  0.00     0.243 C 
ATOM     71  O   THR d   1      14.715   3.984  -1.770  0.00  0.00    -0.271 OA
ATOM     72  N   LEU d   1      15.445   4.769   0.194  0.00  0.00    -0.346 N 
ATOM     73  H53 LEU d   1      15.406   4.686   1.190  0.00  0.00     0.163 HD
BRANCH  72  74
ATOM     74  CA  LEU d   1      16.303   5.780  -0.398  0.00  0.00     0.089 C 
ATOM     75  H54 LEU d   1      16.052   5.845  -1.467  0.00  0.00     0.087 H 
BRANCH  74  76
ATOM     76  C   LEU d   1      17.786   5.495  -0.273  0.00  0.00     0.241 C 
ATOM     77  O   LEU d   1      18.241   4.931   0.717  0.00  0.00    -0.271 OA
ATOM     78  N   PHE d   1      18.531   5.884  -1.294  0.00  0.00    -0.346 N 
ATOM     79  H64 PHE d   1      18.085   6.241  -2.115  0.00  0.00     0.163 HD
BRANCH  78  80
ATOM     80  CA  PHE d   1      19.966   5.806  -1.254  0.00  0.00     0.093 C 
ATOM     81  H65 PHE d   1      20.332   5.015  -0.583  0.00  0.00     0.088 H 
BRANCH  80  82
ATOM     82  C   PHE d   1      20.245   7.224  -0.746  0.00  0.00     0.241 C 
ATOM     83  O   PHE d   1      20.010   8.191  -1.469  0.00  0.00    -0.271 OA
ATOM     84  N   LEU d   1      20.704   7.355   0.495  0.00  0.00    -0.345 N 
ATOM     85  H73 LEU d   1      20.849   6.539   1.054  0.00  0.00     0.163 HD
BRANCH  84  86
ATOM     86  CA  LEU d   1      20.999   8.668   1.055  0.00  0.00     0.096 C 
ATOM     87  H74 LEU d   1      20.155   9.336   0.827  0.00  0.00     0.089 H 
BRANCH  86  88
ATOM     88  C   LEU d   1      22.263   9.272   0.432  0.00  0.00     0.196 C 
ATOM     89  O   LEU d   1      22.546  10.461   0.690  0.00  0.00    -0.646 OA
ATOM     90  OXT LEU d   1      22.950   8.555  -0.325  0.00  0.00    -0.646 OA
ENDBRANCH  86  88
BRANCH  86  91
ATOM     91  CB  LEU d   1      21.134   8.566   2.574  0.00  0.00    -0.034 C 
ATOM     92  H75 LEU d   1      21.436   9.546   2.973  0.00  0.00     0.037 H 
ATOM     93  H76 LEU d   1      21.904   7.818   2.815  0.00  0.00     0.037 H 
BRANCH  91  94
ATOM     94  CG  LEU d   1      19.819   8.151   3.223  0.00  0.00    -0.059 C 
ATOM     95  H77 LEU d   1      19.423   7.275   2.688  0.00  0.00     0.038 H 
BRANCH  94  96
ATOM     96  CD1 LEU d   1      20.012   7.776   4.676  0.00  0.00    -0.073 C 
ATOM     97  H78 LEU d   1      19.045   7.483   5.111  0.00  0.00     0.028 H 
ATOM     98  H79 LEU d   1      20.415   8.639   5.227  0.00  0.00     0.028 H 
ATOM     99  H80 LEU d   1      20.716   6.934   4.747  0.00  0.00     0.028 H 
ENDBRANCH  94  96
BRANCH  94 100
ATOM    100  CD2 LEU d   1      18.834   9.284   3.101  0.00  0.00    -0.073 C 
ATOM    101  H81 LEU d   1      18.705   9.545   2.040  0.00  0.00     0.028 H 
ATOM    102  H82 LEU d   1      19.212  10.159   3.650  0.00  0.00     0.028 H 
ATOM    103  H83 LEU d   1      17.866   8.976   3.523  0.00  0.00     0.028 H 
ENDBRANCH  94 100
ENDBRANCH  91  94
ENDBRANCH  86  91
ENDBRANCH  84  86
ENDBRANCH  80  82
BRANCH  80 104
ATOM    104  CB  PHE d   1      20.582   5.668  -2.644  0.00  0.00    -0.014 C 
ATOM    105  H66 PHE d   1      21.561   6.170  -2.639  0.00  0.00     0.043 H 
ATOM    106  H67 PHE d   1      19.918   6.166  -3.366  0.00  0.00     0.043 H 
BRANCH 104 107
ATOM    107  CG  PHE d   1      20.784   4.247  -3.093  0.00  0.00    -0.056 A 
ATOM    108  CD1 PHE d   1      19.755   3.546  -3.719  0.00  0.00    -0.077 A 
ATOM    109  CE1 PHE d   1      19.942   2.255  -4.173  0.00  0.00    -0.082 A 
ATOM    110  H68 PHE d   1      18.791   4.022  -3.852  0.00  0.00     0.084 H 
ATOM    111  CZ  PHE d   1      21.170   1.631  -4.006  0.00  0.00    -0.083 A 
ATOM    112  H70 PHE d   1      19.129   1.729  -4.660  0.00  0.00     0.083 H 
ATOM    113  CE2 PHE d   1      22.203   2.310  -3.383  0.00  0.00    -0.082 A 
ATOM    114  H72 PHE d   1      21.320   0.618  -4.361  0.00  0.00     0.083 H 
ATOM    115  CD2 PHE d   1      22.006   3.619  -2.926  0.00  0.00    -0.077 A 
ATOM    116  H71 PHE d   1      23.165   1.828  -3.249  0.00  0.00     0.083 H 
ATOM    117  H69 PHE d   1      22.818   4.145  -2.437  0.00  0.00     0.084 H 
ENDBRANCH 104 107
ENDBRANCH  80 104
ENDBRANCH  78  80
ENDBRANCH  74  76
BRANCH  74 118
ATOM    118  CB  LEU d   1      16.059   7.147   0.262  0.00  0.00    -0.035 C 
ATOM    119  H55 LEU d   1      16.779   7.843  -0.193  0.00  0.00     0.037 H 
ATOM    120  H56 LEU d   1      16.294   7.021   1.329  0.00  0.00     0.037 H 
BRANCH 118 121
ATOM    121  CG  LEU d   1      14.693   7.840   0.201  0.00  0.00    -0.059 C 
ATOM    122  H57 LEU d   1      13.957   7.244   0.761  0.00  0.00     0.038 H 
BRANCH 121 123
ATOM    123  CD1 LEU d   1      14.804   9.239   0.834  0.00  0.00    -0.073 C 
ATOM    124  H58 LEU d   1      13.825   9.739   0.792  0.00  0.00     0.028 H 
ATOM    125  H59 LEU d   1      15.544   9.835   0.280  0.00  0.00     0.028 H 
ATOM    126  H60 LEU d   1      15.122   9.143   1.883  0.00  0.00     0.028 H 
ENDBRANCH 121 123
BRANCH 121 127
ATOM    127  CD2 LEU d   1      14.236   7.966  -1.258  0.00  0.00    -0.073 C 
ATOM    128  H61 LEU d   1      14.158   6.964  -1.706  0.00  0.00     0.028 H 
ATOM    129  H62 LEU d   1      14.968   8.563  -1.821  0.00  0.00     0.028 H 
ATOM    130  H63 LEU d   1      13.254   8.461  -1.293  0.00  0.00     0.028 H 
ENDBRANCH 121 127
ENDBRANCH 118 121
ENDBRANCH  74 118
ENDBRANCH  72  74
ENDBRANCH  68  70
BRANCH  68 131
ATOM    131  CB  THR d   1      14.689   2.148   1.263  0.00  0.00     0.060 C 
ATOM    132  H48 THR d   1      14.150   1.228   1.532  0.00  0.00     0.086 H 
BRANCH 131 133
ATOM    133  OG1 THR d   1      14.850   2.957   2.433  0.00  0.00    -0.393 OA
ATOM    134  H49 THR d   1      15.360   2.481   3.078  0.00  0.00     0.210 HD
ENDBRANCH 131 133
BRANCH 131 135
ATOM    135  CG2 THR d   1      16.067   1.771   0.727  0.00  0.00    -0.050 C 
ATOM    136  H50 THR d   1      16.626   1.227   1.503  0.00  0.00     0.031 H 
ATOM    137  H51 THR d   1      16.616   2.684   0.452  0.00  0.00     0.031 H 
ATOM    138  H52 THR d   1      15.953   1.130  -0.160  0.00  0.00     0.031 H 
ENDBRANCH 131 135
ENDBRANCH  68 131
ENDBRANCH  66  68
ENDBRANCH   1  64
BRANCH   1 139
ATOM    139  CB  ARG d   1      11.033   1.546  -3.195  0.00  0.00    -0.036 C 
ATOM    140  H35 ARG d   1      10.052   1.974  -2.942  0.00  0.00     0.036 H 
ATOM    141  H36 ARG d   1      10.916   0.821  -4.014  0.00  0.00     0.036 H 
BRANCH 139 142
ATOM    142  CG  ARG d   1      11.909   2.669  -3.697  0.00  0.00    -0.048 C 
ATOM    143  H37 ARG d   1      12.906   2.269  -3.933  0.00  0.00     0.035 H 
ATOM    144  H38 ARG d   1      11.997   3.434  -2.912  0.00  0.00     0.035 H 
BRANCH 142 145
ATOM    145  CD  ARG d   1      11.318   3.311  -4.956  0.00  0.00     0.009 C 
ATOM    146  H39 ARG d   1      11.660   4.355  -5.017  0.00  0.00     0.064 H 
ATOM    147  H40 ARG d   1      10.220   3.288  -4.886  0.00  0.00     0.064 H 
BRANCH 145 148
ATOM    148  NE  ARG d   1      11.728   2.609  -6.164  0.00  0.00    -0.227 N 
ATOM    149  CZ  ARG d   1      12.764   2.955  -6.927  0.00  0.00     0.665 C 
ATOM    150  NH1 ARG d   1      13.502   4.007  -6.631  0.00  0.00    -0.235 N 
ATOM    151  NH2 ARG d   1      13.081   2.226  -7.977  0.00  0.00    -0.235 N 
ATOM    152  H42 ARG d   1      14.300   4.262  -7.231  0.00  0.00     0.174 HD
ATOM    153  H43 ARG d   1      13.281   4.574  -5.800  0.00  0.00     0.174 HD
ATOM    154  H44 ARG d   1      12.514   1.401  -8.221  0.00  0.00     0.174 HD
ATOM    155  H45 ARG d   1      13.896   2.481  -8.554  0.00  0.00     0.174 HD
ATOM    156  H41 ARG d   1      11.178   1.786  -6.449  0.00  0.00     0.177 HD
ENDBRANCH 145 148
ENDBRANCH 142 145
ENDBRANCH 139 142
ENDBRANCH   1 139
TORSDOF 42
