REMARK  31 active torsions:
REMARK  status: ('A' for Active; 'I' for Inactive)
REMARK    1  A    between atoms: N_1  and  CA_2 
REMARK    2  A    between atoms: CA_2  and  C_3 
REMARK    3  A    between atoms: CA_2  and  CB_5 
REMARK       I    between atoms: C_3  and  N_9 
REMARK    4  A    between atoms: CB_5  and  CG_6 
REMARK    5  A    between atoms: CG_6  and  CD1_7 
REMARK    6  A    between atoms: CG_6  and  CD2_8 
REMARK    7  A    between atoms: N_9  and  CA_10 
REMARK    8  A    between atoms: CA_10  and  C_11 
REMARK    9  A    between atoms: CA_10  and  CB_13 
REMARK       I    between atoms: C_11  and  N_17 
REMARK   10  A    between atoms: CB_13  and  CG_14 
REMARK   11  A    between atoms: CG_14  and  CD1_15 
REMARK   12  A    between atoms: CG_14  and  CD2_16 
REMARK   13  A    between atoms: N_17  and  CA_18 
REMARK   14  A    between atoms: CA_18  and  C_19 
REMARK   15  A    between atoms: CA_18  and  CB_21 
REMARK       I    between atoms: C_19  and  N_23 
REMARK   16  A    between atoms: CB_21  and  SG_22 
REMARK   17  A    between atoms: N_23  and  CA_24 
REMARK   18  A    between atoms: CA_24  and  C_25 
REMARK   19  A    between atoms: CA_24  and  CB_27 
REMARK       I    between atoms: C_25  and  N_29 
REMARK   20  A    between atoms: CB_27  and  OG_28 
REMARK   21  A    between atoms: N_29  and  CA_30 
REMARK   22  A    between atoms: CA_30  and  CB_31 
REMARK   23  A    between atoms: CA_30  and  C_38 
REMARK   24  A    between atoms: CB_31  and  CG2_32 
REMARK   25  A    between atoms: CB_31  and  OG1_33 
REMARK   26  A    between atoms: OG1_33  and  P_34 
REMARK       I    between atoms: C_38  and  N_40 
REMARK   27  A    between atoms: CA_41  and  C_42 
REMARK       I    between atoms: C_42  and  N_47 
REMARK   28  A    between atoms: N_47  and  CA_48 
REMARK   29  A    between atoms: CA_48  and  C_49 
REMARK   30  A    between atoms: CA_48  and  CB_51 
REMARK   31  A    between atoms: CB_51  and  CG_52 
REMARK       I    between atoms: CG_52  and  ND2_54 
ROOT
ATOM      1  CA  SER d   1      -0.527 -19.139   9.220  0.00  0.00     0.109 C 
ATOM      2  H31 SER d   1      -0.935 -18.592   8.357  0.00  0.00     0.090 H 
ENDROOT
BRANCH   1   3
ATOM      3  N   SER d   1      -1.631 -19.714   9.968  0.00  0.00    -0.344 N 
ATOM      4  C   CYS d   1      -2.487 -20.546   9.370  0.00  0.00     0.242 C 
ATOM      5  O   CYS d   1      -2.508 -20.726   8.162  0.00  0.00    -0.271 OA
ATOM      6  H30 SER d   1      -1.750 -19.486  10.934  0.00  0.00     0.163 HD
BRANCH   4   7
ATOM      7  CA  CYS d   1      -3.445 -21.311  10.244  0.00  0.00     0.097 C 
ATOM      8  H26 CYS d   1      -3.722 -20.705  11.120  0.00  0.00     0.088 H 
BRANCH   7   9
ATOM      9  N   CYS d   1      -4.628 -21.632   9.454  0.00  0.00    -0.345 N 
ATOM     10  C   LEU d   1      -5.842 -21.517   9.981  0.00  0.00     0.241 C 
ATOM     11  O   LEU d   1      -6.052 -20.970  11.078  0.00  0.00    -0.271 OA
ATOM     12  H25 CYS d   1      -4.525 -21.941   8.509  0.00  0.00     0.163 HD
BRANCH  10  13
ATOM     13  CA  LEU d   1      -7.043 -22.072   9.195  0.00  0.00     0.089 C 
ATOM     14  H15 LEU d   1      -6.714 -22.836   8.476  0.00  0.00     0.087 H 
BRANCH  13  15
ATOM     15  N   LEU d   1      -8.010 -22.656  10.150  0.00  0.00    -0.346 N 
ATOM     16  C   LEU d   1      -8.342 -23.924  10.122  0.00  0.00     0.249 C 
ATOM     17  O   LEU d   1      -8.041 -24.630   9.195  0.00  0.00    -0.271 OA
ATOM     18  H14 LEU d   1      -8.425 -22.063  10.841  0.00  0.00     0.163 HD
BRANCH  16  19
ATOM     19  CA  LEU d   1      -9.161 -24.472  11.292  0.00  0.00     0.176 C 
ATOM     20  H4  LEU d   1     -10.056 -23.841  11.392  0.00  0.00     0.099 H 
BRANCH  19  21
ATOM     21  N   LEU d   1      -9.620 -25.872  11.064  0.00  0.00    -0.066 N 
ATOM     22  H1  LEU d   1     -10.153 -26.185  11.861  0.00  0.00     0.275 HD
ATOM     23  H2  LEU d   1      -8.820 -26.472  10.939  0.00  0.00     0.275 HD
ATOM     24  H3  LEU d   1     -10.198 -25.906  10.239  0.00  0.00     0.275 HD
ENDBRANCH  19  21
BRANCH  19  25
ATOM     25  CB  LEU d   1      -8.370 -24.382  12.604  0.00  0.00    -0.028 C 
ATOM     26  H5  LEU d   1      -9.121 -24.316  13.405  0.00  0.00     0.037 H 
ATOM     27  H6  LEU d   1      -7.805 -23.439  12.552  0.00  0.00     0.037 H 
BRANCH  25  28
ATOM     28  CG  LEU d   1      -7.372 -25.443  13.053  0.00  0.00    -0.059 C 
ATOM     29  H7  LEU d   1      -7.775 -26.450  12.871  0.00  0.00     0.038 H 
BRANCH  28  30
ATOM     30  CD1 LEU d   1      -6.048 -25.301  12.359  0.00  0.00    -0.073 C 
ATOM     31  H8  LEU d   1      -5.362 -26.085  12.713  0.00  0.00     0.028 H 
ATOM     32  H9  LEU d   1      -5.621 -24.312  12.582  0.00  0.00     0.028 H 
ATOM     33  H10 LEU d   1      -6.191 -25.402  11.273  0.00  0.00     0.028 H 
ENDBRANCH  28  30
BRANCH  28  34
ATOM     34  CD2 LEU d   1      -7.193 -25.195  14.512  0.00  0.00    -0.073 C 
ATOM     35  H11 LEU d   1      -8.162 -25.298  15.023  0.00  0.00     0.028 H 
ATOM     36  H12 LEU d   1      -6.804 -24.178  14.666  0.00  0.00     0.028 H 
ATOM     37  H13 LEU d   1      -6.481 -25.926  14.924  0.00  0.00     0.028 H 
ENDBRANCH  28  34
ENDBRANCH  25  28
ENDBRANCH  19  25
ENDBRANCH  16  19
ENDBRANCH  13  15
BRANCH  13  38
ATOM     38  CB  LEU d   1      -7.685 -20.908   8.471  0.00  0.00    -0.035 C 
ATOM     39  H16 LEU d   1      -6.959 -20.082   8.477  0.00  0.00     0.037 H 
ATOM     40  H17 LEU d   1      -8.575 -20.618   9.049  0.00  0.00     0.037 H 
BRANCH  38  41
ATOM     41  CG  LEU d   1      -8.127 -21.101   7.040  0.00  0.00    -0.059 C 
ATOM     42  H18 LEU d   1      -7.261 -21.376   6.420  0.00  0.00     0.038 H 
BRANCH  41  43
ATOM     43  CD1 LEU d   1      -9.173 -22.215   6.926  0.00  0.00    -0.073 C 
ATOM     44  H19 LEU d   1      -9.473 -22.330   5.874  0.00  0.00     0.028 H 
ATOM     45  H20 LEU d   1     -10.053 -21.955   7.532  0.00  0.00     0.028 H 
ATOM     46  H21 LEU d   1      -8.743 -23.160   7.290  0.00  0.00     0.028 H 
ENDBRANCH  41  43
BRANCH  41  47
ATOM     47  CD2 LEU d   1      -8.653 -19.781   6.596  0.00  0.00    -0.073 C 
ATOM     48  H22 LEU d   1      -7.866 -19.020   6.698  0.00  0.00     0.028 H 
ATOM     49  H23 LEU d   1      -9.516 -19.502   7.219  0.00  0.00     0.028 H 
ATOM     50  H24 LEU d   1      -8.966 -19.846   5.544  0.00  0.00     0.028 H 
ENDBRANCH  41  47
ENDBRANCH  38  41
ENDBRANCH  13  38
ENDBRANCH  10  13
ENDBRANCH   7   9
BRANCH   7  51
ATOM     51  CB  CYS d   1      -2.803 -22.623  10.696  0.00  0.00     0.001 C 
ATOM     52  H27 CYS d   1      -1.818 -22.424  11.143  0.00  0.00     0.052 H 
ATOM     53  H28 CYS d   1      -2.686 -23.299   9.836  0.00  0.00     0.052 H 
BRANCH  51  54
ATOM     54  SG  CYS d   1      -3.861 -23.346  11.883  0.00  0.00    -0.180 SA
ATOM     55  H29 CYS d   1      -3.463 -24.216  12.201  0.00  0.00     0.101 HD
ENDBRANCH  51  54
ENDBRANCH   7  51
ENDBRANCH   4   7
ENDBRANCH   1   3
BRANCH   1  56
ATOM     56  C   SER d   1       0.372 -20.286   8.687  0.00  0.00     0.243 C 
ATOM     57  O   SER d   1       0.085 -21.477   8.923  0.00  0.00    -0.271 OA
ATOM     58  N   TPO d   1       1.466 -19.939   8.019  0.00  0.00    -0.344 N 
ATOM     59  H35 TPO d   1       1.678 -18.965   7.933  0.00  0.00     0.163 HD
BRANCH  58  60
ATOM     60  CA  TPO d   1       2.385 -20.908   7.397  0.00  0.00     0.114 C 
ATOM     61  H36 TPO d   1       1.819 -21.450   6.625  0.00  0.00     0.091 H 
BRANCH  60  62
ATOM     62  CB  TPO d   1       3.499 -20.114   6.721  0.00  0.00     0.076 C 
ATOM     63  H37 TPO d   1       4.015 -19.511   7.483  0.00  0.00     0.087 H 
BRANCH  62  64
ATOM     64  CG2 TPO d   1       4.556 -21.017   6.015  0.00  0.00    -0.049 C 
ATOM     65  H38 TPO d   1       5.327 -20.385   5.551  0.00  0.00     0.031 H 
ATOM     66  H39 TPO d   1       4.062 -21.622   5.240  0.00  0.00     0.031 H 
ATOM     67  H40 TPO d   1       5.024 -21.681   6.756  0.00  0.00     0.031 H 
ENDBRANCH  62  64
BRANCH  62  68
ATOM     68  OG1 TPO d   1       2.880 -19.240   5.759  0.00  0.00    -0.275 OA
BRANCH  68  69
ATOM     69  P   TPO d   1       2.873 -17.656   5.838  0.00  0.00     0.422 P 
ATOM     70  O1P TPO d   1       2.065 -17.273   4.663  0.00  0.00    -0.617 OA
ATOM     71  O2P TPO d   1       4.287 -17.221   5.848  0.00  0.00    -0.617 OA
ATOM     72  O3P TPO d   1       2.164 -17.356   7.201  0.00  0.00    -0.617 OA
ENDBRANCH  68  69
ENDBRANCH  62  68
ENDBRANCH  60  62
BRANCH  60  73
ATOM     73  C   TPO d   1       2.985 -21.949   8.316  0.00  0.00     0.246 C 
ATOM     74  O   TPO d   1       3.684 -21.600   9.269  0.00  0.00    -0.271 OA
ATOM     75  N   PRO d   1       2.735 -23.254   8.025  0.00  0.00    -0.337 N 
ATOM     76  CA  PRO d   1       3.342 -24.356   8.823  0.00  0.00     0.091 C 
ATOM     77  CD  PRO d   1       1.808 -23.753   6.982  0.00  0.00    -0.001 C 
ATOM     78  CB  PRO d   1       2.512 -25.604   8.439  0.00  0.00    -0.036 C 
ATOM     79  H41 PRO d   1       3.208 -24.138   9.893  0.00  0.00     0.087 H 
ATOM     80  CG  PRO d   1       1.937 -25.293   7.063  0.00  0.00    -0.048 C 
ATOM     81  H42 PRO d   1       1.704 -25.769   9.167  0.00  0.00     0.036 H 
ATOM     82  H43 PRO d   1       3.154 -26.496   8.396  0.00  0.00     0.036 H 
ATOM     83  H44 PRO d   1       0.950 -25.764   6.948  0.00  0.00     0.035 H 
ATOM     84  H45 PRO d   1       2.613 -25.660   6.276  0.00  0.00     0.035 H 
ATOM     85  H46 PRO d   1       2.107 -23.389   5.988  0.00  0.00     0.064 H 
ATOM     86  H47 PRO d   1       0.776 -23.436   7.194  0.00  0.00     0.064 H 
BRANCH  76  87
ATOM     87  C   PRO d   1       4.838 -24.578   8.581  0.00  0.00     0.241 C 
ATOM     88  O   PRO d   1       5.374 -24.088   7.607  0.00  0.00    -0.271 OA
ATOM     89  N   ASN d   1       5.491 -25.281   9.501  0.00  0.00    -0.344 N 
ATOM     90  H48 ASN d   1       4.985 -25.570  10.314  0.00  0.00     0.163 HD
BRANCH  89  91
ATOM     91  CA  ASN d   1       6.915 -25.663   9.402  0.00  0.00     0.104 C 
ATOM     92  H49 ASN d   1       7.499 -24.737   9.511  0.00  0.00     0.090 H 
BRANCH  91  93
ATOM     93  C   ASN d   1       7.406 -26.346   8.100  0.00  0.00     0.197 C 
ATOM     94  O   ASN d   1       6.802 -27.319   7.624  0.00  0.00    -0.646 OA
ATOM     95  O1  ASN d   1       8.433 -25.907   7.517  0.00  0.00    -0.646 OA
ENDBRANCH  91  93
BRANCH  91  96
ATOM     96  CB  ASN d   1       7.232 -26.574  10.557  0.00  0.00     0.037 C 
ATOM     97  H50 ASN d   1       8.244 -26.983  10.419  0.00  0.00     0.051 H 
ATOM     98  H51 ASN d   1       6.502 -27.397  10.570  0.00  0.00     0.051 H 
BRANCH  96  99
ATOM     99  CG  ASN d   1       7.176 -25.858  11.871  0.00  0.00     0.217 C 
ATOM    100  OD1 ASN d   1       7.516 -24.636  11.983  0.00  0.00    -0.274 OA
ATOM    101  ND2 ASN d   1       6.727 -26.583  12.890  0.00  0.00    -0.370 N 
ATOM    102  H52 ASN d   1       6.660 -26.177  13.801  0.00  0.00     0.159 HD
ATOM    103  H53 ASN d   1       6.457 -27.535  12.746  0.00  0.00     0.159 HD
ENDBRANCH  96  99
ENDBRANCH  91  96
ENDBRANCH  89  91
ENDBRANCH  76  87
ENDBRANCH  60  73
ENDBRANCH  58  60
ENDBRANCH   1  56
BRANCH   1 104
ATOM    104  CB  SER d   1       0.258 -18.129  10.096  0.00  0.00     0.044 C 
ATOM    105  H32 SER d   1      -0.401 -17.282  10.339  0.00  0.00     0.077 H 
ATOM    106  H33 SER d   1       1.127 -17.766   9.528  0.00  0.00     0.077 H 
BRANCH 104 107
ATOM    107  OG  SER d   1       0.714 -18.717  11.305  0.00  0.00    -0.398 OA
ATOM    108  H34 SER d   1       1.289 -19.446  11.104  0.00  0.00     0.209 HD
ENDBRANCH 104 107
ENDBRANCH   1 104
TORSDOF 31
