REMARK  5 active torsions:
REMARK  status: ('A' for Active; 'I' for Inactive)
REMARK    1  A    between atoms: N1_3  and  O1_1 
REMARK       I    between atoms: N1_3  and  C1_4 
REMARK    2  A    between atoms: C1_4  and  C2_5 
REMARK    3  A    between atoms: C2_5  and  C3_6 
REMARK    4  A    between atoms: C3_6  and  C4_7 
REMARK    5  A    between atoms: C4_7  and  C5_8 
ROOT
ATOM      1  C3  SHH d   1     -35.526 -28.377 -19.279  0.00  0.00    -0.057 C 
ATOM      2  H5  SHH d   1     -36.476 -28.355 -19.833  0.00  0.00     0.033 H 
ATOM      3  H6  SHH d   1     -35.584 -29.133 -18.482  0.00  0.00     0.033 H 
ENDROOT
BRANCH   1   4
ATOM      4  C2  SHH d   1     -35.299 -27.009 -18.642  0.00  0.00     0.011 C 
ATOM      5  H3  SHH d   1     -34.347 -27.027 -18.091  0.00  0.00     0.047 H 
ATOM      6  H4  SHH d   1     -35.248 -26.251 -19.437  0.00  0.00     0.047 H 
BRANCH   4   7
ATOM      7  C1  SHH d   1     -36.415 -26.637 -17.680  0.00  0.00     0.240 C 
ATOM      8  O2  SHH d   1     -37.487 -27.205 -17.653  0.00  0.00    -0.271 OA
ATOM      9  N1  SHH d   1     -36.204 -25.640 -16.841  0.00  0.00    -0.237 N 
ATOM     10  H2  SHH d   1     -36.570 -24.733 -17.047  0.00  0.00     0.197 HD
BRANCH   9  11
ATOM     11  O1  SHH d   1     -35.487 -25.838 -15.688  0.00  0.00    -0.287 OA
ATOM     12  H1  SHH d   1     -35.922 -26.493 -15.155  0.00  0.00     0.244 HD
ENDBRANCH   9  11
ENDBRANCH   4   7
ENDBRANCH   1   4
BRANCH   1  13
ATOM     13  C4  SHH d   1     -34.405 -28.764 -20.242  0.00  0.00    -0.068 C 
ATOM     14  H7  SHH d   1     -33.432 -28.538 -19.781  0.00  0.00     0.032 H 
ATOM     15  H8  SHH d   1     -34.511 -28.192 -21.175  0.00  0.00     0.032 H 
BRANCH  13  16
ATOM     16  C5  SHH d   1     -34.485 -30.255 -20.550  0.00  0.00    -0.077 C 
ATOM     17  H9  SHH d   1     -33.677 -30.530 -21.243  0.00  0.00     0.027 H 
ATOM     18  H10 SHH d   1     -35.457 -30.482 -21.012  0.00  0.00     0.027 H 
ATOM     19  H11 SHH d   1     -34.379 -30.828 -19.617  0.00  0.00     0.027 H 
ENDBRANCH  13  16
ENDBRANCH   1  13
TORSDOF 5
