REMARK  11 active torsions:
REMARK  status: ('A' for Active; 'I' for Inactive)
REMARK    1  A    between atoms: N1_4  and  O1_1 
REMARK       I    between atoms: C13_18  and  N1_4 
REMARK    2  A    between atoms: C4_9  and  N2_5 
REMARK    3  A    between atoms: N2_5  and  C17_21 
REMARK    4  A    between atoms: N2_5  and  C16_22 
REMARK    5  A    between atoms: C7_12  and  C1_6 
REMARK    6  A    between atoms: C8_13  and  C7_12 
REMARK    7  A    between atoms: C9_14  and  C8_13 
REMARK    8  A    between atoms: C8_13  and  C14_19 
REMARK    9  A    between atoms: C11_16  and  C10_15 
REMARK   10  A    between atoms: C10_15  and  C15_20 
REMARK   11  A    between atoms: C12_17  and  C13_18 
ROOT
ATOM      1  C8  TSN d   1      -6.187  -7.761  11.383  0.00  0.00     0.022 C 
ATOM      2  H7  TSN d   1      -6.103  -7.270  12.364  0.00  0.00     0.058 H 
ENDROOT
BRANCH   1   3
ATOM      3  C7  TSN d   1      -5.411  -9.054  11.389  0.00  0.00     0.166 C 
ATOM      4  O3  TSN d   1      -5.667  -9.875  10.518  0.00  0.00    -0.292 OA
BRANCH   3   5
ATOM      5  C1  TSN d   1      -4.322  -9.345  12.398  0.00  0.00     0.011 A 
ATOM      6  C2  TSN d   1      -3.525 -10.488  12.225  0.00  0.00    -0.067 A 
ATOM      7  C3  TSN d   1      -2.502 -10.785  13.130  0.00  0.00    -0.057 A 
ATOM      8  H3  TSN d   1      -3.705 -11.146  11.382  0.00  0.00     0.085 H 
ATOM      9  C4  TSN d   1      -2.261  -9.957  14.235  0.00  0.00     0.029 A 
ATOM     10  H4  TSN d   1      -1.888 -11.665  12.976  0.00  0.00     0.086 H 
ATOM     11  C5  TSN d   1      -3.056  -8.813  14.422  0.00  0.00    -0.057 A 
ATOM     12  C6  TSN d   1      -4.078  -8.509  13.504  0.00  0.00    -0.067 A 
ATOM     13  H5  TSN d   1      -2.882  -8.165  15.273  0.00  0.00     0.086 H 
ATOM     14  H6  TSN d   1      -4.684  -7.622  13.650  0.00  0.00     0.085 H 
BRANCH   9  15
ATOM     15  N2  TSN d   1      -1.224 -10.284  15.136  0.00  0.00    -0.390 N 
BRANCH  15  16
ATOM     16  C17 TSN d   1       0.100  -9.675  15.013  0.00  0.00    -0.019 C 
ATOM     17  H17 TSN d   1       0.757 -10.062  15.806  0.00  0.00     0.056 H 
ATOM     18  H18 TSN d   1       0.012  -8.583  15.110  0.00  0.00     0.056 H 
ATOM     19  H19 TSN d   1       0.528  -9.922  14.030  0.00  0.00     0.056 H 
ENDBRANCH  15  16
BRANCH  15  20
ATOM     20  C16 TSN d   1      -1.455 -11.258  16.198  0.00  0.00    -0.019 C 
ATOM     21  H20 TSN d   1      -2.494 -11.614  16.149  0.00  0.00     0.056 H 
ATOM     22  H21 TSN d   1      -1.276 -10.785  17.175  0.00  0.00     0.056 H 
ATOM     23  H22 TSN d   1      -0.769 -12.109  16.071  0.00  0.00     0.056 H 
ENDBRANCH  15  20
ENDBRANCH   9  15
ENDBRANCH   3   5
ENDBRANCH   1   3
BRANCH   1  24
ATOM     24  C9  TSN d   1      -5.551  -6.870  10.321  0.00  0.00    -0.086 C 
ATOM     25  C10 TSN d   1      -5.763  -5.550  10.149  0.00  0.00    -0.065 C 
ATOM     26  H8  TSN d   1      -4.856  -7.348   9.633  0.00  0.00     0.078 H 
BRANCH  25  27
ATOM     27  C11 TSN d   1      -5.027  -4.878   9.049  0.00  0.00    -0.072 C 
ATOM     28  C12 TSN d   1      -5.067  -3.559   8.820  0.00  0.00    -0.015 C 
ATOM     29  H10 TSN d   1      -5.663  -2.910   9.459  0.00  0.00     0.092 H 
ATOM     30  H9  TSN d   1      -4.418  -5.494   8.389  0.00  0.00     0.084 H 
BRANCH  28  31
ATOM     31  C13 TSN d   1      -4.297  -2.991   7.695  0.00  0.00     0.264 C 
ATOM     32  O2  TSN d   1      -3.278  -3.544   7.315  0.00  0.00    -0.266 OA
ATOM     33  N1  TSN d   1      -4.721  -1.900   7.054  0.00  0.00    -0.234 N 
ATOM     34  H2  TSN d   1      -4.592  -0.991   7.449  0.00  0.00     0.197 HD
BRANCH  33  35
ATOM     35  O1  TSN d   1      -5.349  -2.061   5.818  0.00  0.00    -0.287 OA
ATOM     36  H1  TSN d   1      -5.597  -1.210   5.477  0.00  0.00     0.244 HD
ENDBRANCH  33  35
ENDBRANCH  28  31
ENDBRANCH  25  27
BRANCH  25  37
ATOM     37  C15 TSN d   1      -6.721  -4.788  11.033  0.00  0.00    -0.051 C 
ATOM     38  H14 TSN d   1      -7.155  -5.471  11.778  0.00  0.00     0.033 H 
ATOM     39  H15 TSN d   1      -7.525  -4.358  10.418  0.00  0.00     0.033 H 
ATOM     40  H16 TSN d   1      -6.181  -3.980  11.548  0.00  0.00     0.033 H 
ENDBRANCH  25  37
ENDBRANCH   1  24
BRANCH   1  41
ATOM     41  C14 TSN d   1      -7.667  -8.055  11.107  0.00  0.00    -0.063 C 
ATOM     42  H11 TSN d   1      -8.068  -8.699  11.904  0.00  0.00     0.028 H 
ATOM     43  H12 TSN d   1      -7.765  -8.567  10.138  0.00  0.00     0.028 H 
ATOM     44  H13 TSN d   1      -8.230  -7.110  11.081  0.00  0.00     0.028 H 
ENDBRANCH   1  41
TORSDOF 11
