REMARK  2 active torsions:
REMARK  status: ('A' for Active; 'I' for Inactive)
REMARK    1  A    between atoms: P1_1  and  O_5 
REMARK    2  A    between atoms: O_5  and  P2_6 
ROOT
ATOM      1  O   NON d   1      -0.027   6.026 -24.889  0.00  0.00    -0.166 OA
ENDROOT
BRANCH   1   2
ATOM      2  P1  NON d   1       0.751   7.439 -24.852  0.00  0.00     0.432 P 
ATOM      3  O1  NON d   1       0.606   8.071 -23.482  0.00  0.00    -0.616 OA
ATOM      4  O2  NON d   1       0.211   8.358 -25.924  0.00  0.00    -0.616 OA
ATOM      5  O3  NON d   1       2.213   7.182 -25.123  0.00  0.00    -0.616 OA
ENDBRANCH   1   2
BRANCH   1   6
ATOM      6  P2  NON d   1      -1.448   5.808 -24.159  0.00  0.00     0.432 P 
ATOM      7  O4  NON d   1      -2.272   4.886 -25.022  0.00  0.00    -0.616 OA
ATOM      8  O5  NON d   1      -1.252   5.180 -22.793  0.00  0.00    -0.616 OA
ATOM      9  O6  NON d   1      -2.177   7.125 -24.017  0.00  0.00    -0.616 OA
ENDBRANCH   1   6
TORSDOF 2
