REMARK  16 active torsions:
REMARK  status: ('A' for Active; 'I' for Inactive)
REMARK    1  A    between atoms: C7_7  and  C3_3 
REMARK    2  A    between atoms: S8_8  and  C7_7 
REMARK    3  A    between atoms: N9_9  and  S8_8 
REMARK    4  A    between atoms: C19_19  and  N9_9 
REMARK    5  A    between atoms: C17_17  and  N11_11 
REMARK    6  A    between atoms: C12_12  and  C16_16 
REMARK    7  A    between atoms: C18_18  and  C17_17 
REMARK       I    between atoms: N20_20  and  C18_18 
REMARK    8  A    between atoms: C9_38  and  N20_20 
REMARK    9  A    between atoms: C22_21  and  C9_38 
REMARK   10  A    between atoms: N23_22  and  C28_26 
REMARK   11  A    between atoms: C26_25  and  C8_37 
REMARK   12  A    between atoms: C28_26  and  C29_27 
REMARK       I    between atoms: C29_27  and  N30_28 
REMARK   13  A    between atoms: N30_28  and  C31_29 
REMARK   14  A    between atoms: C31_29  and  C32_30 
REMARK   15  A    between atoms: C31_29  and  C33_31 
REMARK   16  A    between atoms: C31_29  and  C34_32 
ROOT
ATOM      1  C18 T15 d   1      16.263 -12.726  20.446  0.00  0.00     0.236 C 
ATOM      2  N20 T15 d   1      15.274 -11.935  20.868  0.00  0.00    -0.354 N 
ATOM      3  O36 T15 d   1      16.132 -13.670  19.692  0.00  0.00    -0.272 OA
ATOM      4  H16 T15 d   1      15.434 -11.208  21.536  0.00  0.00     0.162 HD
ENDROOT
BRANCH   1   5
ATOM      5  C17 T15 d   1      17.559 -12.457  21.097  0.00  0.00     0.076 C 
ATOM      6  H14 T15 d   1      18.284 -12.126  20.339  0.00  0.00     0.079 H 
ATOM      7  H15 T15 d   1      17.430 -11.667  21.851  0.00  0.00     0.079 H 
BRANCH   5   8
ATOM      8  N11 T15 d   1      18.061 -13.673  21.750  0.00  0.00    -0.308 N 
ATOM      9  C10 T15 d   1      17.253 -14.310  22.699  0.00  0.00     0.274 A 
ATOM     10  O15 T15 d   1      16.130 -13.874  22.959  0.00  0.00    -0.266 OA
ATOM     11  C19 T15 d   1      17.845 -15.490  23.303  0.00  0.00     0.118 A 
ATOM     12  C14 T15 d   1      19.122 -15.912  22.940  0.00  0.00    -0.002 A 
ATOM     13  C13 T15 d   1      19.844 -15.209  21.983  0.00  0.00    -0.076 A 
ATOM     14  H9  T15 d   1      19.728 -15.912  23.858  0.00  0.00     0.048 H 
ATOM     15  H10 T15 d   1      19.021 -16.942  22.567  0.00  0.00     0.048 H 
ATOM     16  C12 T15 d   1      19.283 -14.083  21.395  0.00  0.00     0.008 A 
ATOM     17  H8  T15 d   1      20.842 -15.539  21.697  0.00  0.00     0.080 H 
BRANCH  11  18
ATOM     18  N9  T15 d   1      17.081 -16.183  24.182  0.00  0.00    -0.163 NA
BRANCH  18  19
ATOM     19  S8  T15 d   1      17.664 -17.434  25.035  0.00  0.00     0.255 S 
ATOM     20  O37 T15 d   1      16.518 -18.124  25.542  0.00  0.00    -0.203 OA
ATOM     21  O38 T15 d   1      18.561 -18.149  24.170  0.00  0.00    -0.203 OA
BRANCH  19  22
ATOM     22  C7  T15 d   1      18.568 -16.809  26.450  0.00  0.00     0.072 C 
ATOM     23  H6  T15 d   1      17.895 -16.165  27.036  0.00  0.00     0.066 H 
ATOM     24  H7  T15 d   1      18.886 -17.664  27.065  0.00  0.00     0.066 H 
BRANCH  22  25
ATOM     25  C3  T15 d   1      19.787 -16.011  26.079  0.00  0.00    -0.043 A 
ATOM     26  C2  T15 d   1      20.905 -16.657  25.538  0.00  0.00    -0.076 A 
ATOM     27  C1  T15 d   1      22.055 -15.930  25.225  0.00  0.00    -0.082 A 
ATOM     28  H2  T15 d   1      20.878 -17.726  25.361  0.00  0.00     0.084 H 
ATOM     29  C6  T15 d   1      22.083 -14.558  25.455  0.00  0.00    -0.083 A 
ATOM     30  H1  T15 d   1      22.920 -16.431  24.806  0.00  0.00     0.083 H 
ATOM     31  C5  T15 d   1      20.965 -13.914  25.997  0.00  0.00    -0.082 A 
ATOM     32  H5  T15 d   1      22.972 -13.987  25.214  0.00  0.00     0.083 H 
ATOM     33  C4  T15 d   1      19.814 -14.641  26.307  0.00  0.00    -0.076 A 
ATOM     34  H4  T15 d   1      20.993 -12.845  26.177  0.00  0.00     0.083 H 
ATOM     35  H3  T15 d   1      18.947 -14.140  26.723  0.00  0.00     0.084 H 
ENDBRANCH  22  25
ENDBRANCH  19  22
ENDBRANCH  18  19
ENDBRANCH  11  18
BRANCH  16  36
ATOM     36  C16 T15 d   1      20.023 -13.352  20.345  0.00  0.00    -0.037 C 
ATOM     37  H11 T15 d   1      21.002 -13.829  20.187  0.00  0.00     0.035 H 
ATOM     38  H12 T15 d   1      20.170 -12.308  20.659  0.00  0.00     0.035 H 
ATOM     39  H13 T15 d   1      19.448 -13.375  19.407  0.00  0.00     0.035 H 
ENDBRANCH  16  36
ENDBRANCH   5   8
ENDBRANCH   1   5
BRANCH   2  40
ATOM     40  C9  T15 d   1      13.933 -12.184  20.302  0.00  0.00     0.035 C 
ATOM     41  H33 T15 d   1      13.933 -13.155  19.785  0.00  0.00     0.073 H 
ATOM     42  H34 T15 d   1      13.689 -11.386  19.585  0.00  0.00     0.073 H 
BRANCH  40  43
ATOM     43  C22 T15 d   1      12.898 -12.204  21.391  0.00  0.00     0.055 A 
ATOM     44  N23 T15 d   1      12.500 -13.280  22.089  0.00  0.00    -0.333 N 
ATOM     45  C24 T15 d   1      11.541 -12.886  23.000  0.00  0.00     0.067 A 
ATOM     46  N25 T15 d   1      11.376 -11.534  22.849  0.00  0.00    -0.247 NA
ATOM     47  H17 T15 d   1      11.015 -13.528  23.705  0.00  0.00     0.143 H 
ATOM     48  C26 T15 d   1      12.197 -11.118  21.850  0.00  0.00     0.056 A 
BRANCH  44  49
ATOM     49  C28 T15 d   1      12.995 -14.652  21.914  0.00  0.00     0.074 C 
ATOM     50  H18 T15 d   1      12.822 -15.210  22.846  0.00  0.00     0.079 H 
ATOM     51  H19 T15 d   1      14.074 -14.613  21.705  0.00  0.00     0.079 H 
BRANCH  49  52
ATOM     52  C29 T15 d   1      12.303 -15.384  20.771  0.00  0.00     0.236 C 
ATOM     53  N30 T15 d   1      12.413 -16.713  20.878  0.00  0.00    -0.352 N 
ATOM     54  H20 T15 d   1      12.873 -17.115  21.670  0.00  0.00     0.163 HD
ATOM     55  O35 T15 d   1      11.776 -14.815  19.829  0.00  0.00    -0.272 OA
BRANCH  53  56
ATOM     56  C31 T15 d   1      11.865 -17.572  19.844  0.00  0.00     0.022 C 
BRANCH  56  57
ATOM     57  C32 T15 d   1      12.432 -17.166  18.456  0.00  0.00    -0.054 C 
ATOM     58  H21 T15 d   1      12.010 -17.823  17.681  0.00  0.00     0.030 H 
ATOM     59  H22 T15 d   1      13.527 -17.265  18.464  0.00  0.00     0.030 H 
ATOM     60  H23 T15 d   1      12.160 -16.122  18.240  0.00  0.00     0.030 H 
ENDBRANCH  56  57
BRANCH  56  61
ATOM     61  C33 T15 d   1      10.327 -17.448  19.902  0.00  0.00    -0.054 C 
ATOM     62  H24 T15 d   1       9.878 -18.089  19.129  0.00  0.00     0.030 H 
ATOM     63  H25 T15 d   1      10.037 -16.402  19.726  0.00  0.00     0.030 H 
ATOM     64  H26 T15 d   1       9.971 -17.765  20.893  0.00  0.00     0.030 H 
ENDBRANCH  56  61
BRANCH  56  65
ATOM     65  C34 T15 d   1      12.248 -19.041  20.094  0.00  0.00    -0.054 C 
ATOM     66  H27 T15 d   1      11.822 -19.671  19.299  0.00  0.00     0.030 H 
ATOM     67  H28 T15 d   1      11.852 -19.363  21.069  0.00  0.00     0.030 H 
ATOM     68  H29 T15 d   1      13.344 -19.140  20.093  0.00  0.00     0.030 H 
ENDBRANCH  56  65
ENDBRANCH  53  56
ENDBRANCH  49  52
ENDBRANCH  44  49
BRANCH  48  69
ATOM     69  C8  T15 d   1      12.288  -9.738  21.381  0.00  0.00    -0.034 C 
ATOM     70  H30 T15 d   1      11.593  -9.109  21.956  0.00  0.00     0.035 H 
ATOM     71  H31 T15 d   1      12.024  -9.695  20.314  0.00  0.00     0.035 H 
ATOM     72  H32 T15 d   1      13.316  -9.371  21.519  0.00  0.00     0.035 H 
ENDBRANCH  48  69
ENDBRANCH  40  43
ENDBRANCH   2  40
TORSDOF 16
