REMARK  5 active torsions:
REMARK  status: ('A' for Active; 'I' for Inactive)
REMARK    1  A    between atoms: N_1  and  CA_2 
REMARK    2  A    between atoms: CA_2  and  C_3 
REMARK    3  A    between atoms: CA_2  and  CB_5 
REMARK    4  A    between atoms: CB_5  and  OG1_6 
REMARK    5  A    between atoms: CB_5  and  CG2_7 
ROOT
ATOM      1  CA  NON d   1      34.187   8.452  24.696  0.00  0.00     0.206 C 
ATOM      2  H   NON d   1      34.898   9.266  24.836  0.00  0.00     0.105 H 
ENDROOT
BRANCH   1   3
ATOM      3  N   NON d   1      34.794   7.169  25.131  0.00  0.00    -0.063 N 
ATOM      4  H   NON d   1      34.975   7.203  26.134  0.00  0.00     0.275 HD
ATOM      5  H   NON d   1      34.152   6.404  24.926  0.00  0.00     0.275 HD
ATOM      6  H   NON d   1      35.670   7.022  24.631  0.00  0.00     0.275 HD
ENDBRANCH   1   3
BRANCH   1   7
ATOM      7  C   NON d   1      32.967   8.680  25.552  0.00  0.00     0.207 C 
ATOM      8  O   NON d   1      31.910   8.094  25.344  0.00  0.00    -0.646 OA
ATOM      9  OXT NON d   1      33.031   9.443  26.506  0.00  0.00    -0.646 OA
ENDBRANCH   1   7
BRANCH   1  10
ATOM     10  CB  NON d   1      33.871   8.491  23.154  0.00  0.00     0.069 C 
ATOM     11  H   NON d   1      33.848   7.458  22.808  0.00  0.00     0.086 H 
BRANCH  10  12
ATOM     12  OG1 NON d   1      34.876   9.256  22.479  0.00  0.00    -0.393 OA
ATOM     13  H   NON d   1      34.682   9.279  21.539  0.00  0.00     0.210 HD
ENDBRANCH  10  12
BRANCH  10  14
ATOM     14  CG2 NON d   1      32.541   9.142  22.863  0.00  0.00    -0.050 C 
ATOM     15  H   NON d   1      32.552  10.168  23.230  0.00  0.00     0.031 H 
ATOM     16  H   NON d   1      32.365   9.141  21.787  0.00  0.00     0.031 H 
ATOM     17  H   NON d   1      31.748   8.585  23.362  0.00  0.00     0.031 H 
ENDBRANCH  10  14
ENDBRANCH   1  10
TORSDOF 5
