REMARK  8 active torsions:
REMARK  status: ('A' for Active; 'I' for Inactive)
REMARK    1  A    between atoms: C15_4  and  N14_1 
REMARK       I    between atoms: N14_1  and  C12_9 
REMARK    2  A    between atoms: O22_25  and  C21_7 
REMARK    3  A    between atoms: C23_8  and  O22_25 
REMARK       I    between atoms: C12_9  and  N11_22 
REMARK    4  A    between atoms: C8_19  and  C7_18 
REMARK    5  A    between atoms: C9_20  and  C8_19 
REMARK       I    between atoms: N11_22  and  C9_20 
REMARK    6  A    between atoms: C32_33  and  C31_32 
REMARK    7  A    between atoms: C32_33  and  N34_34 
REMARK    8  A    between atoms: C37_37  and  N39_39 
ROOT
ATOM      1  C23 CKK d   1      -0.840  11.680  55.378  0.00  0.00     0.201 A 
ATOM      2  C27 CKK d   1      -0.475  12.603  56.386  0.00  0.00     0.119 A 
ATOM      3  N24 CKK d   1      -2.024  11.219  55.241  0.00  0.00    -0.214 NA
ATOM      4  C25 CKK d   1      -2.944  11.650  56.140  0.00  0.00     0.109 A 
ATOM      5  N26 CKK d   1      -2.746  12.499  57.098  0.00  0.00    -0.161 NA
ATOM      6  N28 CKK d   1      -1.502  12.973  57.205  0.00  0.00    -0.239 N 
ATOM      7  C29 CKK d   1      -1.063  13.858  58.125  0.00  0.00     0.005 A 
ATOM      8  C30 CKK d   1       0.292  14.043  57.931  0.00  0.00    -0.056 A 
ATOM      9  C31 CKK d   1       0.692  13.262  56.779  0.00  0.00     0.002 A 
ATOM     10  H14 CKK d   1      -3.949  11.242  56.047  0.00  0.00     0.149 H 
ATOM     11  H15 CKK d   1      -1.671  14.342  58.888  0.00  0.00     0.114 H 
ATOM     12  H16 CKK d   1       0.946  14.667  58.538  0.00  0.00     0.086 H 
ENDROOT
BRANCH   1  13
ATOM     13  O22 CKK d   1       0.217  11.331  54.587  0.00  0.00    -0.287 OA
BRANCH  13  14
ATOM     14  C21 CKK d   1       0.109  10.023  54.132  0.00  0.00     0.116 A 
ATOM     15  C17 CKK d   1      -0.197   9.888  52.796  0.00  0.00     0.152 A 
ATOM     16  C16 CKK d   1      -0.334   8.637  52.252  0.00  0.00    -0.017 A 
ATOM     17  F18 CKK d   1      -0.368  10.960  52.017  0.00  0.00    -0.203 F 
ATOM     18  C15 CKK d   1      -0.176   7.485  53.014  0.00  0.00     0.039 A 
ATOM     19  H2  CKK d   1      -0.572   8.544  51.199  0.00  0.00     0.091 H 
ATOM     20  C19 CKK d   1       0.146   7.604  54.394  0.00  0.00    -0.054 A 
ATOM     21  C20 CKK d   1       0.293   8.894  54.956  0.00  0.00    -0.045 A 
ATOM     22  H3  CKK d   1       0.277   6.719  55.006  0.00  0.00     0.087 H 
ATOM     23  H4  CKK d   1       0.543   9.012  56.004  0.00  0.00     0.088 H 
BRANCH  18  24
ATOM     24  N14 CKK d   1      -0.337   6.224  52.396  0.00  0.00    -0.309 N 
ATOM     25  C12 CKK d   1      -0.679   6.022  51.115  0.00  0.00     0.327 C 
ATOM     26  N11 CKK d   1      -0.953   4.771  50.790  0.00  0.00    -0.279 N 
ATOM     27  O13 CKK d   1      -0.771   6.826  50.227  0.00  0.00    -0.247 OA
ATOM     28  C9  CKK d   1      -0.990   3.769  51.690  0.00  0.00     0.229 C 
ATOM     29  H13 CKK d   1      -1.142   4.558  49.831  0.00  0.00     0.173 HD
ATOM     30  O10 CKK d   1      -0.815   3.980  52.894  0.00  0.00    -0.273 OA
ATOM     31  H1  CKK d   1      -0.183   5.414  52.962  0.00  0.00     0.170 HD
BRANCH  28  32
ATOM     32  C8  CKK d   1      -1.183   2.444  51.035  0.00  0.00     0.033 C 
ATOM     33  H11 CKK d   1      -2.123   2.448  50.463  0.00  0.00     0.054 H 
ATOM     34  H12 CKK d   1      -0.342   2.241  50.356  0.00  0.00     0.054 H 
BRANCH  32  35
ATOM     35  C7  CKK d   1      -1.240   1.418  52.062  0.00  0.00    -0.049 A 
ATOM     36  C4  CKK d   1      -0.169   0.537  52.160  0.00  0.00    -0.073 A 
ATOM     37  C3  CKK d   1      -0.242  -0.456  53.142  0.00  0.00    -0.045 A 
ATOM     38  H8  CKK d   1       0.688   0.617  51.502  0.00  0.00     0.084 H 
ATOM     39  C2  CKK d   1      -1.320  -0.521  53.973  0.00  0.00     0.116 A 
ATOM     40  H7  CKK d   1       0.562  -1.177  53.242  0.00  0.00     0.088 H 
ATOM     41  F1  CKK d   1      -1.301  -1.480  54.874  0.00  0.00    -0.206 F 
ATOM     42  C5  CKK d   1      -2.403   0.350  53.931  0.00  0.00    -0.045 A 
ATOM     43  C6  CKK d   1      -2.347   1.337  52.947  0.00  0.00    -0.073 A 
ATOM     44  H9  CKK d   1      -3.237   0.267  54.619  0.00  0.00     0.088 H 
ATOM     45  H10 CKK d   1      -3.158   2.050  52.857  0.00  0.00     0.084 H 
ENDBRANCH  32  35
ENDBRANCH  28  32
ENDBRANCH  18  24
ENDBRANCH  13  14
ENDBRANCH   1  13
BRANCH   9  46
ATOM     46  C32 CKK d   1       2.069  13.242  56.181  0.00  0.00     0.109 C 
ATOM     47  H17 CKK d   1       2.409  14.278  56.033  0.00  0.00     0.083 H 
ATOM     48  H18 CKK d   1       2.029  12.727  55.210  0.00  0.00     0.083 H 
BRANCH  46  49
ATOM     49  N34 CKK d   1       3.026  12.547  57.048  0.00  0.00    -0.067 N 
ATOM     50  C33 CKK d   1       2.900  11.119  56.710  0.00  0.00     0.086 C 
ATOM     51  C38 CKK d   1       3.862  10.275  57.509  0.00  0.00    -0.016 C 
ATOM     52  H5  CKK d   1       3.112  10.985  55.639  0.00  0.00     0.076 H 
ATOM     53  H6  CKK d   1       1.873  10.790  56.925  0.00  0.00     0.076 H 
ATOM     54  C37 CKK d   1       5.276  10.696  57.181  0.00  0.00     0.103 C 
ATOM     55  H25 CKK d   1       3.724   9.215  57.251  0.00  0.00     0.038 H 
ATOM     56  H26 CKK d   1       3.674  10.419  58.583  0.00  0.00     0.038 H 
ATOM     57  C36 CKK d   1       5.507  12.185  57.494  0.00  0.00    -0.016 C 
ATOM     58  H24 CKK d   1       5.471  10.534  56.111  0.00  0.00     0.084 H 
ATOM     59  C35 CKK d   1       4.417  13.048  56.831  0.00  0.00     0.086 C 
ATOM     60  H22 CKK d   1       5.476  12.335  58.583  0.00  0.00     0.038 H 
ATOM     61  H23 CKK d   1       6.492  12.488  57.110  0.00  0.00     0.038 H 
ATOM     62  H20 CKK d   1       4.485  14.066  57.242  0.00  0.00     0.076 H 
ATOM     63  H21 CKK d   1       4.609  13.075  55.748  0.00  0.00     0.076 H 
ATOM     64  H19 CKK d   1       2.779  12.691  58.015  0.00  0.00     0.280 HD
BRANCH  54  65
ATOM     65  N39 CKK d   1       6.151   9.807  57.982  0.00  0.00    -0.075 N 
ATOM     66  H27 CKK d   1       7.116  10.039  57.807  0.00  0.00     0.274 HD
ATOM     67  H28 CKK d   1       5.983   8.848  57.722  0.00  0.00     0.274 HD
ATOM     68  H29 CKK d   1       5.949   9.930  58.962  0.00  0.00     0.274 HD
ENDBRANCH  54  65
ENDBRANCH  46  49
ENDBRANCH   9  46
TORSDOF 8
