REMARK WARNING: 32 MAX_TORS EXCEEDED!!!
REMARK  62 active torsions:
REMARK  status: ('A' for Active; 'I' for Inactive)
REMARK    1  A    between atoms: N_1  and  CA_2 
REMARK    2  A    between atoms: CA_2  and  C_3 
REMARK    3  A    between atoms: CA_2  and  CB_5 
REMARK       I    between atoms: C_3  and  N_9 
REMARK    4  A    between atoms: CB_5  and  CG_6 
REMARK    5  A    between atoms: N_9  and  CA_10 
REMARK    6  A    between atoms: CA_10  and  C_11 
REMARK    7  A    between atoms: CA_10  and  CB_13 
REMARK       I    between atoms: C_11  and  N_18 
REMARK    8  A    between atoms: CB_13  and  CG_14 
REMARK    9  A    between atoms: CG_14  and  CD_15 
REMARK   10  A    between atoms: N_18  and  CA_19 
REMARK   11  A    between atoms: CA_19  and  C_20 
REMARK   12  A    between atoms: CA_19  and  CB_22 
REMARK       I    between atoms: C_20  and  N_27 
REMARK   13  A    between atoms: CB_22  and  CG_23 
REMARK   14  A    between atoms: CG_23  and  CD_24 
REMARK   15  A    between atoms: N_27  and  CA_28 
REMARK   16  A    between atoms: CA_28  and  C_29 
REMARK   17  A    between atoms: CA_28  and  CB_31 
REMARK       I    between atoms: C_29  and  N_32 
REMARK   18  A    between atoms: N_32  and  CA_33 
REMARK   19  A    between atoms: CA_33  and  C_34 
REMARK   20  A    between atoms: CA_33  and  CB_36 
REMARK       I    between atoms: C_34  and  N_40 
REMARK   21  A    between atoms: CB_36  and  CG_37 
REMARK   22  A    between atoms: CG_37  and  CD1_38 
REMARK   23  A    between atoms: CG_37  and  CD2_39 
REMARK   24  A    between atoms: N_40  and  CA_41 
REMARK   25  A    between atoms: CA_41  and  C_42 
REMARK   26  A    between atoms: CA_41  and  CB_44 
REMARK       I    between atoms: C_42  and  N_49 
REMARK   27  A    between atoms: CB_44  and  CG_45 
REMARK   28  A    between atoms: CG_45  and  CD_46 
REMARK   29  A    between atoms: CD_46  and  CE_47 
REMARK   30  A    between atoms: CE_47  and  NZ_48 
REMARK   31  A    between atoms: N_49  and  CA_50 
REMARK   32  A    between atoms: CA_50  and  C_51 
REMARK   33  A    between atoms: CA_50  and  CB_53 
REMARK       I    between atoms: C_51  and  N_58 
REMARK   34  A    between atoms: CB_53  and  CG_54 
REMARK   35  A    between atoms: CG_54  and  CD_55 
REMARK       I    between atoms: CD_55  and  NE2_57 
REMARK   36  A    between atoms: N_58  and  CA_59 
REMARK   37  A    between atoms: CA_59  and  C_60 
REMARK   38  A    between atoms: CA_59  and  CB_62 
REMARK       I    between atoms: C_60  and  N_66 
REMARK   39  A    between atoms: CB_62  and  CG_63 
REMARK   40  A    between atoms: CG_63  and  CD1_64 
REMARK   41  A    between atoms: CG_63  and  CD2_65 
REMARK   42  A    between atoms: N_66  and  CA_67 
REMARK   43  A    between atoms: CA_67  and  C_68 
REMARK   44  A    between atoms: CA_67  and  CB_70 
REMARK       I    between atoms: C_68  and  N_71 
REMARK   45  A    between atoms: N_71  and  CA_72 
REMARK   46  A    between atoms: CA_72  and  C_73 
REMARK   47  A    between atoms: CA_72  and  CB_75 
REMARK       I    between atoms: C_73  and  N_80 
REMARK   48  A    between atoms: CB_75  and  CG_76 
REMARK   49  A    between atoms: CG_76  and  CD_77 
REMARK   50  A    between atoms: N_80  and  CA_81 
REMARK   51  A    between atoms: CA_81  and  C_82 
REMARK   52  A    between atoms: CA_81  and  CB_84 
REMARK       I    between atoms: C_82  and  N_94 
REMARK   53  A    between atoms: CB_84  and  CG_85 
REMARK   54  A    between atoms: N_94  and  CA_95 
REMARK   55  A    between atoms: CA_95  and  C_96 
REMARK   56  A    between atoms: CA_95  and  CB_98 
REMARK       I    between atoms: C_96  and  N_101 
REMARK   57  A    between atoms: CB_98  and  CG1_99 
REMARK   58  A    between atoms: CB_98  and  CG2_100 
REMARK   59  A    between atoms: N_101  and  CA_102 
REMARK   60  A    between atoms: CA_102  and  C_103 
REMARK   61  A    between atoms: CA_102  and  CB_105 
REMARK   62  A    between atoms: CB_105  and  OG_106 
ROOT
ATOM      1  CA  GLN d   1      28.451  38.297  -0.315  0.00  0.00     0.090 C 
ATOM      2  H49 GLN d   1      27.406  38.351  -0.653  0.00  0.00     0.087 H 
ENDROOT
BRANCH   1   3
ATOM      3  N   GLN d   1      28.725  39.488   0.498  0.00  0.00    -0.346 N 
ATOM      4  C   LYS d   1      27.882  39.983   1.408  0.00  0.00     0.241 C 
ATOM      5  O   LYS d   1      26.779  39.497   1.640  0.00  0.00    -0.271 OA
ATOM      6  H48 GLN d   1      29.597  39.958   0.362  0.00  0.00     0.163 HD
BRANCH   4   7
ATOM      7  CA  LYS d   1      28.362  41.215   2.182  0.00  0.00     0.089 C 
ATOM      8  H36 LYS d   1      27.802  41.273   3.127  0.00  0.00     0.087 H 
BRANCH   7   9
ATOM      9  N   LYS d   1      29.795  41.121   2.504  0.00  0.00    -0.346 N 
ATOM     10  C   LEU d   1      30.274  40.191   3.333  0.00  0.00     0.241 C 
ATOM     11  O   LEU d   1      29.554  39.483   4.021  0.00  0.00    -0.271 OA
ATOM     12  H35 LYS d   1      30.429  41.774   2.089  0.00  0.00     0.163 HD
BRANCH  10  13
ATOM     13  CA  LEU d   1      31.787  40.069   3.448  0.00  0.00     0.089 C 
ATOM     14  H25 LEU d   1      32.014  39.069   3.845  0.00  0.00     0.087 H 
BRANCH  13  15
ATOM     15  N   LEU d   1      32.516  40.199   2.169  0.00  0.00    -0.346 N 
ATOM     16  C   ALA d   1      32.524  39.275   1.200  0.00  0.00     0.240 C 
ATOM     17  O   ALA d   1      31.974  38.179   1.312  0.00  0.00    -0.271 OA
ATOM     18  H24 LEU d   1      33.041  41.037   2.016  0.00  0.00     0.163 HD
BRANCH  16  19
ATOM     19  CA  ALA d   1      33.256  39.647  -0.121  0.00  0.00     0.086 C 
ATOM     20  H20 ALA d   1      32.590  39.352  -0.945  0.00  0.00     0.086 H 
BRANCH  19  21
ATOM     21  N   ALA d   1      33.511  41.078  -0.270  0.00  0.00    -0.346 N 
ATOM     22  C   GLU d   1      32.524  41.971  -0.270  0.00  0.00     0.241 C 
ATOM     23  O   GLU d   1      31.341  41.654  -0.225  0.00  0.00    -0.271 OA
ATOM     24  H19 ALA d   1      34.453  41.395  -0.375  0.00  0.00     0.163 HD
BRANCH  22  25
ATOM     25  CA  GLU d   1      32.921  43.440  -0.305  0.00  0.00     0.090 C 
ATOM     26  H14 GLU d   1      32.003  44.045  -0.282  0.00  0.00     0.087 H 
BRANCH  25  27
ATOM     27  N   GLU d   1      33.706  43.763   0.884  0.00  0.00    -0.346 N 
ATOM     28  C   GLU d   1      33.113  44.087   2.032  0.00  0.00     0.241 C 
ATOM     29  O   GLU d   1      31.886  44.210   2.129  0.00  0.00    -0.271 OA
ATOM     30  H13 GLU d   1      34.705  43.740   0.835  0.00  0.00     0.163 HD
BRANCH  28  31
ATOM     31  CA  GLU d   1      34.027  44.310   3.261  0.00  0.00     0.090 C 
ATOM     32  H8  GLU d   1      34.041  43.367   3.826  0.00  0.00     0.087 H 
BRANCH  31  33
ATOM     33  N   GLU d   1      35.421  44.636   2.929  0.00  0.00    -0.346 N 
ATOM     34  C   ASP d   1      36.287  43.719   2.504  0.00  0.00     0.249 C 
ATOM     35  O   ASP d   1      35.975  42.532   2.339  0.00  0.00    -0.271 OA
ATOM     36  H7  GLU d   1      35.730  45.582   3.026  0.00  0.00     0.163 HD
BRANCH  34  37
ATOM     37  CA  ASP d   1      37.711  44.230   2.183  0.00  0.00     0.185 C 
ATOM     38  H4  ASP d   1      37.889  44.043   1.114  0.00  0.00     0.100 H 
BRANCH  37  39
ATOM     39  N   ASP d   1      37.888  45.707   2.414  0.00  0.00    -0.066 N 
ATOM     40  H1  ASP d   1      38.834  45.972   2.187  0.00  0.00     0.275 HD
ATOM     41  H2  ASP d   1      37.703  45.920   3.382  0.00  0.00     0.275 HD
ATOM     42  H3  ASP d   1      37.246  46.218   1.829  0.00  0.00     0.275 HD
ENDBRANCH  37  39
BRANCH  37  43
ATOM     43  CB  ASP d   1      38.765  43.446   2.979  0.00  0.00     0.050 C 
ATOM     44  H5  ASP d   1      38.441  43.392   4.029  0.00  0.00     0.052 H 
ATOM     45  H6  ASP d   1      39.722  43.985   2.917  0.00  0.00     0.052 H 
BRANCH  43  46
ATOM     46  CG  ASP d   1      38.975  42.022   2.462  0.00  0.00     0.175 C 
ATOM     47  OD1 ASP d   1      38.267  41.591   1.522  0.00  0.00    -0.648 OA
ATOM     48  OD2 ASP d   1      39.842  41.262   2.948  0.00  0.00    -0.648 OA
ENDBRANCH  43  46
ENDBRANCH  37  43
ENDBRANCH  34  37
ENDBRANCH  31  33
BRANCH  31  49
ATOM     49  CB  GLU d   1      33.438  45.401   4.176  0.00  0.00    -0.029 C 
ATOM     50  H9  GLU d   1      32.881  46.115   3.552  0.00  0.00     0.037 H 
ATOM     51  H10 GLU d   1      34.268  45.921   4.676  0.00  0.00     0.037 H 
BRANCH  49  52
ATOM     52  CG  GLU d   1      32.495  44.856   5.245  0.00  0.00     0.018 C 
ATOM     53  H11 GLU d   1      33.011  44.898   6.215  0.00  0.00     0.049 H 
ATOM     54  H12 GLU d   1      32.262  43.809   4.999  0.00  0.00     0.049 H 
BRANCH  52  55
ATOM     55  CD  GLU d   1      31.180  45.625   5.367  0.00  0.00     0.172 C 
ATOM     56  OE1 GLU d   1      30.740  46.274   4.379  0.00  0.00    -0.648 OA
ATOM     57  OE2 GLU d   1      30.567  45.562   6.462  0.00  0.00    -0.648 OA
ENDBRANCH  52  55
ENDBRANCH  49  52
ENDBRANCH  31  49
ENDBRANCH  28  31
ENDBRANCH  25  27
BRANCH  25  58
ATOM     58  CB  GLU d   1      33.671  43.779  -1.599  0.00  0.00    -0.029 C 
ATOM     59  H15 GLU d   1      34.377  42.964  -1.813  0.00  0.00     0.037 H 
ATOM     60  H16 GLU d   1      34.228  44.715  -1.441  0.00  0.00     0.037 H 
BRANCH  58  61
ATOM     61  CG  GLU d   1      32.761  43.960  -2.818  0.00  0.00     0.018 C 
ATOM     62  H17 GLU d   1      32.094  44.815  -2.631  0.00  0.00     0.049 H 
ATOM     63  H18 GLU d   1      32.161  43.047  -2.943  0.00  0.00     0.049 H 
BRANCH  61  64
ATOM     64  CD  GLU d   1      33.529  44.219  -4.122  0.00  0.00     0.172 C 
ATOM     65  OE1 GLU d   1      33.062  43.741  -5.191  0.00  0.00    -0.648 OA
ATOM     66  OE2 GLU d   1      34.594  44.904  -4.101  0.00  0.00    -0.648 OA
ENDBRANCH  61  64
ENDBRANCH  58  61
ENDBRANCH  25  58
ENDBRANCH  22  25
ENDBRANCH  19  21
BRANCH  19  67
ATOM     67  CB  ALA d   1      34.559  38.864  -0.282  0.00  0.00    -0.049 C 
ATOM     68  H21 ALA d   1      34.357  37.789  -0.168  0.00  0.00     0.030 H 
ATOM     69  H22 ALA d   1      35.277  39.185   0.487  0.00  0.00     0.030 H 
ATOM     70  H23 ALA d   1      34.980  39.054  -1.280  0.00  0.00     0.030 H 
ENDBRANCH  19  67
ENDBRANCH  16  19
ENDBRANCH  13  15
BRANCH  13  71
ATOM     71  CB  LEU d   1      32.253  41.114   4.473  0.00  0.00    -0.035 C 
ATOM     72  H26 LEU d   1      31.404  41.270   5.154  0.00  0.00     0.037 H 
ATOM     73  H27 LEU d   1      32.439  42.036   3.902  0.00  0.00     0.037 H 
BRANCH  71  74
ATOM     74  CG  LEU d   1      33.478  40.917   5.366  0.00  0.00    -0.059 C 
ATOM     75  H28 LEU d   1      34.313  41.490   4.938  0.00  0.00     0.038 H 
BRANCH  74  76
ATOM     76  CD1 LEU d   1      33.162  41.481   6.760  0.00  0.00    -0.073 C 
ATOM     77  H29 LEU d   1      34.035  41.347   7.416  0.00  0.00     0.028 H 
ATOM     78  H30 LEU d   1      32.299  40.947   7.184  0.00  0.00     0.028 H 
ATOM     79  H31 LEU d   1      32.926  42.552   6.677  0.00  0.00     0.028 H 
ENDBRANCH  74  76
BRANCH  74  80
ATOM     80  CD2 LEU d   1      33.914  39.445   5.450  0.00  0.00    -0.073 C 
ATOM     81  H32 LEU d   1      34.133  39.069   4.440  0.00  0.00     0.028 H 
ATOM     82  H33 LEU d   1      33.105  38.848   5.896  0.00  0.00     0.028 H 
ATOM     83  H34 LEU d   1      34.816  39.365   6.074  0.00  0.00     0.028 H 
ENDBRANCH  74  80
ENDBRANCH  71  74
ENDBRANCH  13  71
ENDBRANCH  10  13
ENDBRANCH   7   9
BRANCH   7  84
ATOM     84  CB  LYS d   1      28.064  42.471   1.362  0.00  0.00    -0.038 C 
ATOM     85  H37 LYS d   1      26.975  42.528   1.218  0.00  0.00     0.036 H 
ATOM     86  H38 LYS d   1      28.558  42.360   0.385  0.00  0.00     0.036 H 
BRANCH  84  87
ATOM     87  CG  LYS d   1      28.522  43.786   1.968  0.00  0.00    -0.061 C 
ATOM     88  H39 LYS d   1      29.548  43.677   2.350  0.00  0.00     0.033 H 
ATOM     89  H40 LYS d   1      27.851  44.063   2.794  0.00  0.00     0.033 H 
BRANCH  87  90
ATOM     90  CD  LYS d   1      28.490  44.875   0.898  0.00  0.00    -0.043 C 
ATOM     91  H41 LYS d   1      27.556  44.778   0.326  0.00  0.00     0.035 H 
ATOM     92  H42 LYS d   1      29.349  44.732   0.226  0.00  0.00     0.035 H 
BRANCH  90  93
ATOM     93  CE  LYS d   1      28.558  46.270   1.477  0.00  0.00     0.080 C 
ATOM     94  H43 LYS d   1      29.588  46.493   1.791  0.00  0.00     0.075 H 
ATOM     95  H44 LYS d   1      27.886  46.346   2.345  0.00  0.00     0.075 H 
BRANCH  93  96
ATOM     96  NZ  LYS d   1      28.136  47.226   0.434  0.00  0.00    -0.079 N 
ATOM     97  H45 LYS d   1      28.175  48.164   0.802  0.00  0.00     0.274 HD
ATOM     98  H46 LYS d   1      27.192  47.016   0.148  0.00  0.00     0.274 HD
ATOM     99  H47 LYS d   1      28.753  47.151  -0.360  0.00  0.00     0.274 HD
ENDBRANCH  93  96
ENDBRANCH  90  93
ENDBRANCH  87  90
ENDBRANCH  84  87
ENDBRANCH   7  84
ENDBRANCH   4   7
ENDBRANCH   1   3
BRANCH   1 100
ATOM    100  C   GLN d   1      28.621  37.003   0.486  0.00  0.00     0.241 C 
ATOM    101  O   GLN d   1      28.635  35.909  -0.081  0.00  0.00    -0.271 OA
ATOM    102  N   LEU d   1      28.820  37.151   1.797  0.00  0.00    -0.346 N 
ATOM    103  H56 LEU d   1      29.054  38.063   2.134  0.00  0.00     0.163 HD
BRANCH 102 104
ATOM    104  CA  LEU d   1      28.718  36.063   2.779  0.00  0.00     0.089 C 
ATOM    105  H57 LEU d   1      28.587  35.116   2.234  0.00  0.00     0.087 H 
BRANCH 104 106
ATOM    106  C   LEU d   1      27.504  36.293   3.673  0.00  0.00     0.241 C 
ATOM    107  O   LEU d   1      26.704  35.381   3.882  0.00  0.00    -0.271 OA
ATOM    108  N   ALA d   1      27.365  37.502   4.209  0.00  0.00    -0.346 N 
ATOM    109  H67 ALA d   1      28.096  38.176   4.100  0.00  0.00     0.163 HD
BRANCH 108 110
ATOM    110  CA  ALA d   1      26.157  37.863   4.958  0.00  0.00     0.086 C 
ATOM    111  H68 ALA d   1      26.184  37.318   5.913  0.00  0.00     0.086 H 
BRANCH 110 112
ATOM    112  C   ALA d   1      24.868  37.446   4.222  0.00  0.00     0.240 C 
ATOM    113  O   ALA d   1      23.966  36.849   4.825  0.00  0.00    -0.271 OA
ATOM    114  N   GLU d   1      24.814  37.741   2.918  0.00  0.00    -0.346 N 
ATOM    115  H72 GLU d   1      25.607  38.187   2.503  0.00  0.00     0.163 HD
BRANCH 114 116
ATOM    116  CA  GLU d   1      23.658  37.448   2.059  0.00  0.00     0.090 C 
ATOM    117  H73 GLU d   1      22.766  37.460   2.703  0.00  0.00     0.087 H 
BRANCH 116 118
ATOM    118  C   GLU d   1      23.695  36.073   1.372  0.00  0.00     0.241 C 
ATOM    119  O   GLU d   1      23.475  35.954   0.162  0.00  0.00    -0.271 OA
ATOM    120  N   TRP d   1      23.965  35.041   2.157  0.00  0.00    -0.346 N 
ATOM    121  H78 TRP d   1      24.159  35.215   3.122  0.00  0.00     0.163 HD
BRANCH 120 122
ATOM    122  CA  TRP d   1      23.993  33.660   1.680  0.00  0.00     0.093 C 
ATOM    123  H79 TRP d   1      23.622  33.605   0.646  0.00  0.00     0.088 H 
BRANCH 122 124
ATOM    124  C   TRP d   1      23.078  32.882   2.597  0.00  0.00     0.241 C 
ATOM    125  O   TRP d   1      22.403  31.946   2.181  0.00  0.00    -0.271 OA
ATOM    126  N   VAL d   1      23.054  33.307   3.853  0.00  0.00    -0.346 N 
ATOM    127  H88 VAL d   1      23.604  34.104   4.101  0.00  0.00     0.163 HD
BRANCH 126 128
ATOM    128  CA  VAL d   1      22.265  32.664   4.874  0.00  0.00     0.092 C 
ATOM    129  H89 VAL d   1      22.172  31.592   4.647  0.00  0.00     0.088 H 
BRANCH 128 130
ATOM    130  C   VAL d   1      20.893  33.317   4.789  0.00  0.00     0.241 C 
ATOM    131  O   VAL d   1      19.903  32.818   5.357  0.00  0.00    -0.271 OA
ATOM    132  N   SER d   1      20.838  34.426   4.047  0.00  0.00    -0.343 N 
ATOM    133  H97 SER d   1      21.688  34.826   3.705  0.00  0.00     0.163 HD
BRANCH 132 134
ATOM    134  CA  SER d   1      19.567  35.069   3.722  0.00  0.00     0.116 C 
ATOM    135  H98 SER d   1      18.976  35.123   4.648  0.00  0.00     0.093 H 
BRANCH 134 136
ATOM    136  C   SER d   1      18.734  34.248   2.690  0.00  0.00     0.198 C 
ATOM    137  O   SER d   1      18.858  33.007   2.578  0.00  0.00    -0.646 OA
ATOM    138  OXT SER d   1      17.901  34.807   1.949  0.00  0.00    -0.646 OA
ENDBRANCH 134 136
BRANCH 134 139
ATOM    139  CB  SER d   1      19.814  36.505   3.242  0.00  0.00     0.045 C 
ATOM    140  H99 SER d   1      20.103  36.487   2.181  0.00  0.00     0.077 H 
ATOM    141 0H10 SER d   1      20.626  36.950   3.836  0.00  0.00     0.077 H 
BRANCH 139 142
ATOM    142  OG  SER d   1      18.644  37.288   3.392  0.00  0.00    -0.398 OA
ATOM    143 1H10 SER d   1      17.942  36.907   2.878  0.00  0.00     0.209 HD
ENDBRANCH 139 142
ENDBRANCH 134 139
ENDBRANCH 132 134
ENDBRANCH 128 130
BRANCH 128 144
ATOM    144  CB  VAL d   1      22.917  32.805   6.276  0.00  0.00    -0.033 C 
ATOM    145  H90 VAL d   1      23.994  32.611   6.164  0.00  0.00     0.042 H 
BRANCH 144 146
ATOM    146  CG1 VAL d   1      22.762  34.244   6.869  0.00  0.00    -0.071 C 
ATOM    147  H91 VAL d   1      23.240  34.286   7.859  0.00  0.00     0.028 H 
ATOM    148  H92 VAL d   1      21.694  34.487   6.967  0.00  0.00     0.028 H 
ATOM    149  H93 VAL d   1      23.243  34.971   6.198  0.00  0.00     0.028 H 
ENDBRANCH 144 146
BRANCH 144 150
ATOM    150  CG2 VAL d   1      22.357  31.769   7.203  0.00  0.00    -0.071 C 
ATOM    151  H94 VAL d   1      22.482  30.771   6.756  0.00  0.00     0.028 H 
ATOM    152  H95 VAL d   1      21.287  31.965   7.369  0.00  0.00     0.028 H 
ATOM    153  H96 VAL d   1      22.891  31.810   8.164  0.00  0.00     0.028 H 
ENDBRANCH 144 150
ENDBRANCH 128 144
ENDBRANCH 126 128
ENDBRANCH 122 124
BRANCH 122 154
ATOM    154  CB  TRP d   1      25.428  33.128   1.728  0.00  0.00    -0.012 C 
ATOM    155  H80 TRP d   1      25.926  33.610   2.582  0.00  0.00     0.044 H 
ATOM    156  H81 TRP d   1      25.921  33.436   0.794  0.00  0.00     0.044 H 
BRANCH 154 157
ATOM    157  CG  TRP d   1      25.631  31.647   1.872  0.00  0.00    -0.028 A 
ATOM    158  CD1 TRP d   1      25.621  30.724   0.878  0.00  0.00    -0.015 A 
ATOM    159  NE1 TRP d   1      25.903  29.465   1.373  0.00  0.00    -0.365 N 
ATOM    160  H82 TRP d   1      25.418  30.945  -0.169  0.00  0.00     0.112 H 
ATOM    161  CE2 TRP d   1      26.106  29.561   2.727  0.00  0.00     0.042 A 
ATOM    162  H83 TRP d   1      25.953  28.599   0.818  0.00  0.00     0.165 HD
ATOM    163  CD2 TRP d   1      25.959  30.931   3.077  0.00  0.00    -0.002 A 
ATOM    164  CZ2 TRP d   1      26.412  28.563   3.672  0.00  0.00    -0.056 A 
ATOM    165  CE3 TRP d   1      26.135  31.305   4.426  0.00  0.00    -0.070 A 
ATOM    166  CZ3 TRP d   1      26.429  30.316   5.362  0.00  0.00    -0.082 A 
ATOM    167  H84 TRP d   1      26.043  32.342   4.728  0.00  0.00     0.084 H 
ATOM    168  CH2 TRP d   1      26.579  28.959   4.976  0.00  0.00    -0.081 A 
ATOM    169  H86 TRP d   1      26.545  30.588   6.405  0.00  0.00     0.083 H 
ATOM    170  H87 TRP d   1      26.831  28.219   5.727  0.00  0.00     0.083 H 
ATOM    171  H85 TRP d   1      26.512  27.523   3.381  0.00  0.00     0.086 H 
ENDBRANCH 154 157
ENDBRANCH 122 154
ENDBRANCH 120 122
ENDBRANCH 116 118
BRANCH 116 172
ATOM    172  CB  GLU d   1      23.505  38.555   1.022  0.00  0.00    -0.029 C 
ATOM    173  H74 GLU d   1      22.578  38.383   0.456  0.00  0.00     0.037 H 
ATOM    174  H75 GLU d   1      24.365  38.519   0.337  0.00  0.00     0.037 H 
BRANCH 172 175
ATOM    175  CG  GLU d   1      23.442  39.928   1.651  0.00  0.00     0.018 C 
ATOM    176  H76 GLU d   1      24.466  40.292   1.818  0.00  0.00     0.049 H 
ATOM    177  H77 GLU d   1      22.916  39.856   2.615  0.00  0.00     0.049 H 
BRANCH 175 178
ATOM    178  CD  GLU d   1      22.712  40.909   0.767  0.00  0.00     0.172 C 
ATOM    179  OE1 GLU d   1      23.248  41.210  -0.331  0.00  0.00    -0.648 OA
ATOM    180  OE2 GLU d   1      21.605  41.367   1.168  0.00  0.00    -0.648 OA
ENDBRANCH 175 178
ENDBRANCH 172 175
ENDBRANCH 116 172
ENDBRANCH 114 116
ENDBRANCH 110 112
BRANCH 110 181
ATOM    181  CB  ALA d   1      26.142  39.369   5.275  0.00  0.00    -0.049 C 
ATOM    182  H69 ALA d   1      25.229  39.617   5.836  0.00  0.00     0.030 H 
ATOM    183  H70 ALA d   1      26.162  39.942   4.336  0.00  0.00     0.030 H 
ATOM    184  H71 ALA d   1      27.024  39.625   5.880  0.00  0.00     0.030 H 
ENDBRANCH 110 181
ENDBRANCH 108 110
ENDBRANCH 104 106
BRANCH 104 185
ATOM    185  CB  LEU d   1      29.976  35.949   3.656  0.00  0.00    -0.035 C 
ATOM    186  H58 LEU d   1      29.638  35.970   4.703  0.00  0.00     0.037 H 
ATOM    187  H59 LEU d   1      30.589  36.839   3.451  0.00  0.00     0.037 H 
BRANCH 185 188
ATOM    188  CG  LEU d   1      30.891  34.739   3.511  0.00  0.00    -0.059 C 
ATOM    189  H60 LEU d   1      31.363  34.788   2.518  0.00  0.00     0.038 H 
BRANCH 188 190
ATOM    190  CD1 LEU d   1      31.999  34.786   4.570  0.00  0.00    -0.073 C 
ATOM    191  H61 LEU d   1      32.653  33.909   4.456  0.00  0.00     0.028 H 
ATOM    192  H62 LEU d   1      31.548  34.779   5.573  0.00  0.00     0.028 H 
ATOM    193  H63 LEU d   1      32.591  35.704   4.441  0.00  0.00     0.028 H 
ENDBRANCH 188 190
BRANCH 188 194
ATOM    194  CD2 LEU d   1      30.118  33.430   3.596  0.00  0.00    -0.073 C 
ATOM    195  H64 LEU d   1      29.330  33.419   2.829  0.00  0.00     0.028 H 
ATOM    196  H65 LEU d   1      29.661  33.338   4.592  0.00  0.00     0.028 H 
ATOM    197  H66 LEU d   1      30.805  32.587   3.429  0.00  0.00     0.028 H 
ENDBRANCH 188 194
ENDBRANCH 185 188
ENDBRANCH 104 185
ENDBRANCH 102 104
ENDBRANCH   1 100
BRANCH   1 198
ATOM    198  CB  GLN d   1      29.362  38.277  -1.562  0.00  0.00    -0.030 C 
ATOM    199  H50 GLN d   1      29.555  37.224  -1.816  0.00  0.00     0.037 H 
ATOM    200  H51 GLN d   1      30.308  38.769  -1.291  0.00  0.00     0.037 H 
BRANCH 198 201
ATOM    201  CG  GLN d   1      28.812  38.984  -2.853  0.00  0.00     0.011 C 
ATOM    202  H52 GLN d   1      27.714  38.925  -2.831  0.00  0.00     0.047 H 
ATOM    203  H53 GLN d   1      29.191  38.436  -3.728  0.00  0.00     0.047 H 
BRANCH 201 204
ATOM    204  CD  GLN d   1      29.210  40.478  -3.013  0.00  0.00     0.215 C 
ATOM    205  OE1 GLN d   1      30.173  40.810  -3.725  0.00  0.00    -0.274 OA
ATOM    206  NE2 GLN d   1      28.451  41.368  -2.376  0.00  0.00    -0.370 N 
ATOM    207  H54 GLN d   1      28.661  42.343  -2.444  0.00  0.00     0.159 HD
ATOM    208  H55 GLN d   1      27.672  41.061  -1.830  0.00  0.00     0.159 HD
ENDBRANCH 201 204
ENDBRANCH 198 201
ENDBRANCH   1 198
TORSDOF 62
