REMARK WARNING: 32 MAX_TORS EXCEEDED!!!
REMARK  86 active torsions:
REMARK  status: ('A' for Active; 'I' for Inactive)
REMARK    1  A    between atoms: N_1  and  CA_2 
REMARK    2  A    between atoms: CA_2  and  C_3 
REMARK    3  A    between atoms: CA_2  and  CB_5 
REMARK       I    between atoms: C_3  and  N_10 
REMARK    4  A    between atoms: CB_5  and  CG_6 
REMARK    5  A    between atoms: CG_6  and  CD_7 
REMARK    6  A    between atoms: CD_7  and  CE_8 
REMARK    7  A    between atoms: CE_8  and  NZ_9 
REMARK    8  A    between atoms: N_10  and  CA_11 
REMARK    9  A    between atoms: CA_11  and  C_12 
REMARK   10  A    between atoms: CA_11  and  CB_14 
REMARK       I    between atoms: C_12  and  N_19 
REMARK   11  A    between atoms: CB_14  and  CG_15 
REMARK   12  A    between atoms: CG_15  and  CD_16 
REMARK   13  A    between atoms: N_19  and  CA_20 
REMARK   14  A    between atoms: CA_20  and  C_21 
REMARK   15  A    between atoms: CA_20  and  CB_23 
REMARK       I    between atoms: C_21  and  N_28 
REMARK   16  A    between atoms: CB_23  and  CG_24 
REMARK   17  A    between atoms: CG_24  and  CD_25 
REMARK   18  A    between atoms: N_28  and  CA_29 
REMARK   19  A    between atoms: CA_29  and  C_30 
REMARK   20  A    between atoms: CA_29  and  CB_32 
REMARK       I    between atoms: C_30  and  N_37 
REMARK   21  A    between atoms: CB_32  and  CG_33 
REMARK   22  A    between atoms: CG_33  and  CD_34 
REMARK   23  A    between atoms: N_37  and  CA_38 
REMARK   24  A    between atoms: CA_38  and  C_39 
REMARK   25  A    between atoms: CA_38  and  CB_41 
REMARK       I    between atoms: C_39  and  N_45 
REMARK   26  A    between atoms: CB_41  and  CG_42 
REMARK   27  A    between atoms: N_45  and  CA_46 
REMARK   28  A    between atoms: CA_46  and  C_47 
REMARK   29  A    between atoms: CA_46  and  CB_49 
REMARK       I    between atoms: C_47  and  N_53 
REMARK   30  A    between atoms: CB_49  and  CG_50 
REMARK   31  A    between atoms: N_53  and  CA_54 
REMARK   32  A    between atoms: CA_54  and  C_55 
REMARK   33  A    between atoms: CA_54  and  CB_57 
REMARK       I    between atoms: C_55  and  N_61 
REMARK   34  A    between atoms: CB_57  and  CG_58 
REMARK   35  A    between atoms: N_61  and  CA_62 
REMARK   36  A    between atoms: CA_62  and  C_63 
REMARK   37  A    between atoms: CA_62  and  CB_65 
REMARK       I    between atoms: C_63  and  N_69 
REMARK   38  A    between atoms: CB_65  and  CG_66 
REMARK   39  A    between atoms: CG_66  and  SD_67 
REMARK   40  A    between atoms: SD_67  and  CE_68 
REMARK   41  A    between atoms: N_69  and  CA_70 
REMARK   42  A    between atoms: CA_70  and  C_71 
REMARK   43  A    between atoms: CA_70  and  CB_73 
REMARK       I    between atoms: C_71  and  N_78 
REMARK   44  A    between atoms: CB_73  and  CG_74 
REMARK   45  A    between atoms: CG_74  and  CD_75 
REMARK   46  A    between atoms: CD_75  and  CE_76 
REMARK   47  A    between atoms: CE_76  and  NZ_77 
REMARK   48  A    between atoms: N_78  and  CA_79 
REMARK   49  A    between atoms: CA_79  and  C_80 
REMARK   50  A    between atoms: CA_79  and  CB_82 
REMARK       I    between atoms: C_80  and  N_87 
REMARK   51  A    between atoms: CB_82  and  CG_83 
REMARK   52  A    between atoms: CG_83  and  CD_84 
REMARK   53  A    between atoms: N_87  and  CA_88 
REMARK   54  A    between atoms: CA_88  and  C_89 
REMARK   55  A    between atoms: CA_88  and  CB_91 
REMARK       I    between atoms: C_89  and  N_95 
REMARK   56  A    between atoms: CB_91  and  CG_92 
REMARK   57  A    between atoms: CG_92  and  CD1_93 
REMARK   58  A    between atoms: CG_92  and  CD2_94 
REMARK   59  A    between atoms: N_95  and  CA_96 
REMARK   60  A    between atoms: CA_96  and  C_97 
REMARK   61  A    between atoms: CA_96  and  CB_99 
REMARK       I    between atoms: C_97  and  N_104 
REMARK   62  A    between atoms: CB_99  and  CG_100 
REMARK   63  A    between atoms: CG_100  and  CD_101 
REMARK   64  A    between atoms: N_104  and  CA_105 
REMARK   65  A    between atoms: CA_105  and  C_106 
REMARK   66  A    between atoms: CA_105  and  CB_108 
REMARK       I    between atoms: C_106  and  N_112 
REMARK   67  A    between atoms: CB_108  and  CG_109 
REMARK       I    between atoms: CG_109  and  ND2_111 
REMARK   68  A    between atoms: N_112  and  CA_113 
REMARK   69  A    between atoms: CA_113  and  C_114 
REMARK   70  A    between atoms: CA_113  and  CB_116 
REMARK       I    between atoms: C_114  and  N_126 
REMARK   71  A    between atoms: CB_116  and  CG_117 
REMARK   72  A    between atoms: N_126  and  CA_127 
REMARK   73  A    between atoms: CA_127  and  C_128 
REMARK   74  A    between atoms: CA_127  and  CB_130 
REMARK       I    between atoms: C_128  and  N_131 
REMARK   75  A    between atoms: N_131  and  CA_132 
REMARK   76  A    between atoms: CA_132  and  C_133 
REMARK       I    between atoms: C_133  and  N_135 
REMARK   77  A    between atoms: N_135  and  CA_136 
REMARK   78  A    between atoms: CA_136  and  C_137 
REMARK   79  A    between atoms: CA_136  and  CB_139 
REMARK       I    between atoms: C_137  and  N_141 
REMARK   80  A    between atoms: CB_139  and  OG_140 
REMARK   81  A    between atoms: N_141  and  CA_142 
REMARK   82  A    between atoms: CA_142  and  C_143 
REMARK   83  A    between atoms: CA_142  and  CB_145 
REMARK   84  A    between atoms: CB_145  and  CG_146 
REMARK   85  A    between atoms: CG_146  and  SD_147 
REMARK   86  A    between atoms: SD_147  and  CE_148 
ROOT
ATOM      1  CA  LYS d   1      30.335  39.963   0.148  0.00  0.00     0.089 C 
ATOM      2  H56 LYS d   1      29.779  40.620   0.832  0.00  0.00     0.087 H 
ENDROOT
BRANCH   1   3
ATOM      3  N   LYS d   1      31.658  39.704   0.760  0.00  0.00    -0.346 N 
ATOM      4  C   MET d   1      31.817  39.205   1.997  0.00  0.00     0.241 C 
ATOM      5  O   MET d   1      30.876  38.888   2.737  0.00  0.00    -0.271 OA
ATOM      6  H55 LYS d   1      32.477  39.911   0.224  0.00  0.00     0.163 HD
BRANCH   4   7
ATOM      7  CA  MET d   1      33.258  39.043   2.489  0.00  0.00     0.090 C 
ATOM      8  H47 MET d   1      33.248  38.315   3.313  0.00  0.00     0.087 H 
BRANCH   7   9
ATOM      9  N   MET d   1      34.154  38.522   1.454  0.00  0.00    -0.346 N 
ATOM     10  C   ASP d   1      33.896  37.372   0.832  0.00  0.00     0.241 C 
ATOM     11  O   ASP d   1      32.920  36.681   1.098  0.00  0.00    -0.271 OA
ATOM     12  H46 MET d   1      34.974  39.039   1.210  0.00  0.00     0.163 HD
BRANCH  10  13
ATOM     13  CA  ASP d   1      34.836  36.947  -0.300  0.00  0.00     0.098 C 
ATOM     14  H43 ASP d   1      34.353  36.103  -0.814  0.00  0.00     0.088 H 
BRANCH  13  15
ATOM     15  N   ASP d   1      34.992  38.011  -1.267  0.00  0.00    -0.345 N 
ATOM     16  C   ASP d   1      34.347  37.985  -2.426  0.00  0.00     0.241 C 
ATOM     17  O   ASP d   1      33.602  37.055  -2.768  0.00  0.00    -0.271 OA
ATOM     18  H42 ASP d   1      35.597  38.780  -1.058  0.00  0.00     0.163 HD
BRANCH  16  19
ATOM     19  CA  ASP d   1      34.600  39.164  -3.356  0.00  0.00     0.098 C 
ATOM     20  H39 ASP d   1      33.632  39.456  -3.789  0.00  0.00     0.088 H 
BRANCH  19  21
ATOM     21  N   ASP d   1      35.169  40.358  -2.720  0.00  0.00    -0.345 N 
ATOM     22  C   ASP d   1      34.586  41.052  -1.741  0.00  0.00     0.241 C 
ATOM     23  O   ASP d   1      33.583  40.675  -1.133  0.00  0.00    -0.271 OA
ATOM     24  H38 ASP d   1      36.060  40.675  -3.045  0.00  0.00     0.163 HD
BRANCH  22  25
ATOM     25  CA  ASP d   1      35.284  42.354  -1.374  0.00  0.00     0.098 C 
ATOM     26  H35 ASP d   1      34.740  42.882  -0.577  0.00  0.00     0.088 H 
BRANCH  25  27
ATOM     27  N   ASP d   1      36.618  41.984  -0.922  0.00  0.00    -0.346 N 
ATOM     28  C   GLU d   1      36.877  41.432   0.269  0.00  0.00     0.241 C 
ATOM     29  O   GLU d   1      36.142  41.556   1.259  0.00  0.00    -0.271 OA
ATOM     30  H34 ASP d   1      37.387  42.153  -1.539  0.00  0.00     0.163 HD
BRANCH  28  31
ATOM     31  CA  GLU d   1      38.214  40.679   0.374  0.00  0.00     0.090 C 
ATOM     32  H29 GLU d   1      38.016  39.696   0.827  0.00  0.00     0.087 H 
BRANCH  31  33
ATOM     33  N   GLU d   1      38.834  40.449  -0.947  0.00  0.00    -0.346 N 
ATOM     34  C   GLU d   1      38.367  39.552  -1.821  0.00  0.00     0.241 C 
ATOM     35  O   GLU d   1      37.505  38.729  -1.529  0.00  0.00    -0.271 OA
ATOM     36  H28 GLU d   1      39.638  40.988  -1.198  0.00  0.00     0.163 HD
BRANCH  34  37
ATOM     37  CA  GLU d   1      38.955  39.583  -3.249  0.00  0.00     0.090 C 
ATOM     38  H23 GLU d   1      38.110  39.463  -3.943  0.00  0.00     0.087 H 
BRANCH  37  39
ATOM     39  N   GLU d   1      39.596  40.872  -3.589  0.00  0.00    -0.346 N 
ATOM     40  C   GLU d   1      39.075  41.729  -4.477  0.00  0.00     0.241 C 
ATOM     41  O   GLU d   1      38.121  41.437  -5.209  0.00  0.00    -0.271 OA
ATOM     42  H22 GLU d   1      40.455  41.114  -3.137  0.00  0.00     0.163 HD
BRANCH  40  43
ATOM     43  CA  GLU d   1      39.720  43.139  -4.556  0.00  0.00     0.090 C 
ATOM     44  H17 GLU d   1      38.908  43.849  -4.340  0.00  0.00     0.087 H 
BRANCH  43  45
ATOM     45  N   GLU d   1      40.737  43.363  -3.518  0.00  0.00    -0.346 N 
ATOM     46  C   LYS d   1      40.399  43.699  -2.271  0.00  0.00     0.248 C 
ATOM     47  O   LYS d   1      39.236  43.939  -1.927  0.00  0.00    -0.271 OA
ATOM     48  H16 GLU d   1      41.704  43.261  -3.752  0.00  0.00     0.163 HD
BRANCH  46  49
ATOM     49  CA  LYS d   1      41.540  43.766  -1.250  0.00  0.00     0.176 C 
ATOM     50  H4  LYS d   1      41.241  43.164  -0.379  0.00  0.00     0.099 H 
BRANCH  49  51
ATOM     51  N   LYS d   1      42.798  43.176  -1.798  0.00  0.00    -0.067 N 
ATOM     52  H1  LYS d   1      43.527  43.235  -1.104  0.00  0.00     0.275 HD
ATOM     53  H2  LYS d   1      43.077  43.685  -2.622  0.00  0.00     0.275 HD
ATOM     54  H3  LYS d   1      42.640  42.210  -2.037  0.00  0.00     0.275 HD
ENDBRANCH  49  51
BRANCH  49  55
ATOM     55  CB  LYS d   1      41.775  45.207  -0.763  0.00  0.00    -0.030 C 
ATOM     56  H5  LYS d   1      42.034  45.825  -1.635  0.00  0.00     0.036 H 
ATOM     57  H6  LYS d   1      42.619  45.196  -0.058  0.00  0.00     0.036 H 
BRANCH  55  58
ATOM     58  CG  LYS d   1      40.574  45.853  -0.060  0.00  0.00    -0.061 C 
ATOM     59  H7  LYS d   1      40.154  45.132   0.657  0.00  0.00     0.033 H 
ATOM     60  H8  LYS d   1      39.815  46.105  -0.815  0.00  0.00     0.033 H 
BRANCH  58  61
ATOM     61  CD  LYS d   1      40.959  47.121   0.689  0.00  0.00    -0.043 C 
ATOM     62  H9  LYS d   1      40.065  47.749   0.815  0.00  0.00     0.035 H 
ATOM     63  H10 LYS d   1      41.712  47.669   0.103  0.00  0.00     0.035 H 
BRANCH  61  64
ATOM     64  CE  LYS d   1      41.536  46.798   2.060  0.00  0.00     0.080 C 
ATOM     65  H11 LYS d   1      42.537  46.361   1.931  0.00  0.00     0.075 H 
ATOM     66  H12 LYS d   1      40.880  46.071   2.560  0.00  0.00     0.075 H 
BRANCH  64  67
ATOM     67  NZ  LYS d   1      41.647  48.005   2.909  0.00  0.00    -0.079 N 
ATOM     68  H13 LYS d   1      42.032  47.751   3.805  0.00  0.00     0.274 HD
ATOM     69  H14 LYS d   1      40.733  48.410   3.038  0.00  0.00     0.274 HD
ATOM     70  H15 LYS d   1      42.252  48.676   2.462  0.00  0.00     0.274 HD
ENDBRANCH  64  67
ENDBRANCH  61  64
ENDBRANCH  58  61
ENDBRANCH  55  58
ENDBRANCH  49  55
ENDBRANCH  46  49
ENDBRANCH  43  45
BRANCH  43  71
ATOM     71  CB  GLU d   1      40.235  43.506  -5.978  0.00  0.00    -0.029 C 
ATOM     72  H18 GLU d   1      40.892  44.382  -5.873  0.00  0.00     0.037 H 
ATOM     73  H19 GLU d   1      39.358  43.776  -6.585  0.00  0.00     0.037 H 
BRANCH  71  74
ATOM     74  CG  GLU d   1      41.017  42.438  -6.755  0.00  0.00     0.018 C 
ATOM     75  H20 GLU d   1      40.624  42.406  -7.782  0.00  0.00     0.049 H 
ATOM     76  H21 GLU d   1      40.848  41.467  -6.267  0.00  0.00     0.049 H 
BRANCH  74  77
ATOM     77  CD  GLU d   1      42.528  42.677  -6.830  0.00  0.00     0.172 C 
ATOM     78  OE1 GLU d   1      43.275  41.691  -7.036  0.00  0.00    -0.648 OA
ATOM     79  OE2 GLU d   1      42.981  43.839  -6.695  0.00  0.00    -0.648 OA
ENDBRANCH  74  77
ENDBRANCH  71  74
ENDBRANCH  43  71
ENDBRANCH  40  43
ENDBRANCH  37  39
BRANCH  37  80
ATOM     80  CB  GLU d   1      39.892  38.384  -3.472  0.00  0.00    -0.029 C 
ATOM     81  H24 GLU d   1      39.603  37.592  -2.765  0.00  0.00     0.037 H 
ATOM     82  H25 GLU d   1      40.919  38.712  -3.255  0.00  0.00     0.037 H 
BRANCH  80  83
ATOM     83  CG  GLU d   1      39.875  37.790  -4.875  0.00  0.00     0.018 C 
ATOM     84  H26 GLU d   1      38.978  38.152  -5.400  0.00  0.00     0.049 H 
ATOM     85  H27 GLU d   1      39.834  36.694  -4.793  0.00  0.00     0.049 H 
BRANCH  83  86
ATOM     86  CD  GLU d   1      41.102  38.172  -5.688  0.00  0.00     0.172 C 
ATOM     87  OE1 GLU d   1      42.086  37.393  -5.688  0.00  0.00    -0.648 OA
ATOM     88  OE2 GLU d   1      41.096  39.251  -6.320  0.00  0.00    -0.648 OA
ENDBRANCH  83  86
ENDBRANCH  80  83
ENDBRANCH  37  80
ENDBRANCH  34  37
ENDBRANCH  31  33
BRANCH  31  89
ATOM     89  CB  GLU d   1      39.164  41.448   1.293  0.00  0.00    -0.029 C 
ATOM     90  H30 GLU d   1      38.636  41.653   2.236  0.00  0.00     0.037 H 
ATOM     91  H31 GLU d   1      39.420  42.398   0.802  0.00  0.00     0.037 H 
BRANCH  89  92
ATOM     92  CG  GLU d   1      40.462  40.723   1.626  0.00  0.00     0.018 C 
ATOM     93  H32 GLU d   1      41.130  40.773   0.754  0.00  0.00     0.049 H 
ATOM     94  H33 GLU d   1      40.233  39.671   1.853  0.00  0.00     0.049 H 
BRANCH  92  95
ATOM     95  CD  GLU d   1      41.168  41.340   2.820  0.00  0.00     0.172 C 
ATOM     96  OE1 GLU d   1      40.491  41.564   3.854  0.00  0.00    -0.648 OA
ATOM     97  OE2 GLU d   1      42.394  41.597   2.726  0.00  0.00    -0.648 OA
ENDBRANCH  92  95
ENDBRANCH  89  92
ENDBRANCH  31  89
ENDBRANCH  28  31
ENDBRANCH  25  27
BRANCH  25  98
ATOM     98  CB  ASP d   1      35.358  43.233  -2.635  0.00  0.00     0.043 C 
ATOM     99  H36 ASP d   1      34.427  43.102  -3.207  0.00  0.00     0.052 H 
ATOM    100  H37 ASP d   1      36.212  42.899  -3.243  0.00  0.00     0.052 H 
BRANCH  98 101
ATOM    101  CG  ASP d   1      35.533  44.722  -2.329  0.00  0.00     0.175 C 
ATOM    102  OD1 ASP d   1      35.839  45.087  -1.163  0.00  0.00    -0.648 OA
ATOM    103  OD2 ASP d   1      35.389  45.604  -3.219  0.00  0.00    -0.648 OA
ENDBRANCH  98 101
ENDBRANCH  25  98
ENDBRANCH  22  25
ENDBRANCH  19  21
BRANCH  19 104
ATOM    104  CB  ASP d   1      35.520  38.697  -4.487  0.00  0.00     0.043 C 
ATOM    105  H40 ASP d   1      35.334  37.629  -4.674  0.00  0.00     0.052 H 
ATOM    106  H41 ASP d   1      36.564  38.837  -4.171  0.00  0.00     0.052 H 
BRANCH 104 107
ATOM    107  CG  ASP d   1      35.298  39.459  -5.775  0.00  0.00     0.175 C 
ATOM    108  OD1 ASP d   1      35.214  40.707  -5.722  0.00  0.00    -0.648 OA
ATOM    109  OD2 ASP d   1      35.201  38.884  -6.883  0.00  0.00    -0.648 OA
ENDBRANCH 104 107
ENDBRANCH  19 104
ENDBRANCH  16  19
ENDBRANCH  13  15
BRANCH  13 110
ATOM    110  CB  ASP d   1      36.208  36.447   0.185  0.00  0.00     0.043 C 
ATOM    111  H44 ASP d   1      36.065  35.871   1.111  0.00  0.00     0.052 H 
ATOM    112  H45 ASP d   1      36.848  37.318   0.390  0.00  0.00     0.052 H 
BRANCH 110 113
ATOM    113  CG  ASP d   1      36.917  35.546  -0.853  0.00  0.00     0.175 C 
ATOM    114  OD1 ASP d   1      36.297  35.157  -1.866  0.00  0.00    -0.648 OA
ATOM    115  OD2 ASP d   1      38.098  35.158  -0.732  0.00  0.00    -0.648 OA
ENDBRANCH 110 113
ENDBRANCH  13 110
ENDBRANCH  10  13
ENDBRANCH   7   9
BRANCH   7 116
ATOM    116  CB  MET d   1      33.777  40.376   3.042  0.00  0.00    -0.030 C 
ATOM    117  H48 MET d   1      33.726  41.118   2.232  0.00  0.00     0.037 H 
ATOM    118  H49 MET d   1      34.826  40.230   3.340  0.00  0.00     0.037 H 
BRANCH 116 119
ATOM    119  CG  MET d   1      33.014  40.954   4.262  0.00  0.00    -0.021 C 
ATOM    120  H50 MET d   1      31.949  41.003   3.993  0.00  0.00     0.049 H 
ATOM    121  H51 MET d   1      33.395  41.971   4.439  0.00  0.00     0.049 H 
BRANCH 119 122
ATOM    122  SD  MET d   1      33.141  40.036   5.844  0.00  0.00    -0.173 SA
BRANCH 122 123
ATOM    123  CE  MET d   1      34.575  38.971   5.599  0.00  0.00    -0.035 C 
ATOM    124  H52 MET d   1      34.742  38.368   6.503  0.00  0.00     0.041 H 
ATOM    125  H53 MET d   1      35.462  39.590   5.402  0.00  0.00     0.041 H 
ATOM    126  H54 MET d   1      34.395  38.305   4.742  0.00  0.00     0.041 H 
ENDBRANCH 122 123
ENDBRANCH 119 122
ENDBRANCH 116 119
ENDBRANCH   7 116
ENDBRANCH   4   7
ENDBRANCH   1   3
BRANCH   1 127
ATOM    127  C   LYS d   1      29.513  38.676  -0.031  0.00  0.00     0.241 C 
ATOM    128  O   LYS d   1      28.364  38.597   0.392  0.00  0.00    -0.271 OA
ATOM    129  N   GLU d   1      30.137  37.670  -0.632  0.00  0.00    -0.346 N 
ATOM    130  H68 GLU d   1      31.076  37.818  -0.942  0.00  0.00     0.163 HD
BRANCH 129 131
ATOM    131  CA  GLU d   1      29.537  36.364  -0.867  0.00  0.00     0.090 C 
ATOM    132  H69 GLU d   1      28.582  36.534  -1.387  0.00  0.00     0.087 H 
BRANCH 131 133
ATOM    133  C   GLU d   1      29.215  35.539   0.404  0.00  0.00     0.241 C 
ATOM    134  O   GLU d   1      28.657  34.450   0.297  0.00  0.00    -0.271 OA
ATOM    135  N   LEU d   1      29.583  36.028   1.590  0.00  0.00    -0.346 N 
ATOM    136  H74 LEU d   1      30.161  36.843   1.619  0.00  0.00     0.163 HD
BRANCH 135 137
ATOM    137  CA  LEU d   1      29.164  35.404   2.862  0.00  0.00     0.089 C 
ATOM    138  H75 LEU d   1      28.799  34.388   2.651  0.00  0.00     0.087 H 
BRANCH 137 139
ATOM    139  C   LEU d   1      28.049  36.230   3.486  0.00  0.00     0.241 C 
ATOM    140  O   LEU d   1      27.215  35.703   4.216  0.00  0.00    -0.271 OA
ATOM    141  N   GLU d   1      28.080  37.535   3.233  0.00  0.00    -0.346 N 
ATOM    142  H85 GLU d   1      28.891  37.910   2.784  0.00  0.00     0.163 HD
BRANCH 141 143
ATOM    143  CA  GLU d   1      26.993  38.451   3.576  0.00  0.00     0.090 C 
ATOM    144  H86 GLU d   1      26.722  38.298   4.631  0.00  0.00     0.087 H 
BRANCH 143 145
ATOM    145  C   GLU d   1      25.717  38.183   2.707  0.00  0.00     0.241 C 
ATOM    146  O   GLU d   1      24.593  38.570   3.077  0.00  0.00    -0.271 OA
ATOM    147  N   ASN d   1      25.915  37.521   1.562  0.00  0.00    -0.346 N 
ATOM    148  H91 ASN d   1      26.856  37.346   1.272  0.00  0.00     0.163 HD
BRANCH 147 149
ATOM    149  CA  ASN d   1      24.819  37.036   0.706  0.00  0.00     0.097 C 
ATOM    150  H92 ASN d   1      23.983  37.745   0.793  0.00  0.00     0.088 H 
BRANCH 149 151
ATOM    151  C   ASN d   1      24.331  35.656   1.127  0.00  0.00     0.241 C 
ATOM    152  O   ASN d   1      23.125  35.411   1.167  0.00  0.00    -0.271 OA
ATOM    153  N   TRP d   1      25.270  34.753   1.407  0.00  0.00    -0.346 N 
ATOM    154  H97 TRP d   1      26.224  34.963   1.194  0.00  0.00     0.163 HD
BRANCH 153 155
ATOM    155  CA  TRP d   1      24.947  33.464   2.016  0.00  0.00     0.093 C 
ATOM    156  H98 TRP d   1      24.356  32.858   1.314  0.00  0.00     0.088 H 
BRANCH 155 157
ATOM    157  C   TRP d   1      24.122  33.705   3.296  0.00  0.00     0.241 C 
ATOM    158  O   TRP d   1      23.109  33.029   3.524  0.00  0.00    -0.271 OA
ATOM    159  N   ALA d   1      24.553  34.690   4.098  0.00  0.00    -0.346 N 
ATOM    160 7H10 ALA d   1      25.383  35.180   3.832  0.00  0.00     0.163 HD
BRANCH 159 161
ATOM    161  CA  ALA d   1      23.884  35.097   5.343  0.00  0.00     0.086 C 
ATOM    162 8H10 ALA d   1      23.886  34.224   6.012  0.00  0.00     0.086 H 
BRANCH 161 163
ATOM    163  C   ALA d   1      22.420  35.519   5.150  0.00  0.00     0.240 C 
ATOM    164  O   ALA d   1      21.522  34.978   5.798  0.00  0.00    -0.271 OA
ATOM    165  N   GLY d   1      22.194  36.490   4.272  0.00  0.00    -0.351 N 
ATOM    166 2H11 GLY d   1      22.971  36.896   3.791  0.00  0.00     0.163 HD
BRANCH 165 167
ATOM    167  CA  GLY d   1      20.849  36.986   3.984  0.00  0.00     0.069 C 
ATOM    168 3H11 GLY d   1      20.949  37.872   3.340  0.00  0.00     0.078 H 
ATOM    169 4H11 GLY d   1      20.388  37.277   4.939  0.00  0.00     0.078 H 
BRANCH 167 170
ATOM    170  C   GLY d   1      19.903  36.011   3.289  0.00  0.00     0.236 C 
ATOM    171  O   GLY d   1      18.683  36.204   3.329  0.00  0.00    -0.272 OA
ATOM    172  N   SER d   1      20.457  34.972   2.659  0.00  0.00    -0.344 N 
ATOM    173 5H11 SER d   1      21.454  34.907   2.631  0.00  0.00     0.163 HD
BRANCH 172 174
ATOM    174  CA  SER d   1      19.666  33.919   2.005  0.00  0.00     0.109 C 
ATOM    175 6H11 SER d   1      18.755  34.376   1.591  0.00  0.00     0.090 H 
BRANCH 174 176
ATOM    176  C   SER d   1      19.257  32.810   2.987  0.00  0.00     0.243 C 
ATOM    177  O   SER d   1      19.039  31.653   2.588  0.00  0.00    -0.271 OA
ATOM    178  N   MET d   1      19.199  33.167   4.272  0.00  0.00    -0.345 N 
ATOM    179 0H12 MET d   1      19.498  34.088   4.522  0.00  0.00     0.163 HD
BRANCH 178 180
ATOM    180  CA  MET d   1      18.720  32.281   5.336  0.00  0.00     0.097 C 
ATOM    181 1H12 MET d   1      18.573  31.281   4.901  0.00  0.00     0.089 H 
BRANCH 180 182
ATOM    182  C   MET d   1      17.351  32.769   5.868  0.00  0.00     0.196 C 
ATOM    183  O   MET d   1      16.322  32.147   5.572  0.00  0.00    -0.646 OA
ATOM    184  OXT MET d   1      17.214  33.786   6.572  0.00  0.00    -0.646 OA
ENDBRANCH 180 182
BRANCH 180 185
ATOM    185  CB  MET d   1      19.761  32.148   6.464  0.00  0.00    -0.029 C 
ATOM    186 2H12 MET d   1      19.269  31.708   7.344  0.00  0.00     0.037 H 
ATOM    187 3H12 MET d   1      20.134  33.152   6.716  0.00  0.00     0.037 H 
BRANCH 185 188
ATOM    188  CG  MET d   1      20.949  31.271   6.084  0.00  0.00    -0.021 C 
ATOM    189 4H12 MET d   1      21.276  31.543   5.070  0.00  0.00     0.049 H 
ATOM    190 5H12 MET d   1      20.628  30.219   6.096  0.00  0.00     0.049 H 
BRANCH 188 191
ATOM    191  SD  MET d   1      22.344  31.460   7.209  0.00  0.00    -0.173 SA
BRANCH 191 192
ATOM    192  CE  MET d   1      23.573  30.408   6.455  0.00  0.00    -0.035 C 
ATOM    193 6H12 MET d   1      24.495  30.433   7.055  0.00  0.00     0.041 H 
ATOM    194 7H12 MET d   1      23.788  30.766   5.438  0.00  0.00     0.041 H 
ATOM    195 8H12 MET d   1      23.194  29.377   6.408  0.00  0.00     0.041 H 
ENDBRANCH 191 192
ENDBRANCH 188 191
ENDBRANCH 185 188
ENDBRANCH 180 185
ENDBRANCH 178 180
ENDBRANCH 174 176
BRANCH 174 196
ATOM    196  CB  SER d   1      20.469  33.296   0.871  0.00  0.00     0.044 C 
ATOM    197 7H11 SER d   1      21.018  34.086   0.338  0.00  0.00     0.077 H 
ATOM    198 8H11 SER d   1      19.784  32.791   0.174  0.00  0.00     0.077 H 
BRANCH 196 199
ATOM    199  OG  SER d   1      21.394  32.348   1.391  0.00  0.00    -0.398 OA
ATOM    200 9H11 SER d   1      21.987  32.783   1.992  0.00  0.00     0.209 HD
ENDBRANCH 196 199
ENDBRANCH 174 196
ENDBRANCH 172 174
ENDBRANCH 167 170
ENDBRANCH 165 167
ENDBRANCH 161 163
BRANCH 161 201
ATOM    201  CB  ALA d   1      24.674  36.226   6.037  0.00  0.00    -0.049 C 
ATOM    202 9H10 ALA d   1      24.159  36.517   6.965  0.00  0.00     0.030 H 
ATOM    203 0H11 ALA d   1      24.738  37.095   5.365  0.00  0.00     0.030 H 
ATOM    204 1H11 ALA d   1      25.688  35.871   6.276  0.00  0.00     0.030 H 
ENDBRANCH 161 201
ENDBRANCH 159 161
ENDBRANCH 155 157
BRANCH 155 205
ATOM    205  CB  TRP d   1      26.245  32.749   2.326  0.00  0.00    -0.012 C 
ATOM    206  H99 TRP d   1      26.604  33.136   3.291  0.00  0.00     0.044 H 
ATOM    207 0H10 TRP d   1      26.959  33.019   1.534  0.00  0.00     0.044 H 
BRANCH 205 208
ATOM    208  CG  TRP d   1      26.244  31.272   2.424  0.00  0.00    -0.028 A 
ATOM    209  CD1 TRP d   1      26.113  30.374   1.401  0.00  0.00    -0.015 A 
ATOM    210  NE1 TRP d   1      26.256  29.085   1.876  0.00  0.00    -0.365 N 
ATOM    211 1H10 TRP d   1      25.923  30.637   0.361  0.00  0.00     0.112 H 
ATOM    212  CE2 TRP d   1      26.495  29.131   3.229  0.00  0.00     0.042 A 
ATOM    213 2H10 TRP d   1      26.194  28.228   1.308  0.00  0.00     0.165 HD
ATOM    214  CD2 TRP d   1      26.507  30.498   3.608  0.00  0.00    -0.002 A 
ATOM    215  CZ2 TRP d   1      26.705  28.092   4.150  0.00  0.00    -0.056 A 
ATOM    216  CE3 TRP d   1      26.743  30.823   4.959  0.00  0.00    -0.070 A 
ATOM    217  CZ3 TRP d   1      26.959  29.794   5.877  0.00  0.00    -0.082 A 
ATOM    218 3H10 TRP d   1      26.757  31.858   5.281  0.00  0.00     0.084 H 
ATOM    219  CH2 TRP d   1      26.931  28.443   5.468  0.00  0.00    -0.081 A 
ATOM    220 5H10 TRP d   1      27.151  30.035   6.916  0.00  0.00     0.083 H 
ATOM    221 6H10 TRP d   1      27.090  27.663   6.204  0.00  0.00     0.083 H 
ATOM    222 4H10 TRP d   1      26.691  27.054   3.839  0.00  0.00     0.086 H 
ENDBRANCH 205 208
ENDBRANCH 155 205
ENDBRANCH 153 155
ENDBRANCH 149 151
BRANCH 149 223
ATOM    223  CB  ASN d   1      25.246  36.958  -0.764  0.00  0.00     0.036 C 
ATOM    224  H93 ASN d   1      24.489  36.384  -1.319  0.00  0.00     0.051 H 
ATOM    225  H94 ASN d   1      26.214  36.439  -0.821  0.00  0.00     0.051 H 
BRANCH 223 226
ATOM    226  CG  ASN d   1      25.388  38.313  -1.406  0.00  0.00     0.217 C 
ATOM    227  OD1 ASN d   1      25.026  39.350  -0.821  0.00  0.00    -0.274 OA
ATOM    228  ND2 ASN d   1      25.929  38.318  -2.622  0.00  0.00    -0.370 N 
ATOM    229  H95 ASN d   1      26.055  39.182  -3.110  0.00  0.00     0.159 HD
ATOM    230  H96 ASN d   1      26.210  37.458  -3.048  0.00  0.00     0.159 HD
ENDBRANCH 223 226
ENDBRANCH 149 223
ENDBRANCH 147 149
ENDBRANCH 143 145
BRANCH 143 231
ATOM    231  CB  GLU d   1      27.512  39.882   3.406  0.00  0.00    -0.029 C 
ATOM    232  H87 GLU d   1      27.772  40.019   2.346  0.00  0.00     0.037 H 
ATOM    233  H88 GLU d   1      28.418  39.983   4.021  0.00  0.00     0.037 H 
BRANCH 231 234
ATOM    234  CG  GLU d   1      26.565  41.002   3.795  0.00  0.00     0.018 C 
ATOM    235  H89 GLU d   1      26.415  40.983   4.885  0.00  0.00     0.049 H 
ATOM    236  H90 GLU d   1      25.600  40.848   3.289  0.00  0.00     0.049 H 
BRANCH 234 237
ATOM    237  CD  GLU d   1      27.124  42.360   3.395  0.00  0.00     0.172 C 
ATOM    238  OE1 GLU d   1      26.481  43.069   2.568  0.00  0.00    -0.648 OA
ATOM    239  OE2 GLU d   1      28.230  42.699   3.894  0.00  0.00    -0.648 OA
ENDBRANCH 234 237
ENDBRANCH 231 234
ENDBRANCH 143 231
ENDBRANCH 141 143
ENDBRANCH 137 139
BRANCH 137 240
ATOM    240  CB  LEU d   1      30.305  35.324   3.888  0.00  0.00    -0.035 C 
ATOM    241  H76 LEU d   1      29.842  34.896   4.790  0.00  0.00     0.037 H 
ATOM    242  H77 LEU d   1      30.584  36.371   4.080  0.00  0.00     0.037 H 
BRANCH 240 243
ATOM    243  CG  LEU d   1      31.632  34.588   3.745  0.00  0.00    -0.059 C 
ATOM    244  H78 LEU d   1      32.141  34.950   2.840  0.00  0.00     0.038 H 
BRANCH 243 245
ATOM    245  CD1 LEU d   1      32.467  34.948   4.969  0.00  0.00    -0.073 C 
ATOM    246  H79 LEU d   1      33.440  34.438   4.912  0.00  0.00     0.028 H 
ATOM    247  H80 LEU d   1      31.939  34.629   5.880  0.00  0.00     0.028 H 
ATOM    248  H81 LEU d   1      32.624  36.036   4.998  0.00  0.00     0.028 H 
ENDBRANCH 243 245
BRANCH 243 249
ATOM    249  CD2 LEU d   1      31.471  33.077   3.622  0.00  0.00    -0.073 C 
ATOM    250  H82 LEU d   1      30.866  32.844   2.733  0.00  0.00     0.028 H 
ATOM    251  H83 LEU d   1      30.969  32.688   4.520  0.00  0.00     0.028 H 
ATOM    252  H84 LEU d   1      32.462  32.609   3.524  0.00  0.00     0.028 H 
ENDBRANCH 243 249
ENDBRANCH 240 243
ENDBRANCH 137 240
ENDBRANCH 135 137
ENDBRANCH 131 133
BRANCH 131 253
ATOM    253  CB  GLU d   1      30.452  35.567  -1.798  0.00  0.00    -0.029 C 
ATOM    254  H70 GLU d   1      31.128  34.960  -1.177  0.00  0.00     0.037 H 
ATOM    255  H71 GLU d   1      31.042  36.281  -2.392  0.00  0.00     0.037 H 
BRANCH 253 256
ATOM    256  CG  GLU d   1      29.727  34.637  -2.758  0.00  0.00     0.018 C 
ATOM    257  H72 GLU d   1      30.308  34.575  -3.690  0.00  0.00     0.049 H 
ATOM    258  H73 GLU d   1      28.734  35.060  -2.972  0.00  0.00     0.049 H 
BRANCH 256 259
ATOM    259  CD  GLU d   1      29.545  33.226  -2.204  0.00  0.00     0.172 C 
ATOM    260  OE1 GLU d   1      28.390  32.716  -2.218  0.00  0.00    -0.648 OA
ATOM    261  OE2 GLU d   1      30.557  32.622  -1.757  0.00  0.00    -0.648 OA
ENDBRANCH 256 259
ENDBRANCH 253 256
ENDBRANCH 131 253
ENDBRANCH 129 131
ENDBRANCH   1 127
BRANCH   1 262
ATOM    262  CB  LYS d   1      30.480  40.700  -1.203  0.00  0.00    -0.038 C 
ATOM    263  H57 LYS d   1      29.543  40.562  -1.762  0.00  0.00     0.036 H 
ATOM    264  H58 LYS d   1      31.308  40.230  -1.754  0.00  0.00     0.036 H 
BRANCH 262 265
ATOM    265  CG  LYS d   1      30.763  42.210  -1.129  0.00  0.00    -0.061 C 
ATOM    266  H59 LYS d   1      31.700  42.374  -0.577  0.00  0.00     0.033 H 
ATOM    267  H60 LYS d   1      29.935  42.706  -0.602  0.00  0.00     0.033 H 
BRANCH 265 268
ATOM    268  CD  LYS d   1      30.896  42.814  -2.545  0.00  0.00    -0.043 C 
ATOM    269  H61 LYS d   1      29.888  42.992  -2.948  0.00  0.00     0.035 H 
ATOM    270  H62 LYS d   1      31.426  42.094  -3.187  0.00  0.00     0.035 H 
BRANCH 268 271
ATOM    271  CE  LYS d   1      31.675  44.150  -2.552  0.00  0.00     0.080 C 
ATOM    272  H63 LYS d   1      32.104  44.283  -3.556  0.00  0.00     0.075 H 
ATOM    273  H64 LYS d   1      32.487  44.069  -1.814  0.00  0.00     0.075 H 
BRANCH 271 274
ATOM    274  NZ  LYS d   1      30.883  45.383  -2.226  0.00  0.00    -0.079 N 
ATOM    275  H65 LYS d   1      31.487  46.189  -2.260  0.00  0.00     0.274 HD
ATOM    276  H66 LYS d   1      30.491  45.296  -1.302  0.00  0.00     0.274 HD
ATOM    277  H67 LYS d   1      30.139  45.492  -2.898  0.00  0.00     0.274 HD
ENDBRANCH 271 274
ENDBRANCH 268 271
ENDBRANCH 265 268
ENDBRANCH 262 265
ENDBRANCH   1 262
TORSDOF 86
