REMARK WARNING: 32 MAX_TORS EXCEEDED!!!
REMARK  59 active torsions:
REMARK  status: ('A' for Active; 'I' for Inactive)
REMARK    1  A    between atoms: N_1  and  CA_2 
REMARK    2  A    between atoms: CA_2  and  C_3 
REMARK    3  A    between atoms: CA_2  and  CB_5 
REMARK       I    between atoms: C_3  and  N_10 
REMARK    4  A    between atoms: CB_5  and  CG_6 
REMARK    5  A    between atoms: CG_6  and  CD_7 
REMARK    6  A    between atoms: N_10  and  CA_11 
REMARK    7  A    between atoms: CA_11  and  C_12 
REMARK    8  A    between atoms: CA_11  and  CB_14 
REMARK       I    between atoms: C_12  and  N_18 
REMARK    9  A    between atoms: CB_14  and  CG_15 
REMARK   10  A    between atoms: N_18  and  CA_19 
REMARK   11  A    between atoms: CA_19  and  C_20 
REMARK   12  A    between atoms: CA_19  and  CB_22 
REMARK       I    between atoms: C_20  and  N_26 
REMARK   13  A    between atoms: CB_22  and  CG_23 
REMARK   14  A    between atoms: N_26  and  CA_27 
REMARK   15  A    between atoms: CA_27  and  C_28 
REMARK   16  A    between atoms: CA_27  and  CB_30 
REMARK       I    between atoms: C_28  and  N_34 
REMARK   17  A    between atoms: CB_30  and  CG_31 
REMARK   18  A    between atoms: N_34  and  CA_35 
REMARK   19  A    between atoms: CA_35  and  C_36 
REMARK   20  A    between atoms: CA_35  and  CB_38 
REMARK       I    between atoms: C_36  and  N_42 
REMARK   21  A    between atoms: CB_38  and  CG1_39 
REMARK   22  A    between atoms: CB_38  and  CG2_40 
REMARK   23  A    between atoms: CG1_39  and  CD1_41 
REMARK   24  A    between atoms: N_42  and  CA_43 
REMARK   25  A    between atoms: CA_43  and  C_44 
REMARK   26  A    between atoms: CA_43  and  CB_46 
REMARK       I    between atoms: C_44  and  N_51 
REMARK   27  A    between atoms: CB_46  and  CG_47 
REMARK   28  A    between atoms: CG_47  and  CD_48 
REMARK   29  A    between atoms: CD_48  and  CE_49 
REMARK   30  A    between atoms: CE_49  and  NZ_50 
REMARK   31  A    between atoms: N_51  and  CA_52 
REMARK   32  A    between atoms: CA_52  and  C_53 
REMARK   33  A    between atoms: CA_52  and  CB_55 
REMARK       I    between atoms: C_53  and  N_60 
REMARK   34  A    between atoms: CB_55  and  CG_56 
REMARK   35  A    between atoms: CG_56  and  CD_57 
REMARK       I    between atoms: CD_57  and  NE2_59 
REMARK   36  A    between atoms: N_60  and  CA_61 
REMARK   37  A    between atoms: CA_61  and  C_62 
REMARK   38  A    between atoms: CA_61  and  CB_64 
REMARK       I    between atoms: C_62  and  N_68 
REMARK   39  A    between atoms: CB_64  and  CG_65 
REMARK   40  A    between atoms: CG_65  and  CD1_66 
REMARK   41  A    between atoms: CG_65  and  CD2_67 
REMARK   42  A    between atoms: N_68  and  CA_69 
REMARK   43  A    between atoms: CA_69  and  C_70 
REMARK   44  A    between atoms: CA_69  and  CB_72 
REMARK       I    between atoms: C_70  and  N_73 
REMARK   45  A    between atoms: N_73  and  CA_74 
REMARK   46  A    between atoms: CA_74  and  C_75 
REMARK   47  A    between atoms: CA_74  and  CB_77 
REMARK       I    between atoms: C_75  and  N_78 
REMARK   48  A    between atoms: N_78  and  CA_79 
REMARK   49  A    between atoms: CA_79  and  C_80 
REMARK   50  A    between atoms: CA_79  and  CB_82 
REMARK       I    between atoms: C_80  and  N_92 
REMARK   51  A    between atoms: CB_82  and  CG_83 
REMARK   52  A    between atoms: N_92  and  CA_93 
REMARK   53  A    between atoms: CA_93  and  C_94 
REMARK   54  A    between atoms: CA_93  and  CB_96 
REMARK       I    between atoms: C_94  and  N_97 
REMARK   55  A    between atoms: N_97  and  CA_98 
REMARK   56  A    between atoms: CA_98  and  C_99 
REMARK   57  A    between atoms: CA_98  and  CB_101 
REMARK   58  A    between atoms: CB_101  and  OG1_102 
REMARK   59  A    between atoms: CB_101  and  CG2_103 
ROOT
ATOM      1  CA  GLN d   1      28.785  38.308  -0.085  0.00  0.00     0.090 C 
ATOM      2  H46 GLN d   1      27.777  38.563  -0.444  0.00  0.00     0.087 H 
ENDROOT
BRANCH   1   3
ATOM      3  N   GLN d   1      29.300  39.488   0.614  0.00  0.00    -0.346 N 
ATOM      4  C   LYS d   1      28.521  40.259   1.369  0.00  0.00     0.241 C 
ATOM      5  O   LYS d   1      27.340  40.009   1.589  0.00  0.00    -0.271 OA
ATOM      6  H45 GLN d   1      30.268  39.722   0.521  0.00  0.00     0.163 HD
BRANCH   4   7
ATOM      7  CA  LYS d   1      29.169  41.501   1.990  0.00  0.00     0.089 C 
ATOM      8  H33 LYS d   1      28.535  41.813   2.833  0.00  0.00     0.087 H 
BRANCH   7   9
ATOM      9  N   LYS d   1      30.511  41.252   2.523  0.00  0.00    -0.346 N 
ATOM     10  C   ILE d   1      30.775  40.259   3.373  0.00  0.00     0.241 C 
ATOM     11  O   ILE d   1      29.913  39.501   3.812  0.00  0.00    -0.271 OA
ATOM     12  H32 LYS d   1      31.259  41.851   2.238  0.00  0.00     0.163 HD
BRANCH  10  13
ATOM     13  CA  ILE d   1      32.234  40.105   3.802  0.00  0.00     0.092 C 
ATOM     14  H22 ILE d   1      32.360  39.119   4.273  0.00  0.00     0.088 H 
BRANCH  13  15
ATOM     15  N   ILE d   1      33.125  40.179   2.638  0.00  0.00    -0.346 N 
ATOM     16  C   ASP d   1      33.111  39.299   1.632  0.00  0.00     0.241 C 
ATOM     17  O   ASP d   1      32.554  38.205   1.688  0.00  0.00    -0.271 OA
ATOM     18  H21 ILE d   1      33.781  40.932   2.595  0.00  0.00     0.163 HD
BRANCH  16  19
ATOM     19  CA  ASP d   1      33.836  39.725   0.349  0.00  0.00     0.098 C 
ATOM     20  H18 ASP d   1      33.271  39.298  -0.493  0.00  0.00     0.088 H 
BRANCH  19  21
ATOM     21  N   ASP d   1      33.830  41.176   0.178  0.00  0.00    -0.345 N 
ATOM     22  C   ASP d   1      32.821  41.792  -0.428  0.00  0.00     0.241 C 
ATOM     23  O   ASP d   1      31.901  41.180  -0.981  0.00  0.00    -0.271 OA
ATOM     24  H17 ASP d   1      34.599  41.715   0.523  0.00  0.00     0.163 HD
BRANCH  22  25
ATOM     25  CA  ASP d   1      32.852  43.323  -0.416  0.00  0.00     0.098 C 
ATOM     26  H14 ASP d   1      31.872  43.660  -0.046  0.00  0.00     0.088 H 
BRANCH  25  27
ATOM     27  N   ASP d   1      33.865  43.887   0.488  0.00  0.00    -0.345 N 
ATOM     28  C   ASP d   1      33.598  44.179   1.765  0.00  0.00     0.241 C 
ATOM     29  O   ASP d   1      32.517  43.930   2.301  0.00  0.00    -0.271 OA
ATOM     30  H13 ASP d   1      34.785  44.058   0.136  0.00  0.00     0.163 HD
BRANCH  28  31
ATOM     31  CA  ASP d   1      34.715  44.844   2.580  0.00  0.00     0.098 C 
ATOM     32  H10 ASP d   1      34.525  44.623   3.641  0.00  0.00     0.088 H 
BRANCH  31  33
ATOM     33  N   ASP d   1      36.052  44.325   2.259  0.00  0.00    -0.345 N 
ATOM     34  C   GLU d   1      36.345  43.023   2.294  0.00  0.00     0.249 C 
ATOM     35  O   GLU d   1      35.534  42.165   2.659  0.00  0.00    -0.271 OA
ATOM     36  H9  ASP d   1      36.770  44.972   2.004  0.00  0.00     0.163 HD
BRANCH  34  37
ATOM     37  CA  GLU d   1      37.760  42.609   1.854  0.00  0.00     0.176 C 
ATOM     38  H4  GLU d   1      38.224  42.070   2.693  0.00  0.00     0.099 H 
BRANCH  37  39
ATOM     39  N   GLU d   1      37.703  41.680   0.688  0.00  0.00    -0.066 N 
ATOM     40  H1  GLU d   1      38.639  41.422   0.417  0.00  0.00     0.275 HD
ATOM     41  H2  GLU d   1      37.244  42.138  -0.084  0.00  0.00     0.275 HD
ATOM     42  H3  GLU d   1      37.187  40.852   0.943  0.00  0.00     0.275 HD
ENDBRANCH  37  39
BRANCH  37  43
ATOM     43  CB  GLU d   1      38.647  43.827   1.534  0.00  0.00    -0.021 C 
ATOM     44  H5  GLU d   1      38.008  44.610   1.101  0.00  0.00     0.037 H 
ATOM     45  H6  GLU d   1      39.400  43.517   0.794  0.00  0.00     0.037 H 
BRANCH  43  46
ATOM     46  CG  GLU d   1      39.381  44.424   2.736  0.00  0.00     0.018 C 
ATOM     47  H7  GLU d   1      38.635  44.738   3.481  0.00  0.00     0.049 H 
ATOM     48  H8  GLU d   1      39.953  45.301   2.397  0.00  0.00     0.049 H 
BRANCH  46  49
ATOM     49  CD  GLU d   1      40.345  43.441   3.397  0.00  0.00     0.172 C 
ATOM     50  OE1 GLU d   1      41.474  43.255   2.879  0.00  0.00    -0.648 OA
ATOM     51  OE2 GLU d   1      39.974  42.858   4.447  0.00  0.00    -0.648 OA
ENDBRANCH  46  49
ENDBRANCH  43  46
ENDBRANCH  37  43
ENDBRANCH  34  37
ENDBRANCH  31  33
BRANCH  31  52
ATOM     52  CB  ASP d   1      34.661  46.374   2.399  0.00  0.00     0.043 C 
ATOM     53  H11 ASP d   1      34.648  46.600   1.323  0.00  0.00     0.052 H 
ATOM     54  H12 ASP d   1      35.561  46.813   2.855  0.00  0.00     0.052 H 
BRANCH  52  55
ATOM     55  CG  ASP d   1      33.427  47.008   3.046  0.00  0.00     0.175 C 
ATOM     56  OD1 ASP d   1      32.679  46.304   3.761  0.00  0.00    -0.648 OA
ATOM     57  OD2 ASP d   1      33.128  48.214   2.899  0.00  0.00    -0.648 OA
ENDBRANCH  52  55
ENDBRANCH  31  52
ENDBRANCH  28  31
ENDBRANCH  25  27
BRANCH  25  58
ATOM     58  CB  ASP d   1      33.019  43.871  -1.841  0.00  0.00     0.043 C 
ATOM     59  H15 ASP d   1      33.717  43.221  -2.389  0.00  0.00     0.052 H 
ATOM     60  H16 ASP d   1      33.435  44.888  -1.782  0.00  0.00     0.052 H 
BRANCH  58  61
ATOM     61  CG  ASP d   1      31.702  43.926  -2.603  0.00  0.00     0.175 C 
ATOM     62  OD1 ASP d   1      31.149  45.045  -2.728  0.00  0.00    -0.648 OA
ATOM     63  OD2 ASP d   1      31.140  42.911  -3.095  0.00  0.00    -0.648 OA
ENDBRANCH  58  61
ENDBRANCH  25  58
ENDBRANCH  22  25
ENDBRANCH  19  21
BRANCH  19  64
ATOM     64  CB  ASP d   1      35.256  39.164   0.263  0.00  0.00     0.043 C 
ATOM     65  H19 ASP d   1      35.275  38.173   0.740  0.00  0.00     0.052 H 
ATOM     66  H20 ASP d   1      35.938  39.841   0.798  0.00  0.00     0.052 H 
BRANCH  64  67
ATOM     67  CG  ASP d   1      35.730  39.026  -1.172  0.00  0.00     0.175 C 
ATOM     68  OD1 ASP d   1      36.203  40.030  -1.758  0.00  0.00    -0.648 OA
ATOM     69  OD2 ASP d   1      35.658  37.945  -1.799  0.00  0.00    -0.648 OA
ENDBRANCH  64  67
ENDBRANCH  19  64
ENDBRANCH  16  19
ENDBRANCH  13  15
BRANCH  13  70
ATOM     70  CB  ILE d   1      32.588  41.201   4.844  0.00  0.00    -0.030 C 
ATOM     71  H23 ILE d   1      33.055  42.044   4.314  0.00  0.00     0.043 H 
BRANCH  70  72
ATOM     72  CG1 ILE d   1      33.572  40.666   5.881  0.00  0.00    -0.063 C 
ATOM     73  H24 ILE d   1      34.525  40.445   5.378  0.00  0.00     0.033 H 
ATOM     74  H25 ILE d   1      33.160  39.740   6.309  0.00  0.00     0.033 H 
BRANCH  72  75
ATOM     75  CD1 ILE d   1      33.843  41.656   7.026  0.00  0.00    -0.076 C 
ATOM     76  H29 ILE d   1      34.557  41.211   7.735  0.00  0.00     0.027 H 
ATOM     77  H30 ILE d   1      32.901  41.881   7.547  0.00  0.00     0.027 H 
ATOM     78  H31 ILE d   1      34.266  42.585   6.615  0.00  0.00     0.027 H 
ENDBRANCH  72  75
ENDBRANCH  70  72
BRANCH  70  79
ATOM     79  CG2 ILE d   1      31.335  41.708   5.568  0.00  0.00    -0.071 C 
ATOM     80  H26 ILE d   1      30.617  42.097   4.830  0.00  0.00     0.028 H 
ATOM     81  H27 ILE d   1      31.614  42.511   6.266  0.00  0.00     0.028 H 
ATOM     82  H28 ILE d   1      30.874  40.880   6.127  0.00  0.00     0.028 H 
ENDBRANCH  70  79
ENDBRANCH  13  70
ENDBRANCH  10  13
ENDBRANCH   7   9
BRANCH   7  83
ATOM     83  CB  LYS d   1      29.203  42.647   0.978  0.00  0.00    -0.038 C 
ATOM     84  H34 LYS d   1      28.245  42.659   0.438  0.00  0.00     0.036 H 
ATOM     85  H35 LYS d   1      30.022  42.457   0.269  0.00  0.00     0.036 H 
BRANCH  83  86
ATOM     86  CG  LYS d   1      29.419  44.025   1.602  0.00  0.00    -0.061 C 
ATOM     87  H36 LYS d   1      30.408  44.051   2.083  0.00  0.00     0.033 H 
ATOM     88  H37 LYS d   1      28.639  44.204   2.357  0.00  0.00     0.033 H 
BRANCH  86  89
ATOM     89  CD  LYS d   1      29.351  45.117   0.550  0.00  0.00    -0.043 C 
ATOM     90  H38 LYS d   1      28.494  44.922  -0.111  0.00  0.00     0.035 H 
ATOM     91  H39 LYS d   1      30.280  45.102  -0.039  0.00  0.00     0.035 H 
BRANCH  89  92
ATOM     92  CE  LYS d   1      29.186  46.501   1.179  0.00  0.00     0.080 C 
ATOM     93  H40 LYS d   1      30.175  46.891   1.462  0.00  0.00     0.075 H 
ATOM     94  H41 LYS d   1      28.554  46.419   2.076  0.00  0.00     0.075 H 
BRANCH  92  95
ATOM     95  NZ  LYS d   1      28.547  47.437   0.212  0.00  0.00    -0.079 N 
ATOM     96  H42 LYS d   1      28.445  48.344   0.640  0.00  0.00     0.274 HD
ATOM     97  H43 LYS d   1      27.639  47.084  -0.048  0.00  0.00     0.274 HD
ATOM     98  H44 LYS d   1      29.125  47.517  -0.610  0.00  0.00     0.274 HD
ENDBRANCH  92  95
ENDBRANCH  89  92
ENDBRANCH  86  89
ENDBRANCH  83  86
ENDBRANCH   7  83
ENDBRANCH   4   7
ENDBRANCH   1   3
BRANCH   1  99
ATOM     99  C   GLN d   1      28.649  37.086   0.815  0.00  0.00     0.241 C 
ATOM    100  O   GLN d   1      27.764  36.248   0.603  0.00  0.00    -0.271 OA
ATOM    101  N   LEU d   1      29.547  36.962   1.790  0.00  0.00    -0.346 N 
ATOM    102  H53 LEU d   1      30.359  37.545   1.779  0.00  0.00     0.163 HD
BRANCH 101 103
ATOM    103  CA  LEU d   1      29.380  35.996   2.879  0.00  0.00     0.089 C 
ATOM    104  H54 LEU d   1      29.354  34.982   2.453  0.00  0.00     0.087 H 
BRANCH 103 105
ATOM    105  C   LEU d   1      28.089  36.257   3.637  0.00  0.00     0.241 C 
ATOM    106  O   LEU d   1      27.315  35.338   3.880  0.00  0.00    -0.271 OA
ATOM    107  N   ALA d   1      27.887  37.516   4.020  0.00  0.00    -0.346 N 
ATOM    108  H64 ALA d   1      28.571  38.203   3.773  0.00  0.00     0.163 HD
BRANCH 107 109
ATOM    109  CA  ALA d   1      26.728  37.940   4.775  0.00  0.00     0.086 C 
ATOM    110  H65 ALA d   1      26.701  37.368   5.714  0.00  0.00     0.086 H 
BRANCH 109 111
ATOM    111  C   ALA d   1      25.432  37.670   4.016  0.00  0.00     0.240 C 
ATOM    112  O   ALA d   1      24.429  37.247   4.606  0.00  0.00    -0.271 OA
ATOM    113  N   ALA d   1      25.457  37.918   2.709  0.00  0.00    -0.346 N 
ATOM    114  H69 ALA d   1      26.311  38.219   2.285  0.00  0.00     0.163 HD
BRANCH 113 115
ATOM    115  CA  ALA d   1      24.270  37.762   1.881  0.00  0.00     0.086 C 
ATOM    116  H70 ALA d   1      23.410  38.112   2.470  0.00  0.00     0.086 H 
BRANCH 115 117
ATOM    117  C   ALA d   1      24.016  36.290   1.539  0.00  0.00     0.240 C 
ATOM    118  O   ALA d   1      22.871  35.905   1.314  0.00  0.00    -0.271 OA
ATOM    119  N   TRP d   1      25.068  35.465   1.544  0.00  0.00    -0.346 N 
ATOM    120  H74 TRP d   1      25.987  35.849   1.630  0.00  0.00     0.163 HD
BRANCH 119 121
ATOM    121  CA  TRP d   1      24.910  34.002   1.426  0.00  0.00     0.093 C 
ATOM    122  H75 TRP d   1      24.381  33.790   0.485  0.00  0.00     0.088 H 
BRANCH 121 123
ATOM    123  C   TRP d   1      24.094  33.414   2.576  0.00  0.00     0.241 C 
ATOM    124  O   TRP d   1      23.491  32.350   2.433  0.00  0.00    -0.271 OA
ATOM    125  N   ALA d   1      24.090  34.106   3.714  0.00  0.00    -0.346 N 
ATOM    126  H84 ALA d   1      24.508  35.014   3.728  0.00  0.00     0.163 HD
BRANCH 125 127
ATOM    127  CA  ALA d   1      23.496  33.584   4.942  0.00  0.00     0.086 C 
ATOM    128  H85 ALA d   1      23.713  32.507   4.993  0.00  0.00     0.086 H 
BRANCH 127 129
ATOM    129  C   ALA d   1      21.995  33.762   4.957  0.00  0.00     0.240 C 
ATOM    130  O   ALA d   1      21.304  33.055   5.691  0.00  0.00    -0.271 OA
ATOM    131  N   THR d   1      21.510  34.728   4.168  0.00  0.00    -0.343 N 
ATOM    132  H89 THR d   1      22.159  35.358   3.742  0.00  0.00     0.163 HD
BRANCH 131 133
ATOM    133  CA  THR d   1      20.078  34.916   3.892  0.00  0.00     0.120 C 
ATOM    134  H90 THR d   1      19.562  35.062   4.852  0.00  0.00     0.093 H 
BRANCH 133 135
ATOM    135  C   THR d   1      19.453  33.683   3.198  0.00  0.00     0.199 C 
ATOM    136  O   THR d   1      18.538  33.046   3.729  0.00  0.00    -0.646 OA
ATOM    137  OXT THR d   1      19.839  33.271   2.098  0.00  0.00    -0.646 OA
ENDBRANCH 133 135
BRANCH 133 138
ATOM    138  CB  THR d   1      19.872  36.187   3.028  0.00  0.00     0.061 C 
ATOM    139  H91 THR d   1      20.245  36.010   2.009  0.00  0.00     0.086 H 
BRANCH 138 140
ATOM    140  OG1 THR d   1      20.538  37.300   3.643  0.00  0.00    -0.393 OA
ATOM    141  H92 THR d   1      20.410  38.077   3.112  0.00  0.00     0.210 HD
ENDBRANCH 138 140
BRANCH 138 142
ATOM    142  CG2 THR d   1      18.398  36.614   3.008  0.00  0.00    -0.050 C 
ATOM    143  H93 THR d   1      18.286  37.516   2.388  0.00  0.00     0.031 H 
ATOM    144  H94 THR d   1      18.065  36.830   4.034  0.00  0.00     0.031 H 
ATOM    145  H95 THR d   1      17.787  35.802   2.587  0.00  0.00     0.031 H 
ENDBRANCH 138 142
ENDBRANCH 133 138
ENDBRANCH 131 133
ENDBRANCH 127 129
BRANCH 127 146
ATOM    146  CB  ALA d   1      24.113  34.254   6.158  0.00  0.00    -0.049 C 
ATOM    147  H86 ALA d   1      23.654  33.849   7.072  0.00  0.00     0.030 H 
ATOM    148  H87 ALA d   1      23.936  35.339   6.108  0.00  0.00     0.030 H 
ATOM    149  H88 ALA d   1      25.195  34.059   6.174  0.00  0.00     0.030 H 
ENDBRANCH 127 146
ENDBRANCH 125 127
ENDBRANCH 121 123
BRANCH 121 150
ATOM    150  CB  TRP d   1      26.281  33.328   1.378  0.00  0.00    -0.012 C 
ATOM    151  H76 TRP d   1      26.918  33.825   2.125  0.00  0.00     0.044 H 
ATOM    152  H77 TRP d   1      26.695  33.496   0.373  0.00  0.00     0.044 H 
BRANCH 150 153
ATOM    153  CG  TRP d   1      26.343  31.830   1.651  0.00  0.00    -0.028 A 
ATOM    154  CD1 TRP d   1      26.253  30.825   0.730  0.00  0.00    -0.015 A 
ATOM    155  NE1 TRP d   1      26.406  29.598   1.337  0.00  0.00    -0.365 N 
ATOM    156  H78 TRP d   1      26.084  30.973  -0.336  0.00  0.00     0.112 H 
ATOM    157  CE2 TRP d   1      26.617  29.791   2.680  0.00  0.00     0.042 A 
ATOM    158  H79 TRP d   1      26.368  28.685   0.861  0.00  0.00     0.165 HD
ATOM    159  CD2 TRP d   1      26.601  31.186   2.913  0.00  0.00    -0.002 A 
ATOM    160  CZ2 TRP d   1      26.826  28.858   3.707  0.00  0.00    -0.056 A 
ATOM    161  CE3 TRP d   1      26.792  31.647   4.229  0.00  0.00    -0.070 A 
ATOM    162  CZ3 TRP d   1      26.996  30.722   5.247  0.00  0.00    -0.082 A 
ATOM    163  H80 TRP d   1      26.780  32.709   4.446  0.00  0.00     0.084 H 
ATOM    164  CH2 TRP d   1      27.016  29.342   4.978  0.00  0.00    -0.081 A 
ATOM    165  H82 TRP d   1      27.142  31.070   6.263  0.00  0.00     0.083 H 
ATOM    166  H83 TRP d   1      27.185  28.645   5.791  0.00  0.00     0.083 H 
ATOM    167  H81 TRP d   1      26.837  27.793   3.504  0.00  0.00     0.086 H 
ENDBRANCH 150 153
ENDBRANCH 121 150
ENDBRANCH 119 121
ENDBRANCH 115 117
BRANCH 115 168
ATOM    168  CB  ALA d   1      24.350  38.642   0.628  0.00  0.00    -0.049 C 
ATOM    169  H71 ALA d   1      23.441  38.503   0.024  0.00  0.00     0.030 H 
ATOM    170  H72 ALA d   1      25.232  38.357   0.035  0.00  0.00     0.030 H 
ATOM    171  H73 ALA d   1      24.434  39.697   0.926  0.00  0.00     0.030 H 
ENDBRANCH 115 168
ENDBRANCH 113 115
ENDBRANCH 109 111
BRANCH 109 172
ATOM    172  CB  ALA d   1      26.840  39.435   5.117  0.00  0.00    -0.049 C 
ATOM    173  H66 ALA d   1      25.955  39.747   5.691  0.00  0.00     0.030 H 
ATOM    174  H67 ALA d   1      26.900  40.020   4.188  0.00  0.00     0.030 H 
ATOM    175  H68 ALA d   1      27.745  39.607   5.718  0.00  0.00     0.030 H 
ENDBRANCH 109 172
ENDBRANCH 107 109
ENDBRANCH 103 105
BRANCH 103 176
ATOM    176  CB  LEU d   1      30.536  36.098   3.874  0.00  0.00    -0.035 C 
ATOM    177  H55 LEU d   1      30.084  36.109   4.877  0.00  0.00     0.037 H 
ATOM    178  H56 LEU d   1      31.028  37.063   3.683  0.00  0.00     0.037 H 
BRANCH 176 179
ATOM    179  CG  LEU d   1      31.639  35.051   3.909  0.00  0.00    -0.059 C 
ATOM    180  H57 LEU d   1      32.226  35.122   2.981  0.00  0.00     0.038 H 
BRANCH 179 181
ATOM    181  CD1 LEU d   1      32.559  35.364   5.096  0.00  0.00    -0.073 C 
ATOM    182  H58 LEU d   1      33.366  34.618   5.141  0.00  0.00     0.028 H 
ATOM    183  H59 LEU d   1      31.977  35.332   6.029  0.00  0.00     0.028 H 
ATOM    184  H60 LEU d   1      32.993  36.367   4.969  0.00  0.00     0.028 H 
ENDBRANCH 179 181
BRANCH 179 185
ATOM    185  CD2 LEU d   1      31.060  33.651   3.993  0.00  0.00    -0.073 C 
ATOM    186  H61 LEU d   1      30.409  33.471   3.125  0.00  0.00     0.028 H 
ATOM    187  H62 LEU d   1      30.473  33.552   4.918  0.00  0.00     0.028 H 
ATOM    188  H63 LEU d   1      31.878  32.916   3.997  0.00  0.00     0.028 H 
ENDBRANCH 179 185
ENDBRANCH 176 179
ENDBRANCH 103 176
ENDBRANCH 101 103
ENDBRANCH   1  99
BRANCH   1 189
ATOM    189  CB  GLN d   1      29.638  37.957  -1.309  0.00  0.00    -0.030 C 
ATOM    190  H47 GLN d   1      29.176  37.092  -1.807  0.00  0.00     0.037 H 
ATOM    191  H48 GLN d   1      30.642  37.682  -0.955  0.00  0.00     0.037 H 
BRANCH 189 192
ATOM    192  CG  GLN d   1      29.794  39.083  -2.357  0.00  0.00     0.011 C 
ATOM    193  H49 GLN d   1      30.268  38.653  -3.251  0.00  0.00     0.047 H 
ATOM    194  H50 GLN d   1      30.449  39.857  -1.931  0.00  0.00     0.047 H 
BRANCH 192 195
ATOM    195  CD  GLN d   1      28.479  39.758  -2.792  0.00  0.00     0.215 C 
ATOM    196  OE1 GLN d   1      27.438  39.101  -2.967  0.00  0.00    -0.274 OA
ATOM    197  NE2 GLN d   1      28.542  41.072  -2.990  0.00  0.00    -0.370 N 
ATOM    198  H51 GLN d   1      27.725  41.575  -3.274  0.00  0.00     0.159 HD
ATOM    199  H52 GLN d   1      29.406  41.557  -2.855  0.00  0.00     0.159 HD
ENDBRANCH 192 195
ENDBRANCH 189 192
ENDBRANCH   1 189
TORSDOF 59
