REMARK  9 active torsions:
REMARK  status: ('A' for Active; 'I' for Inactive)
REMARK    1  A    between atoms: C1_1  and  C2_2 
REMARK    2  A    between atoms: C1_1  and  C8_7 
REMARK    3  A    between atoms: C1_1  and  C33_16 
REMARK    4  A    between atoms: C2_2  and  C3_3 
REMARK    5  A    between atoms: C2_2  and  N6_6 
REMARK       I    between atoms: C3_3  and  N4_4 
REMARK    6  A    between atoms: C8_7  and  C23_13 
REMARK    7  A    between atoms: C36_18  and  C39_21 
REMARK    8  A    between atoms: C42_24  and  S49_28 
REMARK    9  A    between atoms: S49_28  and  C52_31 
ROOT
ATOM      1  C1  315 d   1      39.594  51.500  35.888  0.00  0.00     0.049 C 
ATOM      2  H1  315 d   1      39.263  52.361  36.488  0.00  0.00     0.057 H 
ENDROOT
BRANCH   1   3
ATOM      3  C2  315 d   1      38.365  51.041  34.997  0.00  0.00     0.186 C 
ATOM      4  H2  315 d   1      38.559  50.017  34.645  0.00  0.00     0.100 H 
BRANCH   3   5
ATOM      5  C3  315 d   1      36.997  51.021  35.794  0.00  0.00     0.251 C 
ATOM      6  N4  315 d   1      36.185  49.941  35.616  0.00  0.00    -0.348 N 
ATOM      7  C11 315 d   1      36.586  48.600  35.176  0.00  0.00     0.026 C 
ATOM      8  C14 315 d   1      34.753  50.041  35.849  0.00  0.00     0.000 C 
ATOM      9  C12 315 d   1      35.399  47.712  35.432  0.00  0.00     0.096 C 
ATOM     10  H8  315 d   1      37.456  48.252  35.752  0.00  0.00     0.068 H 
ATOM     11  H9  315 d   1      36.835  48.607  34.105  0.00  0.00     0.068 H 
ATOM     12  C13 315 d   1      34.216  48.643  35.518  0.00  0.00    -0.020 C 
ATOM     13  F21 315 d   1      35.555  47.085  36.658  0.00  0.00    -0.248 F 
ATOM     14  H10 315 d   1      35.272  46.971  34.629  0.00  0.00     0.094 H 
ATOM     15  H11 315 d   1      33.530  48.307  36.310  0.00  0.00     0.039 H 
ATOM     16  H12 315 d   1      33.683  48.663  34.556  0.00  0.00     0.039 H 
ATOM     17  H13 315 d   1      34.303  50.797  35.189  0.00  0.00     0.064 H 
ATOM     18  H14 315 d   1      34.546  50.299  36.898  0.00  0.00     0.064 H 
ATOM     19  O5  315 d   1      36.683  51.993  36.499  0.00  0.00    -0.271 OA
ENDBRANCH   3   5
BRANCH   3  20
ATOM     20  N6  315 d   1      38.307  51.739  34.081  0.00  0.00    -0.066 N 
ATOM     21  H3  315 d   1      37.531  51.465  33.499  0.00  0.00     0.275 HD
ATOM     22  H4  315 d   1      39.163  51.672  33.553  0.00  0.00     0.275 HD
ATOM     23  H5  315 d   1      38.176  52.689  34.391  0.00  0.00     0.275 HD
ENDBRANCH   3  20
ENDBRANCH   1   3
BRANCH   1  24
ATOM     24  C8  315 d   1      40.845  51.930  35.060  0.00  0.00    -0.049 C 
ATOM     25  H6  315 d   1      40.516  52.156  34.035  0.00  0.00     0.034 H 
ATOM     26  H7  315 d   1      41.550  51.086  35.041  0.00  0.00     0.034 H 
BRANCH  24  27
ATOM     27  C23 315 d   1      41.605  53.191  35.621  0.00  0.00    -0.053 A 
ATOM     28  C26 315 d   1      42.851  52.695  36.301  0.00  0.00    -0.061 A 
ATOM     29  C27 315 d   1      41.785  53.476  37.037  0.00  0.00    -0.061 A 
ATOM     30  H16 315 d   1      43.825  53.155  36.081  0.00  0.00     0.033 H 
ATOM     31  H17 315 d   1      42.988  51.621  36.496  0.00  0.00     0.033 H 
ATOM     32  H18 315 d   1      41.152  52.971  37.782  0.00  0.00     0.033 H 
ATOM     33  H19 315 d   1      41.990  54.505  37.367  0.00  0.00     0.033 H 
ATOM     34  H15 315 d   1      41.578  54.029  34.909  0.00  0.00     0.040 H 
ENDBRANCH  24  27
ENDBRANCH   1  24
BRANCH   1  35
ATOM     35  C33 315 d   1      40.074  50.324  36.886  0.00  0.00     0.179 A 
ATOM     36  N35 315 d   1      40.159  50.378  38.188  0.00  0.00    -0.203 NA
ATOM     37  C36 315 d   1      40.614  49.130  38.461  0.00  0.00     0.192 A 
ATOM     38  N37 315 d   1      40.771  48.409  37.326  0.00  0.00    -0.105 NA
ATOM     39  O38 315 d   1      40.425  49.176  36.288  0.00  0.00    -0.195 OA
BRANCH  37  40
ATOM     40  C39 315 d   1      40.877  48.542  39.814  0.00  0.00     0.053 A 
ATOM     41  C40 315 d   1      40.055  48.990  40.890  0.00  0.00    -0.065 A 
ATOM     42  C41 315 d   1      40.200  48.460  42.180  0.00  0.00    -0.061 A 
ATOM     43  H20 315 d   1      39.306  49.752  40.708  0.00  0.00     0.085 H 
ATOM     44  C42 315 d   1      41.177  47.473  42.445  0.00  0.00     0.061 A 
ATOM     45  H21 315 d   1      39.558  48.810  42.980  0.00  0.00     0.085 H 
ATOM     46  C43 315 d   1      42.026  47.010  41.413  0.00  0.00    -0.024 A 
ATOM     47  C44 315 d   1      41.881  47.543  40.116  0.00  0.00     0.132 A 
ATOM     48  H22 315 d   1      42.778  46.256  41.617  0.00  0.00     0.090 H 
ATOM     49  F48 315 d   1      42.716  47.035  39.192  0.00  0.00    -0.205 F 
BRANCH  44  50
ATOM     50  S49 315 d   1      41.325  46.772  44.074  0.00  0.00     0.172 S 
ATOM     51  O50 315 d   1      41.588  45.370  43.911  0.00  0.00    -0.223 OA
ATOM     52  O51 315 d   1      40.113  47.113  44.797  0.00  0.00    -0.223 OA
BRANCH  50  53
ATOM     53  C52 315 d   1      42.744  47.607  44.784  0.00  0.00     0.020 C 
ATOM     54  H23 315 d   1      42.916  47.234  45.805  0.00  0.00     0.049 H 
ATOM     55  H24 315 d   1      42.554  48.690  44.816  0.00  0.00     0.049 H 
ATOM     56  H25 315 d   1      43.633  47.409  44.167  0.00  0.00     0.049 H 
ENDBRANCH  50  53
ENDBRANCH  44  50
ENDBRANCH  37  40
ENDBRANCH   1  35
TORSDOF 9
