REMARK  9 active torsions:
REMARK  status: ('A' for Active; 'I' for Inactive)
REMARK    1  A    between atoms: C1_1  and  C2_2 
REMARK    2  A    between atoms: C1_1  and  C7_7 
REMARK    3  A    between atoms: C1_1  and  C26_15 
REMARK    4  A    between atoms: C2_2  and  C3_3 
REMARK    5  A    between atoms: C2_2  and  N6_6 
REMARK    6  A    between atoms: C7_7  and  C18_12 
REMARK    7  A    between atoms: C28_17  and  C31_20 
REMARK    8  A    between atoms: C34_23  and  S40_26 
REMARK    9  A    between atoms: S40_26  and  C43_29 
ROOT
ATOM      1  C1  317 d   1      39.654  51.268  36.004  0.00  0.00     0.047 C 
ATOM      2  H1  317 d   1      39.334  52.096  36.653  0.00  0.00     0.056 H 
ENDROOT
BRANCH   1   3
ATOM      3  C2  317 d   1      38.442  50.823  35.080  0.00  0.00     0.161 C 
ATOM      4  H2  317 d   1      38.675  49.828  34.672  0.00  0.00     0.096 H 
BRANCH   3   5
ATOM      5  C3  317 d   1      37.094  50.742  35.786  0.00  0.00     0.127 C 
ATOM      6  C4  317 d   1      36.272  49.664  35.761  0.00  0.00    -0.043 C 
ATOM      7  C8  317 d   1      34.917  49.604  36.453  0.00  0.00    -0.042 C 
ATOM      8  C11 317 d   1      36.485  48.329  35.079  0.00  0.00    -0.042 C 
ATOM      9  C9  317 d   1      34.183  48.359  35.934  0.00  0.00    -0.061 C 
ATOM     10  H8  317 d   1      34.335  50.507  36.217  0.00  0.00     0.039 H 
ATOM     11  H9  317 d   1      35.055  49.531  37.542  0.00  0.00     0.039 H 
ATOM     12  C10 317 d   1      35.109  47.680  34.922  0.00  0.00    -0.061 C 
ATOM     13  H10 317 d   1      33.241  48.652  35.447  0.00  0.00     0.033 H 
ATOM     14  H11 317 d   1      33.967  47.674  36.767  0.00  0.00     0.033 H 
ATOM     15  H12 317 d   1      34.732  47.834  33.900  0.00  0.00     0.033 H 
ATOM     16  H13 317 d   1      35.173  46.602  35.131  0.00  0.00     0.033 H 
ATOM     17  H14 317 d   1      37.135  47.690  35.695  0.00  0.00     0.039 H 
ATOM     18  H15 317 d   1      36.946  48.479  34.092  0.00  0.00     0.039 H 
ATOM     19  F5  317 d   1      36.695  51.818  36.472  0.00  0.00    -0.208 F 
ENDBRANCH   3   5
BRANCH   3  20
ATOM     20  N6  317 d   1      38.314  51.775  33.988  0.00  0.00    -0.068 N 
ATOM     21  H3  317 d   1      37.547  51.503  33.393  0.00  0.00     0.275 HD
ATOM     22  H4  317 d   1      39.167  51.787  33.451  0.00  0.00     0.275 HD
ATOM     23  H5  317 d   1      38.139  52.694  34.362  0.00  0.00     0.275 HD
ENDBRANCH   3  20
ENDBRANCH   1   3
BRANCH   1  24
ATOM     24  C7  317 d   1      40.858  51.690  35.127  0.00  0.00    -0.043 C 
ATOM     25  H6  317 d   1      40.482  52.011  34.144  0.00  0.00     0.035 H 
ATOM     26  H7  317 d   1      41.522  50.822  35.000  0.00  0.00     0.035 H 
BRANCH  24  27
ATOM     27  C18 317 d   1      41.669  52.846  35.748  0.00  0.00    -0.021 A 
ATOM     28  C19 317 d   1      43.032  53.074  35.257  0.00  0.00    -0.099 A 
ATOM     29  C20 317 d   1      42.815  52.482  36.578  0.00  0.00    -0.099 A 
ATOM     30  H17 317 d   1      43.709  53.426  34.480  0.00  0.00     0.077 H 
ATOM     31  H18 317 d   1      43.215  52.071  37.504  0.00  0.00     0.077 H 
ATOM     32  H16 317 d   1      41.014  53.688  36.014  0.00  0.00     0.052 H 
ENDBRANCH  24  27
ENDBRANCH   1  24
BRANCH   1  33
ATOM     33  C26 317 d   1      40.170  50.118  36.833  0.00  0.00     0.179 A 
ATOM     34  N27 317 d   1      40.185  50.146  38.151  0.00  0.00    -0.203 NA
ATOM     35  C28 317 d   1      40.696  48.965  38.509  0.00  0.00     0.191 A 
ATOM     36  N29 317 d   1      40.995  48.209  37.421  0.00  0.00    -0.105 NA
ATOM     37  O30 317 d   1      40.638  48.990  36.297  0.00  0.00    -0.195 OA
BRANCH  35  38
ATOM     38  C31 317 d   1      40.894  48.406  39.881  0.00  0.00     0.036 A 
ATOM     39  C32 317 d   1      40.086  49.048  40.871  0.00  0.00    -0.066 A 
ATOM     40  C33 317 d   1      40.101  48.607  42.214  0.00  0.00    -0.061 A 
ATOM     41  H19 317 d   1      39.455  49.883  40.588  0.00  0.00     0.085 H 
ATOM     42  C34 317 d   1      40.926  47.521  42.590  0.00  0.00     0.060 A 
ATOM     43  H20 317 d   1      39.481  49.100  42.954  0.00  0.00     0.085 H 
ATOM     44  C35 317 d   1      41.751  46.875  41.637  0.00  0.00    -0.040 A 
ATOM     45  C36 317 d   1      41.741  47.307  40.295  0.00  0.00     0.049 A 
ATOM     46  H21 317 d   1      42.388  46.051  41.938  0.00  0.00     0.088 H 
ATOM     47 CL47 317 d   1      42.769  46.398  39.229  0.00  0.00    -0.083 Cl
BRANCH  42  48
ATOM     48  S40 317 d   1      40.899  46.938  44.262  0.00  0.00     0.171 S 
ATOM     49  O41 317 d   1      39.608  47.229  44.813  0.00  0.00    -0.223 OA
ATOM     50  O42 317 d   1      42.026  47.578  44.956  0.00  0.00    -0.223 OA
BRANCH  48  51
ATOM     51  C43 317 d   1      41.186  45.197  44.067  0.00  0.00     0.020 C 
ATOM     52  H22 317 d   1      41.192  44.714  45.055  0.00  0.00     0.049 H 
ATOM     53  H23 317 d   1      42.157  45.038  43.575  0.00  0.00     0.049 H 
ATOM     54  H24 317 d   1      40.387  44.761  43.450  0.00  0.00     0.049 H 
ENDBRANCH  48  51
ENDBRANCH  42  48
ENDBRANCH  35  38
ENDBRANCH   1  33
TORSDOF 9
