REMARK  3 active torsions:
REMARK  status: ('A' for Active; 'I' for Inactive)
REMARK       I    between atoms: N2B_7  and  C1T_8 
REMARK    1  A    between atoms: C1T_8  and  C1W_10 
REMARK    2  A    between atoms: C1U_16  and  C1P_17 
REMARK    3  A    between atoms: C1P_17  and  C1X_18 
ROOT
ATOM      1  C1W KU8 d   1      22.038  -6.112  10.029  0.00  0.00     0.071 C 
ATOM      2  C1J KU8 d   1      20.995  -6.475  10.874  0.00  0.00    -0.058 C 
ATOM      3  C1V KU8 d   1      23.285  -6.696  10.288  0.00  0.00     0.132 C 
ATOM      4  F1C KU8 d   1      24.357  -6.407   9.526  0.00  0.00    -0.205 F 
ATOM      5  C1G KU8 d   1      23.389  -7.791  11.145  0.00  0.00    -0.044 C 
ATOM      6  C1F KU8 d   1      22.307  -8.189  11.910  0.00  0.00    -0.074 C 
ATOM      7  C1U KU8 d   1      21.103  -7.526  11.773  0.00  0.00    -0.051 C 
ATOM      8  H13 KU8 d   1      20.066  -5.918  10.829  0.00  0.00     0.086 H 
ATOM      9  H14 KU8 d   1      24.325  -8.335  11.212  0.00  0.00     0.088 H 
ATOM     10  H15 KU8 d   1      22.403  -9.012  12.609  0.00  0.00     0.084 H 
ENDROOT
BRANCH   1  11
ATOM     11  C1T KU8 d   1      21.668  -4.858   9.212  0.00  0.00     0.256 C 
ATOM     12  N2B KU8 d   1      22.563  -3.885   9.015  0.00  0.00    -0.346 N 
ATOM     13  C1N KU8 d   1      23.882  -4.058   9.609  0.00  0.00    -0.001 C 
ATOM     14  C1O KU8 d   1      21.952  -2.722   8.407  0.00  0.00     0.020 C 
ATOM     15  C1K KU8 d   1      24.148  -2.967  10.668  0.00  0.00    -0.028 C 
ATOM     16  H1  KU8 d   1      23.936  -5.047  10.087  0.00  0.00     0.064 H 
ATOM     17  H2  KU8 d   1      24.645  -3.990   8.820  0.00  0.00     0.064 H 
ATOM     18  C1L KU8 d   1      24.136  -1.533  10.148  0.00  0.00     0.083 C 
ATOM     19  H3  KU8 d   1      25.136  -3.159  11.112  0.00  0.00     0.037 H 
ATOM     20  H4  KU8 d   1      23.374  -3.053  11.445  0.00  0.00     0.037 H 
ATOM     21  N1R KU8 d   1      23.077  -0.755   9.479  0.00  0.00    -0.074 N 
ATOM     22  H5  KU8 d   1      24.974  -1.504   9.436  0.00  0.00     0.075 H 
ATOM     23  H6  KU8 d   1      24.387  -0.930  11.033  0.00  0.00     0.075 H 
ATOM     24  C1M KU8 d   1      22.623  -1.381   8.220  0.00  0.00     0.096 C 
ATOM     25  H7  KU8 d   1      23.434   0.165   9.272  0.00  0.00     0.277 HD
ATOM     26  H8  KU8 d   1      22.290  -0.677  10.104  0.00  0.00     0.277 HD
ATOM     27  H9  KU8 d   1      23.498  -1.520   7.568  0.00  0.00     0.078 H 
ATOM     28  H10 KU8 d   1      21.908  -0.701   7.734  0.00  0.00     0.078 H 
ATOM     29  H11 KU8 d   1      21.654  -3.043   7.398  0.00  0.00     0.066 H 
ATOM     30  H12 KU8 d   1      21.053  -2.518   9.007  0.00  0.00     0.066 H 
ATOM     31  O1A KU8 d   1      20.507  -4.751   8.808  0.00  0.00    -0.267 OA
ENDBRANCH   1  11
BRANCH   7  32
ATOM     32  C1P KU8 d   1      19.919  -7.968  12.634  0.00  0.00     0.002 C 
ATOM     33  H16 KU8 d   1      20.135  -7.716  13.683  0.00  0.00     0.049 H 
ATOM     34  H17 KU8 d   1      19.801  -9.057  12.536  0.00  0.00     0.049 H 
BRANCH  32  35
ATOM     35  C1X KU8 d   1      18.607  -7.299  12.233  0.00  0.00     0.070 A 
ATOM     36  C1Z KU8 d   1      17.674  -7.973  11.469  0.00  0.00     0.006 A 
ATOM     37  C1H KU8 d   1      17.939  -9.268  11.044  0.00  0.00    -0.070 A 
ATOM     38  C2A KU8 d   1      16.489  -7.350  11.131  0.00  0.00     0.046 A 
ATOM     39  C1D KU8 d   1      17.003  -9.940  10.270  0.00  0.00    -0.082 A 
ATOM     40  H18 KU8 d   1      18.871  -9.751  11.315  0.00  0.00     0.084 H 
ATOM     41  C1E KU8 d   1      15.808  -9.316   9.929  0.00  0.00    -0.082 A 
ATOM     42  H19 KU8 d   1      17.203 -10.950   9.932  0.00  0.00     0.083 H 
ATOM     43  C1I KU8 d   1      15.549  -8.018  10.359  0.00  0.00    -0.067 A 
ATOM     44  H20 KU8 d   1      15.076  -9.842   9.327  0.00  0.00     0.083 H 
ATOM     45  H21 KU8 d   1      14.618  -7.531  10.092  0.00  0.00     0.085 H 
ATOM     46  C1Y KU8 d   1      16.282  -6.058  11.587  0.00  0.00     0.272 A 
ATOM     47  O1B KU8 d   1      15.244  -5.452  11.319  0.00  0.00    -0.266 OA
ATOM     48  N1S KU8 d   1      17.288  -5.457  12.363  0.00  0.00    -0.243 N 
ATOM     49  N1Q KU8 d   1      18.338  -6.046  12.646  0.00  0.00    -0.175 NA
ATOM     50  H22 KU8 d   1      17.151  -4.524  12.697  0.00  0.00     0.192 HD
ENDBRANCH  32  35
ENDBRANCH   7  32
TORSDOF 3
