REMARK  6 active torsions:
REMARK  status: ('A' for Active; 'I' for Inactive)
REMARK    1  A    between atoms: S22_2  and  C25_4 
REMARK    2  A    between atoms: S22_2  and  N21_7 
REMARK    3  A    between atoms: C25_4  and  C26_5 
REMARK    4  A    between atoms: C26_5  and  C27_6 
REMARK    5  A    between atoms: C13_15  and  C11_16 
REMARK    6  A    between atoms: C11_16  and  C9_18 
ROOT
ATOM      1  N21 324 d   1      -2.856  -3.597 -20.259  0.00  0.00    -0.281 N 
ATOM      2  C17 324 d   1      -2.011  -2.560 -20.421  0.00  0.00     0.082 A 
ATOM      3  C18 324 d   1      -0.566  -2.831 -20.527  0.00  0.00     0.160 A 
ATOM      4  F20 324 d   1       0.017  -4.026 -20.426  0.00  0.00    -0.203 F 
ATOM      5  C16 324 d   1      -2.424  -1.230 -20.541  0.00  0.00    -0.051 A 
ATOM      6  C15 324 d   1      -1.549  -0.161 -20.745  0.00  0.00    -0.042 A 
ATOM      7  C14 324 d   1      -0.195  -0.364 -20.832  0.00  0.00     0.133 A 
ATOM      8  F19 324 d   1       0.635   0.646 -21.017  0.00  0.00    -0.205 F 
ATOM      9  C13 324 d   1       0.328  -1.721 -20.733  0.00  0.00     0.094 A 
ATOM     10  H8  324 d   1      -2.469  -4.510 -20.132  0.00  0.00     0.178 HD
ATOM     11  H9  324 d   1      -3.484  -1.016 -20.472  0.00  0.00     0.087 H 
ATOM     12  H10 324 d   1      -1.945   0.844 -20.836  0.00  0.00     0.088 H 
ENDROOT
BRANCH   9  13
ATOM     13  C11 324 d   1       1.742  -2.093 -20.798  0.00  0.00     0.200 C 
ATOM     14  O12 324 d   1       2.098  -2.749 -21.765  0.00  0.00    -0.286 OA
BRANCH  13  15
ATOM     15  C9  324 d   1       2.532  -1.725 -19.605  0.00  0.00     0.044 A 
ATOM     16  C8  324 d   1       2.043  -1.331 -18.343  0.00  0.00    -0.006 A 
ATOM     17  N7  324 d   1       3.094  -1.093 -17.503  0.00  0.00    -0.349 N 
ATOM     18  H11 324 d   1       0.991  -1.232 -18.079  0.00  0.00     0.112 H 
ATOM     19  C3  324 d   1       4.255  -1.347 -18.193  0.00  0.00     0.138 A 
ATOM     20  H13 324 d   1       3.028  -0.778 -16.524  0.00  0.00     0.167 HD
ATOM     21  C2  324 d   1       4.020  -1.750 -19.544  0.00  0.00     0.027 A 
ATOM     22  N4  324 d   1       5.502  -1.228 -17.724  0.00  0.00    -0.241 NA
ATOM     23  C1  324 d   1       5.087  -2.039 -20.377  0.00  0.00    -0.046 A 
ATOM     24  C6  324 d   1       6.388  -1.911 -19.826  0.00  0.00     0.052 A 
ATOM     25  H12 324 d   1       4.935  -2.349 -21.404  0.00  0.00     0.087 H 
ATOM     26  C5  324 d   1       6.544  -1.502 -18.504  0.00  0.00     0.025 A 
ATOM     27 CL10 324 d   1       7.848  -2.216 -20.702  0.00  0.00    -0.083 Cl
ATOM     28  H14 324 d   1       7.545  -1.404 -18.099  0.00  0.00     0.117 H 
ENDBRANCH  13  15
ENDBRANCH   9  13
BRANCH   1  29
ATOM     29  S22 324 d   1      -4.463  -3.437 -20.260  0.00  0.00     0.231 S 
ATOM     30  O24 324 d   1      -4.930  -2.656 -21.392  0.00  0.00    -0.206 OA
ATOM     31  O23 324 d   1      -5.205  -4.660 -20.332  0.00  0.00    -0.206 OA
BRANCH  29  32
ATOM     32  C25 324 d   1      -4.777  -2.714 -18.785  0.00  0.00     0.046 C 
ATOM     33  H1  324 d   1      -5.599  -1.996 -18.922  0.00  0.00     0.058 H 
ATOM     34  H2  324 d   1      -3.871  -2.178 -18.465  0.00  0.00     0.058 H 
BRANCH  32  35
ATOM     35  C26 324 d   1      -5.175  -3.690 -17.669  0.00  0.00    -0.055 C 
ATOM     36  H3  324 d   1      -4.508  -4.564 -17.698  0.00  0.00     0.033 H 
ATOM     37  H4  324 d   1      -6.214  -4.016 -17.827  0.00  0.00     0.033 H 
BRANCH  35  38
ATOM     38  C27 324 d   1      -5.062  -3.016 -16.304  0.00  0.00    -0.076 C 
ATOM     39  H5  324 d   1      -5.351  -3.729 -15.518  0.00  0.00     0.027 H 
ATOM     40  H6  324 d   1      -5.730  -2.143 -16.270  0.00  0.00     0.027 H 
ATOM     41  H7  324 d   1      -4.024  -2.691 -16.141  0.00  0.00     0.027 H 
ENDBRANCH  35  38
ENDBRANCH  32  35
ENDBRANCH  29  32
ENDBRANCH   1  29
TORSDOF 6
