REMARK  2 active torsions:
REMARK  status: ('A' for Active; 'I' for Inactive)
REMARK    1  A    between atoms: N10_1  and  C11_2 
REMARK    2  A    between atoms: N10_1  and  C7_8 
ROOT
ATOM      1  C7  C4E d   1       7.849  87.907  26.052  0.00  0.00     0.062 A 
ATOM      2  C6  C4E d   1       7.471  87.990  27.380  0.00  0.00     0.005 A 
ATOM      3  C8  C4E d   1       6.701  87.619  25.272  0.00  0.00     0.038 A 
ATOM      4  C9  C4E d   1       6.451  87.427  23.894  0.00  0.00    -0.066 A 
ATOM      5  C4  C4E d   1       5.634  87.530  26.161  0.00  0.00     0.139 A 
ATOM      6  N5  C4E d   1       6.108  87.765  27.426  0.00  0.00    -0.348 N 
ATOM      7  N3  C4E d   1       4.349  87.278  25.838  0.00  0.00    -0.242 NA
ATOM      8  C2  C4E d   1       4.156  87.104  24.501  0.00  0.00     0.004 A 
ATOM      9  C1  C4E d   1       5.136  87.155  23.507  0.00  0.00    -0.065 A 
ATOM     10  H7  C4E d   1       8.123  88.194  28.228  0.00  0.00     0.115 H 
ATOM     11  H8  C4E d   1       7.250  87.489  23.164  0.00  0.00     0.085 H 
ATOM     12  H9  C4E d   1       5.535  87.773  28.282  0.00  0.00     0.167 HD
ATOM     13  H10 C4E d   1       3.141  86.906  24.176  0.00  0.00     0.114 H 
ATOM     14  H11 C4E d   1       4.884  86.989  22.466  0.00  0.00     0.085 H 
ENDROOT
BRANCH   1  15
ATOM     15  N10 C4E d   1       9.055  88.051  25.452  0.00  0.00    -0.354 N 
ATOM     16  H1  C4E d   1       9.034  87.770  24.461  0.00  0.00     0.166 HD
BRANCH  15  17
ATOM     17  C11 C4E d   1      10.325  88.490  25.852  0.00  0.00     0.032 A 
ATOM     18  C12 C4E d   1      10.749  88.551  27.185  0.00  0.00    -0.057 A 
ATOM     19  C13 C4E d   1      12.043  88.990  27.491  0.00  0.00    -0.081 A 
ATOM     20  H2  C4E d   1      10.075  88.258  27.981  0.00  0.00     0.086 H 
ATOM     21  C14 C4E d   1      12.905  89.374  26.464  0.00  0.00    -0.083 A 
ATOM     22  H3  C4E d   1      12.374  89.031  28.523  0.00  0.00     0.083 H 
ATOM     23  C15 C4E d   1      12.493  89.325  25.132  0.00  0.00    -0.081 A 
ATOM     24  H4  C4E d   1      13.906  89.714  26.703  0.00  0.00     0.083 H 
ATOM     25  C16 C4E d   1      11.206  88.880  24.828  0.00  0.00    -0.057 A 
ATOM     26  H5  C4E d   1      13.167  89.630  24.340  0.00  0.00     0.083 H 
ATOM     27  H6  C4E d   1      10.883  88.835  23.794  0.00  0.00     0.086 H 
ENDBRANCH  15  17
ENDBRANCH   1  15
TORSDOF 2
