REMARK  4 active torsions:
REMARK  status: ('A' for Active; 'I' for Inactive)
REMARK    1  A    between atoms: C15_1  and  O14_2 
REMARK    2  A    between atoms: O14_2  and  C13_3 
REMARK    3  A    between atoms: C11_8  and  C10_9 
REMARK    4  A    between atoms: C10_9  and  C9_10 
ROOT
ATOM      1  C10 C4F d   1       6.940   4.649  18.215  0.00  0.00    -0.015 C 
ATOM      2  H8  C4F d   1       6.726   5.621  18.684  0.00  0.00     0.047 H 
ATOM      3  H9  C4F d   1       8.013   4.583  17.980  0.00  0.00     0.047 H 
ENDROOT
BRANCH   1   4
ATOM      4  C11 C4F d   1       6.125   4.496  16.951  0.00  0.00    -0.051 A 
ATOM      5  C18 C4F d   1       4.950   5.200  16.758  0.00  0.00    -0.076 A 
ATOM      6  C17 C4F d   1       4.206   5.021  15.599  0.00  0.00    -0.080 A 
ATOM      7  H6  C4F d   1       4.608   5.896  17.516  0.00  0.00     0.084 H 
ATOM      8  C16 C4F d   1       4.652   4.138  14.625  0.00  0.00    -0.051 A 
ATOM      9  H5  C4F d   1       3.281   5.568  15.456  0.00  0.00     0.083 H 
ATOM     10  C13 C4F d   1       5.831   3.437  14.817  0.00  0.00     0.068 A 
ATOM     11  H4  C4F d   1       4.079   3.997  13.716  0.00  0.00     0.087 H 
ATOM     12  C12 C4F d   1       6.554   3.605  15.986  0.00  0.00    -0.044 A 
ATOM     13  H7  C4F d   1       7.462   3.034  16.145  0.00  0.00     0.088 H 
BRANCH  10  14
ATOM     14  O14 C4F d   1       6.285   2.513  13.896  0.00  0.00    -0.356 OA
BRANCH  14  15
ATOM     15  C15 C4F d   1       5.400   2.021  12.880  0.00  0.00     0.010 C 
ATOM     16  H1  C4F d   1       5.936   1.300  12.245  0.00  0.00     0.066 H 
ATOM     17  H2  C4F d   1       5.047   2.861  12.263  0.00  0.00     0.066 H 
ATOM     18  H3  C4F d   1       4.539   1.526  13.352  0.00  0.00     0.066 H 
ENDBRANCH  14  15
ENDBRANCH  10  14
ENDBRANCH   1   4
BRANCH   1  19
ATOM     19  C9  C4F d   1       6.541   3.514  19.160  0.00  0.00    -0.025 A 
ATOM     20  C1  C4F d   1       7.087   3.221  20.503  0.00  0.00     0.018 A 
ATOM     21  C6  C4F d   1       6.402   2.139  20.946  0.00  0.00     0.138 A 
ATOM     22  C2  C4F d   1       8.043   3.848  21.263  0.00  0.00    -0.067 A 
ATOM     23  N7  C4F d   1       5.537   1.758  19.997  0.00  0.00    -0.350 N 
ATOM     24  N5  C4F d   1       6.624   1.597  22.143  0.00  0.00    -0.242 NA
ATOM     25  C8  C4F d   1       5.618   2.563  18.992  0.00  0.00    -0.014 A 
ATOM     26  H11 C4F d   1       4.905   0.947  20.060  0.00  0.00     0.166 HD
ATOM     27  H10 C4F d   1       4.999   2.476  18.100  0.00  0.00     0.112 H 
ATOM     28  C4  C4F d   1       7.577   2.138  22.912  0.00  0.00     0.004 A 
ATOM     29  C3  C4F d   1       8.300   3.262  22.495  0.00  0.00    -0.065 A 
ATOM     30  H12 C4F d   1       7.793   1.696  23.878  0.00  0.00     0.114 H 
ATOM     31  H13 C4F d   1       9.066   3.678  23.139  0.00  0.00     0.085 H 
ATOM     32  H14 C4F d   1       8.561   4.738  20.925  0.00  0.00     0.085 H 
ENDBRANCH   1  19
TORSDOF 4
