REMARK  4 active torsions:
REMARK  status: ('A' for Active; 'I' for Inactive)
REMARK    1  A    between atoms: C19_6  and  C18_2 
REMARK    2  A    between atoms: C19_6  and  C17_3 
REMARK    3  A    between atoms: C15_5  and  C9_17 
REMARK    4  A    between atoms: N22_22  and  C19_6 
ROOT
ATOM      1  C13 P41 d   1      -7.549  36.213  41.511  0.00  0.00     0.038 A 
ATOM      2  C16 P41 d   1      -7.117  33.846  40.923  0.00  0.00     0.168 A 
ATOM      3  C11 P41 d   1      -7.721  35.846  40.160  0.00  0.00     0.076 A 
ATOM      4  C4  P41 d   1      -8.325  38.171  39.730  0.00  0.00    -0.068 A 
ATOM      5  C5  P41 d   1      -8.099  36.853  39.240  0.00  0.00    -0.053 A 
ATOM      6  C7  P41 d   1      -7.738  37.517  41.988  0.00  0.00    -0.051 A 
ATOM      7  C9  P41 d   1      -8.174  38.502  41.080  0.00  0.00     0.002 A 
ATOM      8  N21 P41 d   1      -7.469  34.504  39.847  0.00  0.00    -0.224 NA
ATOM      9  N22 P41 d   1      -6.840  32.529  40.932  0.00  0.00    -0.365 N 
ATOM     10  S25 P41 d   1      -7.074  34.804  42.381  0.00  0.00    -0.050 SA
ATOM     11  H11 P41 d   1      -8.624  38.944  39.032  0.00  0.00     0.085 H 
ATOM     12  H12 P41 d   1      -8.214  36.626  38.186  0.00  0.00     0.087 H 
ATOM     13  H14 P41 d   1      -7.554  37.761  43.028  0.00  0.00     0.087 H 
ATOM     14  H16 P41 d   1      -6.650  32.122  41.859  0.00  0.00     0.162 HD
ENDROOT
BRANCH   7  15
ATOM     15  C15 P41 d   1      -8.342  39.880  41.502  0.00  0.00     0.116 A 
ATOM     16  C14 P41 d   1      -9.023  41.037  41.205  0.00  0.00     0.106 A 
ATOM     17  C10 P41 d   1     -10.027  41.298  40.241  0.00  0.00     0.034 A 
ATOM     18  N20 P41 d   1      -8.661  42.090  42.051  0.00  0.00    -0.233 NA
ATOM     19  C12 P41 d   1     -11.331  40.813  40.385  0.00  0.00     0.129 A 
ATOM     20  C3  P41 d   1      -9.692  42.149  39.204  0.00  0.00    -0.068 A 
ATOM     21  C6  P41 d   1     -12.299  41.127  39.462  0.00  0.00    -0.045 A 
ATOM     22  F24 P41 d   1     -11.678  39.997  41.406  0.00  0.00    -0.205 F 
ATOM     23  C2  P41 d   1     -11.963  41.951  38.426  0.00  0.00    -0.080 A 
ATOM     24  H13 P41 d   1     -13.304  40.731  39.554  0.00  0.00     0.088 H 
ATOM     25  C1  P41 d   1     -10.674  42.464  38.292  0.00  0.00    -0.082 A 
ATOM     26  H9  P41 d   1     -12.716  42.212  37.691  0.00  0.00     0.083 H 
ATOM     27  H8  P41 d   1     -10.442  43.119  37.460  0.00  0.00     0.083 H 
ATOM     28  H10 P41 d   1      -8.691  42.554  39.112  0.00  0.00     0.085 H 
ATOM     29  C8  P41 d   1      -7.764  41.564  42.816  0.00  0.00     0.104 A 
ATOM     30  O23 P41 d   1      -7.515  40.253  42.544  0.00  0.00    -0.301 OA
ATOM     31  H15 P41 d   1      -7.255  42.116  43.604  0.00  0.00     0.155 H 
ENDBRANCH   7  15
BRANCH   9  32
ATOM     32  C19 P41 d   1      -6.771  31.592  39.805  0.00  0.00     0.004 C 
ATOM     33  H7  P41 d   1      -6.234  30.760  40.283  0.00  0.00     0.071 H 
BRANCH  32  34
ATOM     34  C18 P41 d   1      -8.058  30.880  39.446  0.00  0.00    -0.058 C 
ATOM     35  H1  P41 d   1      -7.880  30.210  38.592  0.00  0.00     0.030 H 
ATOM     36  H2  P41 d   1      -8.825  31.622  39.177  0.00  0.00     0.030 H 
ATOM     37  H3  P41 d   1      -8.404  30.291  40.308  0.00  0.00     0.030 H 
ENDBRANCH  32  34
BRANCH  32  38
ATOM     38  C17 P41 d   1      -5.763  31.933  38.691  0.00  0.00    -0.058 C 
ATOM     39  H4  P41 d   1      -4.893  32.445  39.128  0.00  0.00     0.030 H 
ATOM     40  H5  P41 d   1      -6.242  32.592  37.952  0.00  0.00     0.030 H 
ATOM     41  H6  P41 d   1      -5.434  31.006  38.198  0.00  0.00     0.030 H 
ENDBRANCH  32  38
ENDBRANCH   9  32
TORSDOF 4
