REMARK  9 active torsions:
REMARK  status: ('A' for Active; 'I' for Inactive)
REMARK    1  A    between atoms: N_25  and  C_1 
REMARK    2  A    between atoms: C3_4  and  S_27 
REMARK    3  A    between atoms: C6_7  and  O_20 
REMARK    4  A    between atoms: O19_22  and  C10_11 
REMARK    5  A    between atoms: O_20  and  C14_15 
REMARK    6  A    between atoms: C16_17  and  C27_32 
REMARK    7  A    between atoms: C20_23  and  O19_22 
REMARK    8  A    between atoms: C21_24  and  C20_23 
REMARK       I    between atoms: C21_24  and  N_25 
REMARK    9  A    between atoms: S_27  and  N23_28 
ROOT
ATOM      1  O19 M14 d   1       6.809  13.103  15.451  0.00  0.00    -0.342 OA
ENDROOT
BRANCH   1   2
ATOM      2  C10 M14 d   1       8.200  13.006  15.497  0.00  0.00     0.073 A 
ATOM      3  C9  M14 d   1       9.192  13.336  14.558  0.00  0.00    -0.030 A 
ATOM      4  C8  M14 d   1      10.560  13.113  14.870  0.00  0.00     0.039 A 
ATOM      5  H5  M14 d   1       8.915  13.759  13.599  0.00  0.00     0.090 H 
ATOM      6  C7  M14 d   1      10.971  12.594  16.072  0.00  0.00    -0.029 A 
ATOM      7 CL1  M14 d   1      11.868  13.528  13.797  0.00  0.00    -0.084 Cl
ATOM      8  C6  M14 d   1       9.995  12.288  16.974  0.00  0.00     0.080 A 
ATOM      9  H4  M14 d   1      12.020  12.435  16.294  0.00  0.00     0.090 H 
ATOM     10  C11 M14 d   1       8.637  12.469  16.710  0.00  0.00    -0.018 A 
ATOM     11  H6  M14 d   1       7.907  12.188  17.460  0.00  0.00     0.092 H 
BRANCH   8  12
ATOM     12  O   M14 d   1      10.445  11.765  18.141  0.00  0.00    -0.311 OA
BRANCH  12  13
ATOM     13  C14 M14 d   1      10.324  12.439  19.325  0.00  0.00     0.079 A 
ATOM     14  C13 M14 d   1      10.141  11.654  20.445  0.00  0.00    -0.029 A 
ATOM     15  C12 M14 d   1      10.039  12.238  21.691  0.00  0.00     0.038 A 
ATOM     16  H7  M14 d   1      10.077  10.576  20.346  0.00  0.00     0.090 H 
ATOM     17  C17 M14 d   1      10.115  13.602  21.846  0.00  0.00    -0.042 A 
ATOM     18 CL   M14 d   1       9.822  11.285  23.111  0.00  0.00    -0.084 Cl
ATOM     19  C16 M14 d   1      10.285  14.361  20.700  0.00  0.00     0.049 A 
ATOM     20  H9  M14 d   1      10.045  14.064  22.824  0.00  0.00     0.088 H 
ATOM     21  C15 M14 d   1      10.405  13.817  19.431  0.00  0.00    -0.030 A 
ATOM     22  H8  M14 d   1      10.556  14.443  18.559  0.00  0.00     0.090 H 
BRANCH  19  23
ATOM     23  C27 M14 d   1      10.349  15.715  20.900  0.00  0.00     0.099 C 
ATOM     24  N28 M14 d   1      10.644  16.784  21.068  0.00  0.00    -0.191 NA
ENDBRANCH  19  23
ENDBRANCH  12  13
ENDBRANCH   8  12
ENDBRANCH   1   2
BRANCH   1  25
ATOM     25  C20 M14 d   1       6.095  13.201  14.226  0.00  0.00     0.100 C 
ATOM     26  H10 M14 d   1       6.551  13.971  13.587  0.00  0.00     0.089 H 
ATOM     27  H11 M14 d   1       5.045  13.463  14.424  0.00  0.00     0.089 H 
BRANCH  25  28
ATOM     28  C21 M14 d   1       6.170  11.850  13.541  0.00  0.00     0.246 C 
ATOM     29  N   M14 d   1       6.153  10.847  14.469  0.00  0.00    -0.324 N 
ATOM     30  H12 M14 d   1       6.072  11.140  15.422  0.00  0.00     0.169 HD
ATOM     31  O22 M14 d   1       6.293  11.699  12.345  0.00  0.00    -0.271 OA
BRANCH  29  32
ATOM     32  C   M14 d   1       6.234   9.458  14.265  0.00  0.00     0.056 A 
ATOM     33  C1  M14 d   1       6.328   8.751  13.059  0.00  0.00    -0.054 A 
ATOM     34  C2  M14 d   1       6.413   7.361  13.052  0.00  0.00    -0.058 A 
ATOM     35  H1  M14 d   1       6.335   9.293  12.120  0.00  0.00     0.087 H 
ATOM     36  C3  M14 d   1       6.399   6.692  14.276  0.00  0.00     0.081 A 
ATOM     37  H2  M14 d   1       6.488   6.813  12.120  0.00  0.00     0.086 H 
ATOM     38  C4  M14 d   1       6.317   7.386  15.474  0.00  0.00    -0.037 A 
ATOM     39  C5  M14 d   1       6.219   8.765  15.445  0.00  0.00     0.062 A 
ATOM     40  H3  M14 d   1       6.330   6.855  16.419  0.00  0.00     0.088 H 
ATOM     41 CL2  M14 d   1       6.081   9.677  16.912  0.00  0.00    -0.082 Cl
BRANCH  36  42
ATOM     42  S   M14 d   1       6.553   4.920  14.385  0.00  0.00     0.256 S 
ATOM     43  O24 M14 d   1       7.973   4.795  14.035  0.00  0.00    -0.201 OA
ATOM     44  O25 M14 d   1       6.056   4.526  15.695  0.00  0.00    -0.201 OA
BRANCH  42  45
ATOM     45  N23 M14 d   1       5.558   4.339  13.125  0.00  0.00    -0.324 N 
ATOM     46  H13 M14 d   1       5.470   3.355  12.971  0.00  0.00     0.169 HD
ATOM     47  H14 M14 d   1       5.063   4.983  12.541  0.00  0.00     0.169 HD
ENDBRANCH  42  45
ENDBRANCH  36  42
ENDBRANCH  29  32
ENDBRANCH  25  28
ENDBRANCH   1  25
TORSDOF 9
