REMARK  5 active torsions:
REMARK  status: ('A' for Active; 'I' for Inactive)
REMARK    1  A    between atoms: O_13  and  C_1 
REMARK    2  A    between atoms: C4_5  and  O12_15 
REMARK    3  A    between atoms: C7_8  and  O_13 
REMARK    4  A    between atoms: O12_15  and  C13_16 
REMARK    5  A    between atoms: C13_16  and  C14_17 
ROOT
ATOM      1  C6  M22 d   1      10.562  13.643  18.979  0.00  0.00    -0.029 A 
ATOM      2  C7  M22 d   1      10.536  12.280  18.749  0.00  0.00     0.079 A 
ATOM      3  C8  M22 d   1      10.226  11.413  19.819  0.00  0.00    -0.030 A 
ATOM      4  C9  M22 d   1       9.950  11.927  21.119  0.00  0.00     0.049 A 
ATOM      5  C10 M22 d   1       9.984  13.318  21.334  0.00  0.00    -0.042 A 
ATOM      6  C11 M22 d   1      10.295  14.140  20.248  0.00  0.00     0.038 A 
ATOM      7 CL   M22 d   1      10.354  15.830  20.445  0.00  0.00    -0.084 Cl
ATOM      8  C23 M22 d   1       9.654  11.047  22.226  0.00  0.00     0.099 C 
ATOM      9  N24 M22 d   1       9.409  10.334  23.116  0.00  0.00    -0.191 NA
ATOM     10  H4  M22 d   1      10.791  14.325  18.168  0.00  0.00     0.090 H 
ATOM     11  H5  M22 d   1      10.198  10.343  19.650  0.00  0.00     0.090 H 
ATOM     12  H6  M22 d   1       9.775  13.738  22.311  0.00  0.00     0.088 H 
ENDROOT
BRANCH   2  13
ATOM     13  O   M22 d   1      10.821  11.731  17.511  0.00  0.00    -0.309 OA
BRANCH  13  14
ATOM     14  C   M22 d   1      10.222  12.176  16.328  0.00  0.00     0.100 A 
ATOM     15  C1  M22 d   1      11.037  12.234  15.213  0.00  0.00     0.068 A 
ATOM     16  C2  M22 d   1      10.585  12.641  13.979  0.00  0.00    -0.057 A 
ATOM     17 CL2  M22 d   1      12.674  11.794  15.327  0.00  0.00    -0.081 Cl
ATOM     18  C3  M22 d   1       9.274  12.993  13.831  0.00  0.00    -0.049 A 
ATOM     19  H1  M22 d   1      11.262  12.682  13.133  0.00  0.00     0.086 H 
ATOM     20  C4  M22 d   1       8.401  12.931  14.902  0.00  0.00     0.071 A 
ATOM     21  H2  M22 d   1       8.914  13.325  12.864  0.00  0.00     0.087 H 
ATOM     22  C5  M22 d   1       8.861  12.528  16.172  0.00  0.00    -0.016 A 
ATOM     23  H3  M22 d   1       8.182  12.489  17.016  0.00  0.00     0.092 H 
BRANCH  20  24
ATOM     24  O12 M22 d   1       7.099  13.341  14.811  0.00  0.00    -0.345 OA
BRANCH  24  25
ATOM     25  C13 M22 d   1       5.919  12.583  14.640  0.00  0.00     0.066 C 
ATOM     26  H7  M22 d   1       5.292  13.091  13.892  0.00  0.00     0.084 H 
ATOM     27  H8  M22 d   1       5.389  12.554  15.604  0.00  0.00     0.084 H 
BRANCH  25  28
ATOM     28  C14 M22 d   1       6.132  11.196  14.193  0.00  0.00     0.064 A 
ATOM     29  N   M22 d   1       6.605  10.903  12.966  0.00  0.00    -0.279 N 
ATOM     30  N15 M22 d   1       6.632   9.557  12.986  0.00  0.00    -0.174 NA
ATOM     31  H9  M22 d   1       6.876  11.544  12.207  0.00  0.00     0.189 HD
ATOM     32  C17 M22 d   1       6.201   9.003  14.167  0.00  0.00     0.089 A 
ATOM     33  C16 M22 d   1       5.862  10.055  14.980  0.00  0.00     0.021 A 
ATOM     34  C18 M22 d   1       6.081   7.700  14.597  0.00  0.00    -0.053 A 
ATOM     35  C21 M22 d   1       5.375   9.846  16.288  0.00  0.00    -0.069 A 
ATOM     36  C20 M22 d   1       5.249   8.540  16.755  0.00  0.00    -0.082 A 
ATOM     37  H13 M22 d   1       5.104  10.686  16.917  0.00  0.00     0.085 H 
ATOM     38  C19 M22 d   1       5.607   7.491  15.908  0.00  0.00    -0.081 A 
ATOM     39  H12 M22 d   1       4.881   8.343  17.755  0.00  0.00     0.083 H 
ATOM     40  H11 M22 d   1       5.517   6.474  16.273  0.00  0.00     0.083 H 
ATOM     41  H10 M22 d   1       6.341   6.868  13.953  0.00  0.00     0.087 H 
ENDBRANCH  25  28
ENDBRANCH  24  25
ENDBRANCH  20  24
ENDBRANCH  13  14
ENDBRANCH   2  13
TORSDOF 5
