REMARK WARNING: 32 MAX_TORS EXCEEDED!!!
REMARK  38 active torsions:
REMARK  status: ('A' for Active; 'I' for Inactive)
REMARK    1  A    between atoms: N_1  and  CA_2 
REMARK    2  A    between atoms: CA_2  and  C_3 
REMARK    3  A    between atoms: CA_2  and  CB_5 
REMARK       I    between atoms: C_3  and  N_6 
REMARK    4  A    between atoms: N_6  and  CA_7 
REMARK    5  A    between atoms: CA_7  and  C_8 
REMARK    6  A    between atoms: CA_7  and  CB_10 
REMARK       I    between atoms: C_8  and  N_17 
REMARK    7  A    between atoms: CB_10  and  CG_11 
REMARK    8  A    between atoms: CG_11  and  CD_12 
REMARK    9  A    between atoms: CD_12  and  NE_13 
REMARK       I    between atoms: NE_13  and  CZ_14 
REMARK       I    between atoms: CZ_14  and  NH1_15 
REMARK   10  A    between atoms: N_17  and  CA_18 
REMARK   11  A    between atoms: CA_18  and  C_19 
REMARK   12  A    between atoms: CA_18  and  CB_21 
REMARK       I    between atoms: C_19  and  N_24 
REMARK   13  A    between atoms: CB_21  and  OG1_22 
REMARK   14  A    between atoms: CB_21  and  CG2_23 
REMARK   15  A    between atoms: N_24  and  CA_25 
REMARK   16  A    between atoms: CA_25  and  CB_26 
REMARK   17  A    between atoms: CA_25  and  C_31 
REMARK   18  A    between atoms: CB_26  and  CG_27 
REMARK   19  A    between atoms: CG_27  and  CD_28 
REMARK   20  A    between atoms: CD_28  and  CE_29 
REMARK   21  A    between atoms: CE_29  and  NZ_30 
REMARK   22  A    between atoms: NZ_30  and  CM1_33 
REMARK   23  A    between atoms: NZ_30  and  CM2_34 
REMARK   24  A    between atoms: NZ_30  and  CM3_35 
REMARK       I    between atoms: C_31  and  N_36 
REMARK   25  A    between atoms: N_36  and  CA_37 
REMARK   26  A    between atoms: CA_37  and  C_38 
REMARK   27  A    between atoms: CA_37  and  CB_40 
REMARK       I    between atoms: C_38  and  N_45 
REMARK   28  A    between atoms: CB_40  and  CG_41 
REMARK   29  A    between atoms: CG_41  and  CD_42 
REMARK       I    between atoms: CD_42  and  NE2_44 
REMARK   30  A    between atoms: N_45  and  CA_46 
REMARK   31  A    between atoms: CA_46  and  C_47 
REMARK   32  A    between atoms: CA_46  and  CB_49 
REMARK       I    between atoms: C_47  and  N_52 
REMARK   33  A    between atoms: CB_49  and  OG1_50 
REMARK   34  A    between atoms: CB_49  and  CG2_51 
REMARK   35  A    between atoms: N_52  and  CA_53 
REMARK   36  A    between atoms: CA_53  and  C_54 
REMARK   37  A    between atoms: CA_53  and  CB_56 
REMARK   38  A    between atoms: C_54  and  O_57 
ROOT
ATOM      1  CA  M3L d   1      -3.422  23.452  13.747  0.00  0.00     0.089 C 
ATOM      2  H29 M3L d   1      -3.106  24.159  14.528  0.00  0.00     0.087 H 
ENDROOT
BRANCH   1   3
ATOM      3  N   M3L d   1      -3.045  22.107  14.158  0.00  0.00    -0.346 N 
ATOM      4  C   THR d   1      -1.954  21.894  14.881  0.00  0.00     0.243 C 
ATOM      5  O   THR d   1      -1.196  22.797  15.230  0.00  0.00    -0.271 OA
ATOM      6  H28 M3L d   1      -3.618  21.332  13.891  0.00  0.00     0.163 HD
BRANCH   4   7
ATOM      7  CA  THR d   1      -1.680  20.448  15.262  0.00  0.00     0.113 C 
ATOM      8  H22 THR d   1      -1.820  19.798  14.385  0.00  0.00     0.091 H 
BRANCH   7   9
ATOM      9  N   THR d   1      -0.302  20.334  15.729  0.00  0.00    -0.344 N 
ATOM     10  C   ARG d   1       0.465  19.320  15.347  0.00  0.00     0.241 C 
ATOM     11  O   ARG d   1       0.073  18.438  14.579  0.00  0.00    -0.271 OA
ATOM     12  H21 THR d   1       0.069  21.029  16.345  0.00  0.00     0.163 HD
BRANCH  10  13
ATOM     13  CA  ARG d   1       1.884  19.300  15.900  0.00  0.00     0.089 C 
ATOM     14  H9  ARG d   1       1.986  20.068  16.681  0.00  0.00     0.087 H 
BRANCH  13  15
ATOM     15  N   ARG d   1       2.142  17.981  16.478  0.00  0.00    -0.346 N 
ATOM     16  C   ALA d   1       1.928  17.729  17.766  0.00  0.00     0.248 C 
ATOM     17  O   ALA d   1       1.508  18.576  18.554  0.00  0.00    -0.271 OA
ATOM     18  H8  ARG d   1       2.488  17.250  15.889  0.00  0.00     0.163 HD
BRANCH  16  19
ATOM     19  CA  ALA d   1       2.233  16.312  18.237  0.00  0.00     0.172 C 
ATOM     20  H4  ALA d   1       3.089  15.925  17.665  0.00  0.00     0.098 H 
BRANCH  19  21
ATOM     21  N   ALA d   1       2.582  16.308  19.687  0.00  0.00    -0.067 N 
ATOM     22  H1  ALA d   1       2.781  15.365  19.982  0.00  0.00     0.275 HD
ATOM     23  H2  ALA d   1       1.807  16.671  20.220  0.00  0.00     0.275 HD
ATOM     24  H3  ALA d   1       3.394  16.886  19.839  0.00  0.00     0.275 HD
ENDBRANCH  19  21
BRANCH  19  25
ATOM     25  CB  ALA d   1       1.028  15.410  17.993  0.00  0.00    -0.042 C 
ATOM     26  H5  ALA d   1       0.775  15.417  16.922  0.00  0.00     0.030 H 
ATOM     27  H6  ALA d   1       0.170  15.779  18.574  0.00  0.00     0.030 H 
ATOM     28  H7  ALA d   1       1.269  14.383  18.306  0.00  0.00     0.030 H 
ENDBRANCH  19  25
ENDBRANCH  16  19
ENDBRANCH  13  15
BRANCH  13  29
ATOM     29  CB  ARG d   1       2.877  19.589  14.776  0.00  0.00    -0.036 C 
ATOM     30  H10 ARG d   1       2.612  20.554  14.319  0.00  0.00     0.036 H 
ATOM     31  H11 ARG d   1       2.791  18.791  14.024  0.00  0.00     0.036 H 
BRANCH  29  32
ATOM     32  CG  ARG d   1       4.322  19.658  15.237  0.00  0.00    -0.048 C 
ATOM     33  H12 ARG d   1       4.553  18.760  15.829  0.00  0.00     0.035 H 
ATOM     34  H13 ARG d   1       4.457  20.554  15.861  0.00  0.00     0.035 H 
BRANCH  32  35
ATOM     35  CD  ARG d   1       5.274  19.730  14.057  0.00  0.00     0.009 C 
ATOM     36  H14 ARG d   1       6.306  19.797  14.432  0.00  0.00     0.064 H 
ATOM     37  H15 ARG d   1       5.041  20.626  13.462  0.00  0.00     0.064 H 
BRANCH  35  38
ATOM     38  NE  ARG d   1       5.153  18.550  13.207  0.00  0.00    -0.227 N 
ATOM     39  CZ  ARG d   1       4.560  18.537  12.018  0.00  0.00     0.665 C 
ATOM     40  NH1 ARG d   1       4.031  19.647  11.517  0.00  0.00    -0.235 N 
ATOM     41  NH2 ARG d   1       4.483  17.406  11.332  0.00  0.00    -0.235 N 
ATOM     42  H17 ARG d   1       3.573  19.628  10.595  0.00  0.00     0.174 HD
ATOM     43  H18 ARG d   1       4.079  20.527  12.051  0.00  0.00     0.174 HD
ATOM     44  H19 ARG d   1       4.892  16.542  11.716  0.00  0.00     0.174 HD
ATOM     45  H20 ARG d   1       4.014  17.391  10.415  0.00  0.00     0.174 HD
ATOM     46  H16 ARG d   1       5.555  17.667  13.552  0.00  0.00     0.177 HD
ENDBRANCH  35  38
ENDBRANCH  32  35
ENDBRANCH  29  32
ENDBRANCH  13  29
ENDBRANCH  10  13
ENDBRANCH   7   9
BRANCH   7  47
ATOM     47  CB  THR d   1      -2.678  20.043  16.360  0.00  0.00     0.060 C 
ATOM     48  H23 THR d   1      -3.699  20.078  15.952  0.00  0.00     0.086 H 
BRANCH  47  49
ATOM     49  OG1 THR d   1      -2.572  20.956  17.460  0.00  0.00    -0.393 OA
ATOM     50  H24 THR d   1      -3.188  20.706  18.138  0.00  0.00     0.210 HD
ENDBRANCH  47  49
BRANCH  47  51
ATOM     51  CG2 THR d   1      -2.383  18.635  16.853  0.00  0.00    -0.050 C 
ATOM     52  H25 THR d   1      -3.105  18.362  17.637  0.00  0.00     0.031 H 
ATOM     53  H26 THR d   1      -1.363  18.597  17.264  0.00  0.00     0.031 H 
ATOM     54  H27 THR d   1      -2.467  17.928  16.015  0.00  0.00     0.031 H 
ENDBRANCH  47  51
ENDBRANCH   7  47
ENDBRANCH   4   7
ENDBRANCH   1   3
BRANCH   1  55
ATOM     55  CB  M3L d   1      -2.755  23.860  12.430  0.00  0.00    -0.038 C 
ATOM     56  H30 M3L d   1      -1.674  23.675  12.514  0.00  0.00     0.036 H 
ATOM     57  H31 M3L d   1      -2.932  24.933  12.267  0.00  0.00     0.036 H 
BRANCH  55  58
ATOM     58  CG  M3L d   1      -3.286  23.091  11.217  0.00  0.00    -0.061 C 
ATOM     59  H32 M3L d   1      -4.368  23.274  11.138  0.00  0.00     0.033 H 
ATOM     60  H33 M3L d   1      -3.107  22.018  11.382  0.00  0.00     0.033 H 
BRANCH  58  61
ATOM     61  CD  M3L d   1      -2.633  23.489   9.894  0.00  0.00    -0.042 C 
ATOM     62  H34 M3L d   1      -1.540  23.483  10.020  0.00  0.00     0.035 H 
ATOM     63  H35 M3L d   1      -2.965  24.502   9.623  0.00  0.00     0.035 H 
BRANCH  61  64
ATOM     64  CE  M3L d   1      -3.008  22.524   8.762  0.00  0.00     0.084 C 
ATOM     65  H36 M3L d   1      -4.038  22.177   8.934  0.00  0.00     0.076 H 
ATOM     66  H37 M3L d   1      -2.321  21.666   8.801  0.00  0.00     0.076 H 
BRANCH  64  67
ATOM     67  NZ  M3L d   1      -2.936  23.128   7.364  0.00  0.00    -0.079 N 
BRANCH  67  68
ATOM     68  CM1 M3L d   1      -1.529  23.485   7.011  0.00  0.00     0.067 C 
ATOM     69  H38 M3L d   1      -1.503  23.918   6.000  0.00  0.00     0.068 H 
ATOM     70  H39 M3L d   1      -0.903  22.581   7.039  0.00  0.00     0.068 H 
ATOM     71  H40 M3L d   1      -1.145  24.219   7.734  0.00  0.00     0.068 H 
ENDBRANCH  67  68
BRANCH  67  72
ATOM     72  CM2 M3L d   1      -3.696  24.395   7.113  0.00  0.00     0.067 C 
ATOM     73  H41 M3L d   1      -4.759  24.237   7.346  0.00  0.00     0.068 H 
ATOM     74  H42 M3L d   1      -3.591  24.682   6.056  0.00  0.00     0.068 H 
ATOM     75  H43 M3L d   1      -3.296  25.196   7.752  0.00  0.00     0.068 H 
ENDBRANCH  67  72
BRANCH  67  76
ATOM     76  CM3 M3L d   1      -3.411  22.123   6.370  0.00  0.00     0.067 C 
ATOM     77  H44 M3L d   1      -2.874  21.175   6.522  0.00  0.00     0.068 H 
ATOM     78  H45 M3L d   1      -3.218  22.494   5.353  0.00  0.00     0.068 H 
ATOM     79  H46 M3L d   1      -4.491  21.959   6.502  0.00  0.00     0.068 H 
ENDBRANCH  67  76
ENDBRANCH  64  67
ENDBRANCH  61  64
ENDBRANCH  58  61
ENDBRANCH  55  58
ENDBRANCH   1  55
BRANCH   1  80
ATOM     80  C   M3L d   1      -4.935  23.511  13.610  0.00  0.00     0.241 C 
ATOM     81  O   M3L d   1      -5.585  22.505  13.322  0.00  0.00    -0.271 OA
ATOM     82  N   GLN d   1      -5.489  24.695  13.839  0.00  0.00    -0.346 N 
ATOM     83  H47 GLN d   1      -4.904  25.464  14.099  0.00  0.00     0.163 HD
BRANCH  82  84
ATOM     84  CA  GLN d   1      -6.925  24.905  13.722  0.00  0.00     0.090 C 
ATOM     85  H48 GLN d   1      -7.454  23.942  13.765  0.00  0.00     0.087 H 
BRANCH  84  86
ATOM     86  C   GLN d   1      -7.156  25.572  12.371  0.00  0.00     0.241 C 
ATOM     87  O   GLN d   1      -6.567  26.611  12.080  0.00  0.00    -0.271 OA
ATOM     88  N   THR d   1      -8.002  24.966  11.547  0.00  0.00    -0.344 N 
ATOM     89  H55 THR d   1      -8.450  24.121  11.839  0.00  0.00     0.163 HD
BRANCH  88  90
ATOM     90  CA  THR d   1      -8.293  25.508  10.221  0.00  0.00     0.113 C 
ATOM     91  H56 THR d   1      -7.361  25.556   9.639  0.00  0.00     0.091 H 
BRANCH  90  92
ATOM     92  C   THR d   1      -8.872  26.914  10.378  0.00  0.00     0.243 C 
ATOM     93  O   THR d   1      -9.839  27.117  11.110  0.00  0.00    -0.271 OA
ATOM     94  N   ALA d   1      -8.273  27.877   9.685  0.00  0.00    -0.345 N 
ATOM     95  H62 ALA d   1      -7.492  27.647   9.104  0.00  0.00     0.163 HD
BRANCH  94  96
ATOM     96  CA  ALA d   1      -8.730  29.267   9.752  0.00  0.00     0.090 C 
ATOM     97  H63 ALA d   1      -9.238  29.437  10.712  0.00  0.00     0.088 H 
BRANCH  96  98
ATOM     98  C   ALA d   1      -9.713  29.520   8.607  0.00  0.00     0.163 C 
ATOM     99  O   ALA d   1      -9.847  28.634   7.736  0.00  0.00    -0.648 OA
BRANCH  98 100
ATOM    100  O   ALA d   1     -10.406  30.653   8.540  0.00  0.00    -0.775 OA
ATOM    101  H67 ALA d   1     -11.335  30.456   8.564  0.00  0.00     0.167 HD
ENDBRANCH  98 100
ENDBRANCH  96  98
BRANCH  96 102
ATOM    102  CB  ALA d   1      -7.542  30.214   9.643  0.00  0.00    -0.048 C 
ATOM    103  H64 ALA d   1      -7.896  31.254   9.694  0.00  0.00     0.030 H 
ATOM    104  H65 ALA d   1      -7.028  30.049   8.685  0.00  0.00     0.030 H 
ATOM    105  H66 ALA d   1      -6.844  30.023  10.471  0.00  0.00     0.030 H 
ENDBRANCH  96 102
ENDBRANCH  94  96
ENDBRANCH  90  92
BRANCH  90 106
ATOM    106  CB  THR d   1      -9.309  24.627   9.473  0.00  0.00     0.060 C 
ATOM    107  H57 THR d   1     -10.255  24.610  10.034  0.00  0.00     0.086 H 
BRANCH 106 108
ATOM    108  OG1 THR d   1      -8.795  23.293   9.366  0.00  0.00    -0.393 OA
ATOM    109  H58 THR d   1      -8.649  22.941  10.236  0.00  0.00     0.210 HD
ENDBRANCH 106 108
BRANCH 106 110
ATOM    110  CG2 THR d   1      -9.565  25.179   8.076  0.00  0.00    -0.050 C 
ATOM    111  H59 THR d   1     -10.292  24.538   7.556  0.00  0.00     0.031 H 
ATOM    112  H60 THR d   1      -8.622  25.197   7.510  0.00  0.00     0.031 H 
ATOM    113  H61 THR d   1      -9.966  26.201   8.153  0.00  0.00     0.031 H 
ENDBRANCH 106 110
ENDBRANCH  90 106
ENDBRANCH  88  90
ENDBRANCH  84  86
BRANCH  84 114
ATOM    114  CB  GLN d   1      -7.422  25.811  14.851  0.00  0.00    -0.030 C 
ATOM    115  H49 GLN d   1      -6.936  26.792  14.745  0.00  0.00     0.037 H 
ATOM    116  H50 GLN d   1      -7.130  25.358  15.810  0.00  0.00     0.037 H 
BRANCH 114 117
ATOM    117  CG  GLN d   1      -8.927  26.024  14.863  0.00  0.00     0.011 C 
ATOM    118  H51 GLN d   1      -9.224  26.494  13.914  0.00  0.00     0.047 H 
ATOM    119  H52 GLN d   1      -9.182  26.692  15.699  0.00  0.00     0.047 H 
BRANCH 117 120
ATOM    120  CD  GLN d   1      -9.698  24.727  15.025  0.00  0.00     0.215 C 
ATOM    121  OE1 GLN d   1      -9.488  23.984  15.984  0.00  0.00    -0.274 OA
ATOM    122  NE2 GLN d   1     -10.599  24.452  14.087  0.00  0.00    -0.370 N 
ATOM    123  H53 GLN d   1     -11.137  23.611  14.142  0.00  0.00     0.159 HD
ATOM    124  H54 GLN d   1     -10.739  25.086  13.327  0.00  0.00     0.159 HD
ENDBRANCH 117 120
ENDBRANCH 114 117
ENDBRANCH  84 114
ENDBRANCH  82  84
ENDBRANCH   1  80
TORSDOF 38
