REMARK  17 active torsions:
REMARK  status: ('A' for Active; 'I' for Inactive)
REMARK    1  A    between atoms: C42_3  and  O47_4 
REMARK    2  A    between atoms: C39_7  and  C24_8 
REMARK    3  A    between atoms: C24_8  and  C23_9 
REMARK    4  A    between atoms: C23_9  and  C25_10 
REMARK    5  A    between atoms: C23_9  and  N22_13 
REMARK       I    between atoms: N22_13  and  C20_14 
REMARK    6  A    between atoms: C20_14  and  C18_16 
REMARK    7  A    between atoms: C18_16  and  C19_17 
REMARK    8  A    between atoms: C18_16  and  N16_24 
REMARK    9  A    between atoms: C19_17  and  C33_18 
REMARK   10  A    between atoms: N16_24  and  C17_25 
REMARK       I    between atoms: N16_24  and  C14_26 
REMARK   11  A    between atoms: C14_26  and  C12_28 
REMARK   12  A    between atoms: C12_28  and  C13_29 
REMARK   13  A    between atoms: C12_28  and  N10_35 
REMARK   14  A    between atoms: C13_29  and  C28_30 
REMARK       I    between atoms: N10_35  and  C9_36 
REMARK   15  A    between atoms: C9_36  and  O8_38 
REMARK   16  A    between atoms: O8_38  and  C7_39 
REMARK   17  A    between atoms: C7_39  and  C5_40 
ROOT
ATOM      1  C18 CX1 d   1       6.657  17.868  23.063  0.00  0.00     0.095 C 
ATOM      2  H10 CX1 d   1       5.603  17.981  22.768  0.00  0.00     0.088 H 
ENDROOT
BRANCH   1   3
ATOM      3  C20 CX1 d   1       6.710  16.838  24.198  0.00  0.00     0.241 C 
ATOM      4  N22 CX1 d   1       5.531  16.498  24.727  0.00  0.00    -0.344 N 
ATOM      5  H9  CX1 d   1       4.698  16.931  24.381  0.00  0.00     0.163 HD
ATOM      6  O21 CX1 d   1       7.775  16.364  24.571  0.00  0.00    -0.271 OA
BRANCH   4   7
ATOM      7  C23 CX1 d   1       5.427  15.491  25.818  0.00  0.00     0.100 C 
ATOM      8  H8  CX1 d   1       6.453  15.224  26.110  0.00  0.00     0.090 H 
BRANCH   7   9
ATOM      9  C24 CX1 d   1       4.720  16.001  27.096  0.00  0.00    -0.013 C 
ATOM     10  H6  CX1 d   1       3.768  15.458  27.192  0.00  0.00     0.043 H 
ATOM     11  H7  CX1 d   1       5.366  15.763  27.954  0.00  0.00     0.043 H 
BRANCH   9  12
ATOM     12  C39 CX1 d   1       4.406  17.515  27.149  0.00  0.00    -0.056 A 
ATOM     13  C40 CX1 d   1       3.110  17.973  26.842  0.00  0.00    -0.074 A 
ATOM     14  C41 CX1 d   1       2.819  19.339  26.894  0.00  0.00    -0.051 A 
ATOM     15  H1  CX1 d   1       2.337  17.265  26.565  0.00  0.00     0.084 H 
ATOM     16  C42 CX1 d   1       3.810  20.265  27.265  0.00  0.00     0.065 A 
ATOM     17  H2  CX1 d   1       1.823  19.687  26.647  0.00  0.00     0.087 H 
ATOM     18  C43 CX1 d   1       5.095  19.797  27.583  0.00  0.00    -0.051 A 
ATOM     19  C44 CX1 d   1       5.397  18.431  27.525  0.00  0.00    -0.074 A 
ATOM     20  H4  CX1 d   1       5.864  20.503  27.877  0.00  0.00     0.087 H 
ATOM     21  H5  CX1 d   1       6.394  18.084  27.770  0.00  0.00     0.084 H 
BRANCH  16  22
ATOM     22  O47 CX1 d   1       3.524  21.614  27.311  0.00  0.00    -0.361 OA
ATOM     23  H3  CX1 d   1       4.300  22.092  27.578  0.00  0.00     0.217 HD
ENDBRANCH  16  22
ENDBRANCH   9  12
ENDBRANCH   7   9
BRANCH   7  24
ATOM     24  C25 CX1 d   1       4.748  14.218  25.268  0.00  0.00     0.197 C 
ATOM     25  O26 CX1 d   1       5.208  13.120  25.672  0.00  0.00    -0.646 OA
ATOM     26  O27 CX1 d   1       3.813  14.352  24.446  0.00  0.00    -0.646 OA
ENDBRANCH   7  24
ENDBRANCH   4   7
ENDBRANCH   1   3
BRANCH   1  27
ATOM     27  C19 CX1 d   1       7.450  17.363  21.804  0.00  0.00    -0.014 C 
ATOM     28  H11 CX1 d   1       6.897  16.522  21.360  0.00  0.00     0.043 H 
ATOM     29  H12 CX1 d   1       8.440  17.017  22.134  0.00  0.00     0.043 H 
BRANCH  27  30
ATOM     30  C33 CX1 d   1       7.653  18.460  20.699  0.00  0.00    -0.056 A 
ATOM     31  C34 CX1 d   1       8.775  18.443  19.869  0.00  0.00    -0.077 A 
ATOM     32  C35 CX1 d   1       8.966  19.424  18.922  0.00  0.00    -0.082 A 
ATOM     33  H13 CX1 d   1       9.505  17.648  19.971  0.00  0.00     0.084 H 
ATOM     34  C36 CX1 d   1       8.036  20.423  18.745  0.00  0.00    -0.083 A 
ATOM     35  H14 CX1 d   1       9.860  19.409  18.308  0.00  0.00     0.083 H 
ATOM     36  C37 CX1 d   1       6.905  20.448  19.545  0.00  0.00    -0.082 A 
ATOM     37  H15 CX1 d   1       8.187  21.183  17.987  0.00  0.00     0.083 H 
ATOM     38  C38 CX1 d   1       6.720  19.480  20.522  0.00  0.00    -0.077 A 
ATOM     39  H16 CX1 d   1       6.163  21.226  19.407  0.00  0.00     0.083 H 
ATOM     40  H17 CX1 d   1       5.840  19.518  21.154  0.00  0.00     0.084 H 
ENDBRANCH  27  30
ENDBRANCH   1  27
BRANCH   1  41
ATOM     41  N16 CX1 d   1       7.140  19.205  23.511  0.00  0.00    -0.341 N 
ATOM     42  C14 CX1 d   1       6.251  20.176  23.785  0.00  0.00     0.243 C 
ATOM     43  O15 CX1 d   1       5.039  20.013  23.741  0.00  0.00    -0.271 OA
BRANCH  41  44
ATOM     44  C17 CX1 d   1       8.570  19.557  23.626  0.00  0.00    -0.015 C 
ATOM     45  H18 CX1 d   1       8.665  20.596  23.975  0.00  0.00     0.056 H 
ATOM     46  H19 CX1 d   1       9.053  19.455  22.643  0.00  0.00     0.056 H 
ATOM     47  H20 CX1 d   1       9.057  18.883  24.346  0.00  0.00     0.056 H 
ENDBRANCH  41  44
BRANCH  42  48
ATOM     48  C12 CX1 d   1       6.824  21.537  24.215  0.00  0.00     0.097 C 
ATOM     49  H21 CX1 d   1       7.849  21.362  24.573  0.00  0.00     0.088 H 
BRANCH  48  50
ATOM     50  C13 CX1 d   1       5.995  22.168  25.386  0.00  0.00     0.004 C 
ATOM     51  H22 CX1 d   1       5.954  21.447  26.216  0.00  0.00     0.046 H 
ATOM     52  H23 CX1 d   1       4.976  22.370  25.026  0.00  0.00     0.046 H 
BRANCH  50  53
ATOM     53  C28 CX1 d   1       6.608  23.494  25.910  0.00  0.00     0.053 A 
ATOM     54  C29 CX1 d   1       7.101  23.706  27.142  0.00  0.00     0.002 A 
ATOM     55  N30 CX1 d   1       7.551  24.964  27.230  0.00  0.00    -0.359 N 
ATOM     56  H24 CX1 d   1       7.130  22.970  27.944  0.00  0.00     0.114 H 
ATOM     57  C31 CX1 d   1       7.311  25.528  26.056  0.00  0.00     0.064 A 
ATOM     58  H25 CX1 d   1       7.995  25.405  28.048  0.00  0.00     0.166 HD
ATOM     59  N32 CX1 d   1       6.742  24.636  25.243  0.00  0.00    -0.247 NA
ATOM     60  H26 CX1 d   1       7.542  26.560  25.795  0.00  0.00     0.143 H 
ENDBRANCH  50  53
ENDBRANCH  48  50
BRANCH  48  61
ATOM     61  N10 CX1 d   1       6.889  22.523  23.109  0.00  0.00    -0.323 N 
ATOM     62  C9  CX1 d   1       8.057  23.007  22.671  0.00  0.00     0.361 C 
ATOM     63  O11 CX1 d   1       9.146  22.651  23.148  0.00  0.00    -0.238 OA
ATOM     64  H27 CX1 d   1       6.040  22.833  22.681  0.00  0.00     0.165 HD
BRANCH  62  65
ATOM     65  O8  CX1 d   1       8.054  23.996  21.707  0.00  0.00    -0.299 OA
BRANCH  65  66
ATOM     66  C7  CX1 d   1       7.992  23.781  20.298  0.00  0.00     0.054 C 
ATOM     67  H28 CX1 d   1       7.521  22.804  20.116  0.00  0.00     0.082 H 
ATOM     68  H29 CX1 d   1       9.018  23.772  19.902  0.00  0.00     0.082 H 
BRANCH  66  69
ATOM     69  C5  CX1 d   1       7.273  24.744  19.622  0.00  0.00    -0.034 A 
ATOM     70  C6  CX1 d   1       7.340  26.070  20.069  0.00  0.00    -0.075 A 
ATOM     71  C1  CX1 d   1       6.604  27.059  19.435  0.00  0.00    -0.082 A 
ATOM     72  H30 CX1 d   1       7.970  26.324  20.914  0.00  0.00     0.084 H 
ATOM     73  C2  CX1 d   1       5.796  26.719  18.350  0.00  0.00    -0.083 A 
ATOM     74  H31 CX1 d   1       6.656  28.086  19.779  0.00  0.00     0.083 H 
ATOM     75  C3  CX1 d   1       5.721  25.390  17.925  0.00  0.00    -0.082 A 
ATOM     76  H32 CX1 d   1       5.226  27.485  17.837  0.00  0.00     0.083 H 
ATOM     77  C4  CX1 d   1       6.451  24.389  18.566  0.00  0.00    -0.075 A 
ATOM     78  H33 CX1 d   1       5.086  25.133  17.085  0.00  0.00     0.083 H 
ATOM     79  H34 CX1 d   1       6.376  23.356  18.245  0.00  0.00     0.084 H 
ENDBRANCH  66  69
ENDBRANCH  65  66
ENDBRANCH  62  65
ENDBRANCH  48  61
ENDBRANCH  42  48
ENDBRANCH   1  41
TORSDOF 17
