REMARK  8 active torsions:
REMARK  status: ('A' for Active; 'I' for Inactive)
REMARK    1  A    between atoms: O3A_8  and  PB_1 
REMARK    2  A    between atoms: PA_5  and  O3A_8 
REMARK    3  A    between atoms: PA_5  and  O5'_9 
REMARK    4  A    between atoms: O5'_9  and  C5'_10 
REMARK    5  A    between atoms: C5'_10  and  C4'_11 
REMARK    6  A    between atoms: C3'_13  and  O3'_14 
REMARK    7  A    between atoms: C2'_15  and  O2'_16 
REMARK    8  A    between atoms: C1'_17  and  N9_18 
ROOT
ATOM      1  C4' ADP d   1     -30.492  15.719 -19.583  0.00  0.00     0.089 C 
ATOM      2  O4' ADP d   1     -31.368  16.593 -20.310  0.00  0.00    -0.353 OA
ATOM      3  C3' ADP d   1     -29.069  16.219 -19.768  0.00  0.00     0.091 C 
ATOM      4  C2' ADP d   1     -29.227  17.606 -20.349  0.00  0.00     0.105 C 
ATOM      5  C1' ADP d   1     -30.630  17.631 -20.954  0.00  0.00     0.139 C 
ATOM      6  H3  ADP d   1     -30.578  14.698 -19.983  0.00  0.00     0.090 H 
ATOM      7  H4  ADP d   1     -28.529  16.243 -18.810  0.00  0.00     0.091 H 
ATOM      8  H6  ADP d   1     -29.148  18.363 -19.555  0.00  0.00     0.093 H 
ATOM      9  H8  ADP d   1     -30.587  17.422 -22.033  0.00  0.00     0.122 H 
ENDROOT
BRANCH   5  10
ATOM     10  N9  ADP d   1     -31.176  18.998 -20.753  0.00  0.00    -0.294 N 
ATOM     11  C8  ADP d   1     -31.300  19.659 -19.585  0.00  0.00     0.071 A 
ATOM     12  N7  ADP d   1     -31.796  20.921 -19.765  0.00  0.00    -0.236 NA
ATOM     13  H9  ADP d   1     -31.037  19.239 -18.615  0.00  0.00     0.144 H 
ATOM     14  C5  ADP d   1     -31.979  21.078 -21.091  0.00  0.00     0.149 A 
ATOM     15  C6  ADP d   1     -32.468  22.153 -21.979  0.00  0.00     0.155 A 
ATOM     16  C4  ADP d   1     -31.564  19.816 -21.734  0.00  0.00     0.167 A 
ATOM     17  N6  ADP d   1     -32.869  23.331 -21.470  0.00  0.00    -0.382 N 
ATOM     18  N1  ADP d   1     -32.508  21.913 -23.305  0.00  0.00    -0.222 NA
ATOM     19  H10 ADP d   1     -33.208  24.074 -22.097  0.00  0.00     0.157 HD
ATOM     20  H11 ADP d   1     -32.837  23.490 -20.453  0.00  0.00     0.157 HD
ATOM     21  C2  ADP d   1     -32.108  20.737 -23.819  0.00  0.00     0.091 A 
ATOM     22  N3  ADP d   1     -31.652  19.712 -23.081  0.00  0.00    -0.222 NA
ATOM     23  H12 ADP d   1     -32.157  20.608 -24.894  0.00  0.00     0.146 H 
ENDBRANCH   5  10
BRANCH   4  24
ATOM     24  O2' ADP d   1     -28.213  17.853 -21.326  0.00  0.00    -0.388 OA
ATOM     25  H7  ADP d   1     -27.358  17.782 -20.918  0.00  0.00     0.210 HD
ENDBRANCH   4  24
BRANCH   1  26
ATOM     26  C5' ADP d   1     -30.856  15.705 -18.095  0.00  0.00     0.058 C 
ATOM     27  H1  ADP d   1     -30.265  14.930 -17.586  0.00  0.00     0.079 H 
ATOM     28  H2  ADP d   1     -30.627  16.688 -17.658  0.00  0.00     0.079 H 
BRANCH  26  29
ATOM     29  O5' ADP d   1     -32.241  15.427 -17.920  0.00  0.00    -0.287 OA
BRANCH  29  30
ATOM     30  PA  ADP d   1     -32.737  14.486 -16.731  0.00  0.00     0.418 P 
ATOM     31  O1A ADP d   1     -34.080  13.967 -17.148  0.00  0.00    -0.624 OA
ATOM     32  O2A ADP d   1     -32.518  15.143 -15.387  0.00  0.00    -0.624 OA
BRANCH  30  33
ATOM     33  O3A ADP d   1     -31.715  13.240 -16.832  0.00  0.00    -0.173 OA
BRANCH  33  34
ATOM     34  PB  ADP d   1     -31.872  11.906 -15.930  0.00  0.00     0.431 P 
ATOM     35  O1B ADP d   1     -31.649  10.723 -16.883  0.00  0.00    -0.616 OA
ATOM     36  O2B ADP d   1     -33.299  11.999 -15.433  0.00  0.00    -0.616 OA
ATOM     37  O3B ADP d   1     -30.817  12.070 -14.856  0.00  0.00    -0.616 OA
ENDBRANCH  33  34
ENDBRANCH  30  33
ENDBRANCH  29  30
ENDBRANCH  26  29
ENDBRANCH   1  26
BRANCH   3  38
ATOM     38  O3' ADP d   1     -28.370  15.399 -20.711  0.00  0.00    -0.390 OA
ATOM     39  H5  ADP d   1     -27.483  15.724 -20.816  0.00  0.00     0.210 HD
ENDBRANCH   3  38
TORSDOF 8
