REMARK  6 active torsions:
REMARK  status: ('A' for Active; 'I' for Inactive)
REMARK    1  A    between atoms: C1_5  and  O3_2 
REMARK    2  A    between atoms: O3_2  and  S1_11 
REMARK    3  A    between atoms: S1_11  and  N1_7 
REMARK    4  A    between atoms: C12_18  and  C15_21 
REMARK    5  A    between atoms: N2_24  and  C19_27 
REMARK    6  A    between atoms: C19_27  and  C20_28 
ROOT
ATOM      1  O4  POF d   1      -3.450  12.488  13.715  0.00  0.00    -0.273 OA
ATOM      2  C1  POF d   1      -4.376   2.574  14.635  0.00  0.00     0.091 A 
ATOM      3  C2  POF d   1      -5.171   3.734  14.571  0.00  0.00    -0.043 A 
ATOM      4  C3  POF d   1      -4.551   4.993  14.337  0.00  0.00    -0.049 A 
ATOM      5  C4  POF d   1      -3.117   5.078  14.167  0.00  0.00    -0.047 A 
ATOM      6  C5  POF d   1      -2.367   3.867  14.242  0.00  0.00    -0.073 A 
ATOM      7  C6  POF d   1      -2.987   2.625  14.474  0.00  0.00    -0.049 A 
ATOM      8  C7  POF d   1      -5.418   6.234  14.278  0.00  0.00    -0.040 C 
ATOM      9  C8  POF d   1      -4.614   7.540  14.480  0.00  0.00    -0.057 C 
ATOM     10  C9  POF d   1      -3.418   7.580  13.520  0.00  0.00    -0.041 C 
ATOM     11  C10 POF d   1      -2.414   6.439  13.922  0.00  0.00    -0.024 C 
ATOM     12  C11 POF d   1      -2.640   8.941  13.540  0.00  0.00    -0.026 C 
ATOM     13  C12 POF d   1      -1.439   8.948  12.497  0.00  0.00     0.042 C 
ATOM     14  C13 POF d   1      -0.522   7.713  12.759  0.00  0.00    -0.049 C 
ATOM     15  C14 POF d   1      -1.291   6.377  12.857  0.00  0.00    -0.056 C 
ATOM     16  C16 POF d   1      -3.549  10.182  13.273  0.00  0.00     0.015 C 
ATOM     17  C17 POF d   1      -2.809  11.495  13.362  0.00  0.00     0.227 C 
ATOM     18  N2  POF d   1      -1.375  11.506  13.033  0.00  0.00    -0.283 N 
ATOM     19  C18 POF d   1      -0.657  10.272  12.610  0.00  0.00     0.235 C 
ATOM     20  O5  POF d   1       0.559  10.280  12.339  0.00  0.00    -0.272 OA
ATOM     21  H1  POF d   1      -6.245   3.669  14.699  0.00  0.00     0.088 H 
ATOM     22  H4  POF d   1      -1.291   3.904  14.117  0.00  0.00     0.084 H 
ATOM     23  H5  POF d   1      -2.395   1.718  14.527  0.00  0.00     0.087 H 
ATOM     24  H6  POF d   1      -6.182   6.167  15.067  0.00  0.00     0.040 H 
ATOM     25  H7  POF d   1      -5.909   6.273  13.294  0.00  0.00     0.040 H 
ATOM     26  H8  POF d   1      -4.249   7.585  15.517  0.00  0.00     0.034 H 
ATOM     27  H9  POF d   1      -5.267   8.403  14.283  0.00  0.00     0.034 H 
ATOM     28  H10 POF d   1      -3.786   7.403  12.499  0.00  0.00     0.041 H 
ATOM     29  H11 POF d   1      -1.948   6.727  14.876  0.00  0.00     0.048 H 
ATOM     30  H12 POF d   1      -2.213   9.053  14.548  0.00  0.00     0.043 H 
ATOM     31  H13 POF d   1       0.015   7.874  13.705  0.00  0.00     0.034 H 
ATOM     32  H14 POF d   1       0.202   7.637  11.934  0.00  0.00     0.034 H 
ATOM     33  H15 POF d   1      -1.740   6.152  11.878  0.00  0.00     0.034 H 
ATOM     34  H16 POF d   1      -0.585   5.579  13.129  0.00  0.00     0.034 H 
ATOM     35  H20 POF d   1      -4.360  10.187  14.016  0.00  0.00     0.047 H 
ATOM     36  H21 POF d   1      -3.977  10.090  12.264  0.00  0.00     0.047 H 
ENDROOT
BRANCH  18  37
ATOM     37  C19 POF d   1      -0.598  12.819  13.127  0.00  0.00     0.030 C 
ATOM     38  H22 POF d   1      -1.251  13.620  12.752  0.00  0.00     0.072 H 
ATOM     39  H23 POF d   1       0.285  12.731  12.477  0.00  0.00     0.072 H 
BRANCH  37  40
ATOM     40  C20 POF d   1      -0.130  13.215  14.461  0.00  0.00    -0.022 A 
ATOM     41  C21 POF d   1       0.738  12.435  15.233  0.00  0.00    -0.072 A 
ATOM     42  C22 POF d   1       1.188  12.869  16.570  0.00  0.00    -0.065 A 
ATOM     43  H24 POF d   1       1.089  11.488  14.839  0.00  0.00     0.084 H 
ATOM     44  C23 POF d   1       0.728  14.081  17.052  0.00  0.00     0.002 A 
ATOM     45  H25 POF d   1       1.860  12.255  17.158  0.00  0.00     0.085 H 
ATOM     46  N3  POF d   1      -0.090  14.809  16.317  0.00  0.00    -0.273 NA
ATOM     47  H26 POF d   1       1.038  14.431  18.030  0.00  0.00     0.114 H 
ATOM     48  C24 POF d   1      -0.546  14.430  15.030  0.00  0.00     0.009 A 
ATOM     49  H27 POF d   1      -1.218  15.080  14.482  0.00  0.00     0.115 H 
ENDBRANCH  37  40
ENDBRANCH  18  37
BRANCH  13  50
ATOM     50  C15 POF d   1      -1.951   8.904  11.014  0.00  0.00    -0.060 C 
ATOM     51  H17 POF d   1      -2.598   9.773  10.824  0.00  0.00     0.029 H 
ATOM     52  H18 POF d   1      -2.522   7.978  10.851  0.00  0.00     0.029 H 
ATOM     53  H19 POF d   1      -1.091   8.930  10.328  0.00  0.00     0.029 H 
ENDBRANCH  13  50
BRANCH   2  54
ATOM     54  O3  POF d   1      -4.933   1.287  14.872  0.00  0.00    -0.217 OA
BRANCH  54  55
ATOM     55  S1  POF d   1      -5.577   0.949  16.316  0.00  0.00     0.360 S 
ATOM     56  O1  POF d   1      -4.680   1.493  17.280  0.00  0.00    -0.176 OA
ATOM     57  O2  POF d   1      -6.922   1.418  16.244  0.00  0.00    -0.176 OA
BRANCH  55  58
ATOM     58  N1  POF d   1      -5.576  -0.613  16.469  0.00  0.00    -0.305 N 
ATOM     59  H2  POF d   1      -5.937  -1.034  17.301  0.00  0.00     0.171 HD
ATOM     60  H3  POF d   1      -5.215  -1.187  15.734  0.00  0.00     0.171 HD
ENDBRANCH  55  58
ENDBRANCH  54  55
ENDBRANCH   2  54
TORSDOF 6
