REMARK  11 active torsions:
REMARK  status: ('A' for Active; 'I' for Inactive)
REMARK    1  A    between atoms: C3_3  and  C1_1 
REMARK    2  A    between atoms: C3_3  and  C7_7 
REMARK    3  A    between atoms: C15_10  and  N8_34 
REMARK    4  A    between atoms: C16_11  and  C21_15 
REMARK    5  A    between atoms: C21_15  and  O25_18 
REMARK    6  A    between atoms: O25_18  and  C28_38 
REMARK    7  A    between atoms: N29_32  and  C27_20 
REMARK    8  A    between atoms: C32_23  and  C30_21 
REMARK       I    between atoms: C30_21  and  N29_32 
REMARK    9  A    between atoms: N29_32  and  C31_22 
REMARK   10  A    between atoms: N34_30  and  C32_23 
REMARK   11  A    between atoms: N39_31  and  C40_28 
ROOT
ATOM      1  C15 XIN d   1      21.095  67.649  28.855  0.00  0.00     0.032 A 
ATOM      2  C19 XIN d   1      22.155  68.459  28.788  0.00  0.00    -0.055 A 
ATOM      3  C23 XIN d   1      22.134  69.617  28.056  0.00  0.00    -0.055 A 
ATOM      4  C24 XIN d   1      19.946  69.196  27.365  0.00  0.00    -0.055 A 
ATOM      5  C27 XIN d   1      21.045  70.031  27.333  0.00  0.00     0.036 A 
ATOM      6  C20 XIN d   1      19.994  68.021  28.117  0.00  0.00    -0.055 A 
ATOM      7  H6  XIN d   1      23.057  68.193  29.328  0.00  0.00     0.087 H 
ATOM      8  H7  XIN d   1      23.023  70.237  28.048  0.00  0.00     0.087 H 
ATOM      9  H8  XIN d   1      19.051  69.451  26.809  0.00  0.00     0.087 H 
ATOM     10  H27 XIN d   1      19.125  67.372  28.120  0.00  0.00     0.087 H 
ENDROOT
BRANCH   1  11
ATOM     11  N8  XIN d   1      21.355  66.572  29.629  0.00  0.00    -0.355 N 
ATOM     12  C3  XIN d   1      20.803  65.358  29.883  0.00  0.00     0.059 C 
ATOM     13  H28 XIN d   1      22.213  66.712  30.181  0.00  0.00     0.166 HD
BRANCH  12  14
ATOM     14  C1  XIN d   1      21.331  64.474  30.745  0.00  0.00     0.072 A 
ATOM     15  C2  XIN d   1      20.976  63.132  31.193  0.00  0.00     0.009 A 
ATOM     16  C5  XIN d   1      21.951  62.753  32.092  0.00  0.00     0.047 A 
ATOM     17  C6  XIN d   1      19.951  62.280  30.927  0.00  0.00    -0.069 A 
ATOM     18  C11 XIN d   1      21.946  61.536  32.728  0.00  0.00    -0.041 A 
ATOM     19  N9  XIN d   1      22.873  63.730  32.223  0.00  0.00    -0.322 N 
ATOM     20  C16 XIN d   1      20.897  60.657  32.446  0.00  0.00     0.041 A 
ATOM     21  H2  XIN d   1      22.730  61.266  33.426  0.00  0.00     0.088 H 
ATOM     22  C12 XIN d   1      19.925  61.047  31.541  0.00  0.00    -0.066 A 
ATOM     23  H3  XIN d   1      19.119  60.361  31.308  0.00  0.00     0.085 H 
ATOM     24  C4  XIN d   1      22.580  64.802  31.479  0.00  0.00     0.259 A 
ATOM     25  H35 XIN d   1      23.681  63.660  32.808  0.00  0.00     0.169 HD
ATOM     26  O10 XIN d   1      23.197  65.769  31.404  0.00  0.00    -0.267 OA
ATOM     27  H1  XIN d   1      19.163  62.567  30.240  0.00  0.00     0.085 H 
BRANCH  20  28
ATOM     28  C21 XIN d   1      20.849  59.301  33.055  0.00  0.00     0.293 C 
ATOM     29  O26 XIN d   1      19.991  58.537  32.849  0.00  0.00    -0.259 OA
BRANCH  28  30
ATOM     30  O25 XIN d   1      21.908  58.977  33.775  0.00  0.00    -0.323 OA
BRANCH  30  31
ATOM     31  C28 XIN d   1      21.824  57.666  34.235  0.00  0.00     0.013 C 
ATOM     32  H32 XIN d   1      22.718  57.428  34.829  0.00  0.00     0.067 H 
ATOM     33  H33 XIN d   1      21.760  56.980  33.378  0.00  0.00     0.067 H 
ATOM     34  H34 XIN d   1      20.927  57.554  34.862  0.00  0.00     0.067 H 
ENDBRANCH  30  31
ENDBRANCH  28  30
ENDBRANCH  20  28
ENDBRANCH  12  14
BRANCH  12  35
ATOM     35  C7  XIN d   1      19.567  65.043  29.184  0.00  0.00    -0.008 A 
ATOM     36  C14 XIN d   1      19.514  64.925  27.820  0.00  0.00    -0.071 A 
ATOM     37  C18 XIN d   1      18.321  64.641  27.225  0.00  0.00    -0.082 A 
ATOM     38  H29 XIN d   1      20.409  65.056  27.222  0.00  0.00     0.084 H 
ATOM     39  C22 XIN d   1      17.177  64.478  27.965  0.00  0.00    -0.083 A 
ATOM     40  H5  XIN d   1      18.275  64.542  26.146  0.00  0.00     0.083 H 
ATOM     41  C17 XIN d   1      17.227  64.633  29.323  0.00  0.00    -0.082 A 
ATOM     42  H30 XIN d   1      16.241  64.228  27.477  0.00  0.00     0.083 H 
ATOM     43  C13 XIN d   1      18.416  64.918  29.922  0.00  0.00    -0.071 A 
ATOM     44  H4  XIN d   1      16.327  64.530  29.918  0.00  0.00     0.083 H 
ATOM     45  H31 XIN d   1      18.454  65.048  30.997  0.00  0.00     0.084 H 
ENDBRANCH  12  35
ENDBRANCH   1  11
BRANCH   5  46
ATOM     46  N29 XIN d   1      21.143  71.258  26.625  0.00  0.00    -0.321 N 
ATOM     47  C30 XIN d   1      20.656  72.428  27.138  0.00  0.00     0.249 C 
ATOM     48  O33 XIN d   1      20.659  73.441  26.505  0.00  0.00    -0.271 OA
BRANCH  47  49
ATOM     49  C32 XIN d   1      20.199  72.399  28.600  0.00  0.00     0.156 C 
ATOM     50  H12 XIN d   1      20.607  71.499  29.083  0.00  0.00     0.090 H 
ATOM     51  H13 XIN d   1      19.100  72.365  28.630  0.00  0.00     0.090 H 
BRANCH  49  52
ATOM     52  N34 XIN d   1      20.653  73.570  29.327  0.00  0.00    -0.060 N 
ATOM     53  C35 XIN d   1      19.604  74.066  30.200  0.00  0.00     0.106 C 
ATOM     54  C37 XIN d   1      19.935  75.422  30.797  0.00  0.00     0.105 C 
ATOM     55  H14 XIN d   1      18.674  74.154  29.619  0.00  0.00     0.078 H 
ATOM     56  H15 XIN d   1      19.458  73.347  31.019  0.00  0.00     0.078 H 
ATOM     57  N39 XIN d   1      21.212  75.392  31.470  0.00  0.00    -0.072 N 
ATOM     58  H18 XIN d   1      19.153  75.697  31.520  0.00  0.00     0.078 H 
ATOM     59  H19 XIN d   1      19.970  76.171  29.992  0.00  0.00     0.078 H 
ATOM     60  C38 XIN d   1      22.246  74.744  30.679  0.00  0.00     0.105 C 
ATOM     61  H26 XIN d   1      21.110  74.888  32.337  0.00  0.00     0.279 HD
ATOM     62  C36 XIN d   1      21.829  73.387  30.125  0.00  0.00     0.106 C 
ATOM     63  H20 XIN d   1      22.501  75.401  29.834  0.00  0.00     0.078 H 
ATOM     64  H21 XIN d   1      23.133  74.603  31.314  0.00  0.00     0.078 H 
ATOM     65  H16 XIN d   1      21.613  72.697  30.954  0.00  0.00     0.078 H 
ATOM     66  H17 XIN d   1      22.638  72.973  29.506  0.00  0.00     0.078 H 
ATOM     67  H25 XIN d   1      20.860  74.279  28.641  0.00  0.00     0.280 HD
BRANCH  57  68
ATOM     68  C40 XIN d   1      21.602  76.750  31.751  0.00  0.00     0.066 C 
ATOM     69  H22 XIN d   1      20.820  77.240  32.349  0.00  0.00     0.068 H 
ATOM     70  H23 XIN d   1      21.736  77.296  30.806  0.00  0.00     0.068 H 
ATOM     71  H24 XIN d   1      22.548  76.751  32.313  0.00  0.00     0.068 H 
ENDBRANCH  57  68
ENDBRANCH  49  52
ENDBRANCH  47  49
BRANCH  46  72
ATOM     72  C31 XIN d   1      21.866  71.330  25.376  0.00  0.00    -0.011 C 
ATOM     73  H9  XIN d   1      22.197  70.322  25.085  0.00  0.00     0.057 H 
ATOM     74  H10 XIN d   1      22.743  71.983  25.497  0.00  0.00     0.057 H 
ATOM     75  H11 XIN d   1      21.209  71.740  24.595  0.00  0.00     0.057 H 
ENDBRANCH  46  72
ENDBRANCH   5  46
TORSDOF 11
