REMARK  11 active torsions:
REMARK  status: ('A' for Active; 'I' for Inactive)
REMARK    1  A    between atoms: N1_1  and  CA1_2 
REMARK    2  A    between atoms: CA1_2  and  C1_3 
REMARK    3  A    between atoms: CA1_2  and  CB1_6 
REMARK    4  A    between atoms: CB1_6  and  CG1_7 
REMARK    5  A    between atoms: CG1_7  and  CD1_8 
REMARK    6  A    between atoms: N2_10  and  CA2_11 
REMARK    7  A    between atoms: CA2_11  and  C2_12 
REMARK    8  A    between atoms: CA2_11  and  CB2_14 
REMARK    9  A    between atoms: CB2_14  and  SG2_15 
REMARK   10  A    between atoms: N3_16  and  CA3_17 
REMARK   11  A    between atoms: CA3_17  and  C3_18 
ROOT
ATOM      1  CD1 GSH d   1      40.357  67.808  10.335  0.00  0.00     0.152 C 
ATOM      2  OE1 GSH d   1      40.653  66.526  10.679  0.00  0.00    -0.177 OA
ATOM      3  N2  GSH d   1      39.894  68.125   9.116  0.00  0.00    -0.359 N 
ATOM      4  H9  GSH d   1      39.599  69.054   8.893  0.00  0.00     0.162 HD
ENDROOT
BRANCH   3   5
ATOM      5  CA2 GSH d   1      39.840  67.025   8.111  0.00  0.00     0.083 C 
ATOM      6  H10 GSH d   1      40.182  66.076   8.550  0.00  0.00     0.086 H 
BRANCH   5   7
ATOM      7  C2  GSH d   1      40.662  67.387   6.922  0.00  0.00     0.175 C 
ATOM      8  O2  GSH d   1      40.655  68.666   6.505  0.00  0.00    -0.175 OA
ATOM      9  N3  GSH d   1      41.415  66.456   6.327  0.00  0.00    -0.360 N 
ATOM     10  H14 GSH d   1      41.386  65.508   6.643  0.00  0.00     0.162 HD
BRANCH   9  11
ATOM     11  CA3 GSH d   1      42.281  66.834   5.210  0.00  0.00     0.074 C 
ATOM     12  H15 GSH d   1      42.669  67.849   5.381  0.00  0.00     0.080 H 
ATOM     13  H16 GSH d   1      41.697  66.817   4.278  0.00  0.00     0.080 H 
BRANCH  11  14
ATOM     14  C3  GSH d   1      43.433  65.880   5.087  0.00  0.00     0.191 C 
ATOM     15  O31 GSH d   1      43.601  65.000   5.963  0.00  0.00    -0.647 OA
ATOM     16  O32 GSH d   1      44.240  66.095   4.122  0.00  0.00    -0.647 OA
ENDBRANCH  11  14
ENDBRANCH   9  11
ENDBRANCH   5   7
BRANCH   5  17
ATOM     17  CB2 GSH d   1      38.409  66.931   7.641  0.00  0.00     0.000 C 
ATOM     18  H11 GSH d   1      38.315  66.085   6.944  0.00  0.00     0.052 H 
ATOM     19  H12 GSH d   1      38.139  67.864   7.124  0.00  0.00     0.052 H 
BRANCH  17  20
ATOM     20  SG2 GSH d   1      37.271  66.676   9.046  0.00  0.00    -0.180 SA
ATOM     21  H13 GSH d   1      36.325  66.617   8.704  0.00  0.00     0.101 HD
ENDBRANCH  17  20
ENDBRANCH   5  17
ENDBRANCH   3   5
BRANCH   1  22
ATOM     22  CG1 GSH d   1      40.541  68.928  11.370  0.00  0.00    -0.001 C 
ATOM     23  H7  GSH d   1      41.270  69.662  10.996  0.00  0.00     0.045 H 
ATOM     24  H8  GSH d   1      39.578  69.427  11.550  0.00  0.00     0.045 H 
BRANCH  22  25
ATOM     25  CB1 GSH d   1      41.055  68.310  12.678  0.00  0.00    -0.022 C 
ATOM     26  H5  GSH d   1      40.328  67.573  13.050  0.00  0.00     0.037 H 
ATOM     27  H6  GSH d   1      42.020  67.814  12.499  0.00  0.00     0.037 H 
BRANCH  25  28
ATOM     28  CA1 GSH d   1      41.234  69.432  13.719  0.00  0.00     0.183 C 
ATOM     29  H4  GSH d   1      42.005  70.017  13.196  0.00  0.00     0.101 H 
BRANCH  28  30
ATOM     30  N1  GSH d   1      41.984  69.065  14.906  0.00  0.00    -0.065 N 
ATOM     31  H1  GSH d   1      42.637  68.332  14.678  0.00  0.00     0.275 HD
ATOM     32  H2  GSH d   1      41.349  68.740  15.618  0.00  0.00     0.275 HD
ATOM     33  H3  GSH d   1      42.487  69.869  15.247  0.00  0.00     0.275 HD
ENDBRANCH  28  30
BRANCH  28  34
ATOM     34  C1  GSH d   1      40.235  70.488  13.867  0.00  0.00     0.204 C 
ATOM     35  O11 GSH d   1      39.607  70.279  14.890  0.00  0.00    -0.646 OA
ATOM     36  O12 GSH d   1      39.966  71.371  13.058  0.00  0.00    -0.646 OA
ENDBRANCH  28  34
ENDBRANCH  25  28
ENDBRANCH  22  25
ENDBRANCH   1  22
TORSDOF 11
