REMARK  15 active torsions:
REMARK  status: ('A' for Active; 'I' for Inactive)
REMARK    1  A    between atoms: N_1  and  CA_2 
REMARK    2  A    between atoms: CA_2  and  C_3 
REMARK    3  A    between atoms: CA_2  and  CB_5 
REMARK       I    between atoms: C_3  and  N_9 
REMARK    4  A    between atoms: CB_5  and  CG_6 
REMARK    5  A    between atoms: N_9  and  CA_10 
REMARK    6  A    between atoms: CA_10  and  C_11 
REMARK    7  A    between atoms: CA_10  and  CB_13 
REMARK       I    between atoms: C_11  and  N_17 
REMARK    8  A    between atoms: CB_13  and  CG1_14 
REMARK    9  A    between atoms: CB_13  and  CG2_15 
REMARK   10  A    between atoms: CG1_14  and  CD1_16 
REMARK   11  A    between atoms: CA_18  and  C_19 
REMARK       I    between atoms: C_19  and  N_24 
REMARK   12  A    between atoms: N_24  and  CA_25 
REMARK   13  A    between atoms: CA_25  and  C_26 
REMARK   14  A    between atoms: CA_25  and  CB_28 
REMARK   15  A    between atoms: CB_28  and  CG_29 
ROOT
ATOM      1  C   ILE d   1      22.306  26.534   4.541  0.00  0.00     0.243 C 
ATOM      2  O   ILE d   1      22.215  26.725   3.330  0.00  0.00    -0.271 OA
ATOM      3  N   PRO d   1      21.413  27.013   5.418  0.00  0.00    -0.337 N 
ATOM      4  CA  PRO d   1      20.235  27.743   5.004  0.00  0.00     0.091 C 
ATOM      5  CB  PRO d   1      19.285  27.568   6.194  0.00  0.00    -0.036 C 
ATOM      6  CG  PRO d   1      20.035  26.735   7.214  0.00  0.00    -0.048 C 
ATOM      7  CD  PRO d   1      21.451  26.843   6.877  0.00  0.00    -0.001 C 
ATOM      8  H18 PRO d   1      19.814  27.286   4.096  0.00  0.00     0.087 H 
ATOM      9  H19 PRO d   1      18.369  27.049   5.877  0.00  0.00     0.036 H 
ATOM     10  H20 PRO d   1      19.023  28.548   6.620  0.00  0.00     0.036 H 
ATOM     11  H21 PRO d   1      19.711  25.685   7.160  0.00  0.00     0.035 H 
ATOM     12  H22 PRO d   1      19.855  27.123   8.227  0.00  0.00     0.035 H 
ATOM     13  H23 PRO d   1      21.912  27.713   7.368  0.00  0.00     0.064 H 
ATOM     14  H24 PRO d   1      21.998  25.931   7.158  0.00  0.00     0.064 H 
ENDROOT
BRANCH   1  15
ATOM     15  CA  ILE d   1      23.467  25.726   5.114  0.00  0.00     0.092 C 
ATOM     16  H8  ILE d   1      23.122  25.254   6.045  0.00  0.00     0.088 H 
BRANCH  15  17
ATOM     17  N   ILE d   1      23.883  24.654   4.212  0.00  0.00    -0.346 N 
ATOM     18  C   ASP d   1      24.172  23.425   4.643  0.00  0.00     0.249 C 
ATOM     19  O   ASP d   1      24.055  23.070   5.821  0.00  0.00    -0.271 OA
ATOM     20  H7  ILE d   1      23.954  24.849   3.234  0.00  0.00     0.163 HD
BRANCH  18  21
ATOM     21  CA  ASP d   1      24.668  22.448   3.581  0.00  0.00     0.185 C 
ATOM     22  H4  ASP d   1      24.918  23.037   2.686  0.00  0.00     0.100 H 
BRANCH  21  23
ATOM     23  N   ASP d   1      25.903  21.721   3.989  0.00  0.00    -0.066 N 
ATOM     24  H1  ASP d   1      26.182  21.093   3.252  0.00  0.00     0.275 HD
ATOM     25  H2  ASP d   1      25.721  21.194   4.828  0.00  0.00     0.275 HD
ATOM     26  H3  ASP d   1      26.642  22.385   4.163  0.00  0.00     0.275 HD
ENDBRANCH  21  23
BRANCH  21  27
ATOM     27  CB  ASP d   1      23.557  21.470   3.199  0.00  0.00     0.050 C 
ATOM     28  H5  ASP d   1      22.593  21.883   3.531  0.00  0.00     0.052 H 
ATOM     29  H6  ASP d   1      23.740  20.512   3.707  0.00  0.00     0.052 H 
BRANCH  27  30
ATOM     30  CG  ASP d   1      23.493  21.224   1.703  0.00  0.00     0.175 C 
ATOM     31  OD1 ASP d   1      24.476  21.543   0.997  0.00  0.00    -0.648 OA
ATOM     32  OD2 ASP d   1      22.457  20.720   1.222  0.00  0.00    -0.648 OA
ENDBRANCH  27  30
ENDBRANCH  21  27
ENDBRANCH  18  21
ENDBRANCH  15  17
BRANCH  15  33
ATOM     33  CB  ILE d   1      24.640  26.685   5.475  0.00  0.00    -0.030 C 
ATOM     34  H9  ILE d   1      24.212  27.641   5.811  0.00  0.00     0.043 H 
BRANCH  33  35
ATOM     35  CG1 ILE d   1      25.514  26.961   4.245  0.00  0.00    -0.063 C 
ATOM     36  H10 ILE d   1      24.903  26.799   3.345  0.00  0.00     0.033 H 
ATOM     37  H11 ILE d   1      26.353  26.250   4.252  0.00  0.00     0.033 H 
BRANCH  35  38
ATOM     38  CD1 ILE d   1      26.087  28.375   4.185  0.00  0.00    -0.076 C 
ATOM     39  H15 ILE d   1      26.697  28.485   3.276  0.00  0.00     0.027 H 
ATOM     40  H16 ILE d   1      26.713  28.555   5.071  0.00  0.00     0.027 H 
ATOM     41  H17 ILE d   1      25.263  29.104   4.164  0.00  0.00     0.027 H 
ENDBRANCH  35  38
ENDBRANCH  33  35
BRANCH  33  42
ATOM     42  CG2 ILE d   1      25.475  26.103   6.627  0.00  0.00    -0.071 C 
ATOM     43  H12 ILE d   1      24.824  25.916   7.494  0.00  0.00     0.028 H 
ATOM     44  H13 ILE d   1      26.262  26.819   6.908  0.00  0.00     0.028 H 
ATOM     45  H14 ILE d   1      25.937  25.158   6.304  0.00  0.00     0.028 H 
ENDBRANCH  33  42
ENDBRANCH  15  33
ENDBRANCH   1  15
BRANCH   4  46
ATOM     46  C   PRO d   1      20.459  29.234   4.738  0.00  0.00     0.241 C 
ATOM     47  O   PRO d   1      19.641  29.851   4.059  0.00  0.00    -0.271 OA
ATOM     48  N   PHE d   1      21.541  29.818   5.260  0.00  0.00    -0.344 N 
ATOM     49  H25 PHE d   1      22.215  29.263   5.748  0.00  0.00     0.163 HD
BRANCH  48  50
ATOM     50  CA  PHE d   1      21.754  31.278   5.125  0.00  0.00     0.100 C 
ATOM     51  H26 PHE d   1      21.526  31.545   4.082  0.00  0.00     0.090 H 
BRANCH  50  52
ATOM     52  C   PHE d   1      23.201  31.724   5.408  0.00  0.00     0.197 C 
ATOM     53  O   PHE d   1      23.986  30.983   5.987  0.00  0.00    -0.646 OA
ATOM     54  OXT PHE d   1      23.571  32.889   5.196  0.00  0.00    -0.646 OA
ENDBRANCH  50  52
BRANCH  50  55
ATOM     55  CB  PHE d   1      20.786  32.054   6.038  0.00  0.00    -0.013 C 
ATOM     56  H27 PHE d   1      19.756  31.792   5.756  0.00  0.00     0.043 H 
ATOM     57  H28 PHE d   1      20.946  33.131   5.881  0.00  0.00     0.043 H 
BRANCH  55  58
ATOM     58  CG  PHE d   1      20.972  31.753   7.501  0.00  0.00    -0.056 A 
ATOM     59  CD1 PHE d   1      22.075  32.235   8.187  0.00  0.00    -0.077 A 
ATOM     60  CE1 PHE d   1      22.254  31.947   9.500  0.00  0.00    -0.082 A 
ATOM     61  H29 PHE d   1      22.803  32.849   7.669  0.00  0.00     0.084 H 
ATOM     62  CZ  PHE d   1      21.340  31.179  10.157  0.00  0.00    -0.083 A 
ATOM     63  H31 PHE d   1      23.122  32.327  10.026  0.00  0.00     0.083 H 
ATOM     64  CE2 PHE d   1      20.237  30.689   9.494  0.00  0.00    -0.082 A 
ATOM     65  H33 PHE d   1      21.482  30.953  11.207  0.00  0.00     0.083 H 
ATOM     66  CD2 PHE d   1      20.062  30.964   8.179  0.00  0.00    -0.077 A 
ATOM     67  H32 PHE d   1      19.510  30.084  10.024  0.00  0.00     0.083 H 
ATOM     68  H30 PHE d   1      19.202  30.562   7.655  0.00  0.00     0.084 H 
ENDBRANCH  55  58
ENDBRANCH  50  55
ENDBRANCH  48  50
ENDBRANCH   4  46
TORSDOF 15
