REMARK  15 active torsions:
REMARK  status: ('A' for Active; 'I' for Inactive)
REMARK    1  A    between atoms: C1_1  and  C2_4 
REMARK    2  A    between atoms: C2_4  and  C3_5 
REMARK    3  A    between atoms: C3_5  and  O3_6 
REMARK    4  A    between atoms: C3_5  and  C4_7 
REMARK       I    between atoms: C4_7  and  N1_9 
REMARK    5  A    between atoms: N1_9  and  C6_10 
REMARK    6  A    between atoms: C6_10  and  C7_11 
REMARK    7  A    between atoms: C6_10  and  C11_15 
REMARK    8  A    between atoms: C7_11  and  C8_12 
REMARK    9  A    between atoms: C8_12  and  C9_13 
REMARK   10  A    between atoms: C8_12  and  C10_14 
REMARK       I    between atoms: C11_15  and  N2_17 
REMARK   11  A    between atoms: N2_17  and  C12_18 
REMARK   12  A    between atoms: C12_18  and  C13_19 
REMARK   13  A    between atoms: C13_19  and  C14_20 
REMARK   14  A    between atoms: C14_20  and  C15_21 
REMARK   15  A    between atoms: C15_21  and  N3_22 
REMARK       I    between atoms: N3_22  and  C16_23 
REMARK       I    between atoms: C16_23  and  N4_24 
ROOT
ATOM      1  C6  E64 d   1      17.834  66.151  40.453  0.00  0.00     0.089 C 
ATOM      2  H6  E64 d   1      16.747  65.991  40.408  0.00  0.00     0.087 H 
ENDROOT
BRANCH   1   3
ATOM      3  N1  E64 d   1      18.474  65.322  39.431  0.00  0.00    -0.346 N 
ATOM      4  C4  E64 d   1      17.833  64.893  38.347  0.00  0.00     0.247 C 
ATOM      5  O4  E64 d   1      16.648  65.159  38.114  0.00  0.00    -0.271 OA
ATOM      6  H5  E64 d   1      19.433  65.067  39.553  0.00  0.00     0.163 HD
BRANCH   4   7
ATOM      7  C3  E64 d   1      18.653  64.043  37.385  0.00  0.00     0.121 C 
ATOM      8  H3  E64 d   1      18.117  63.961  36.428  0.00  0.00     0.098 H 
BRANCH   7   9
ATOM      9  C2  E64 d   1      18.919  62.609  37.941  0.00  0.00     0.048 C 
ATOM     10  H1  E64 d   1      19.639  62.658  38.771  0.00  0.00     0.053 H 
ATOM     11  H2  E64 d   1      17.977  62.166  38.298  0.00  0.00     0.053 H 
BRANCH   9  12
ATOM     12  C1  E64 d   1      19.491  61.764  36.808  0.00  0.00     0.175 C 
ATOM     13  O1  E64 d   1      20.463  61.028  37.048  0.00  0.00    -0.648 OA
ATOM     14  O2  E64 d   1      18.960  61.833  35.687  0.00  0.00    -0.648 OA
ENDBRANCH   9  12
ENDBRANCH   7   9
BRANCH   7  15
ATOM     15  O3  E64 d   1      19.904  64.706  37.186  0.00  0.00    -0.386 OA
ATOM     16  H4  E64 d   1      19.748  65.580  36.847  0.00  0.00     0.210 HD
ENDBRANCH   7  15
ENDBRANCH   4   7
ENDBRANCH   1   3
BRANCH   1  17
ATOM     17  C7  E64 d   1      18.349  65.737  41.833  0.00  0.00    -0.035 C 
ATOM     18  H7  E64 d   1      18.338  66.652  42.444  0.00  0.00     0.037 H 
ATOM     19  H8  E64 d   1      19.388  65.411  41.679  0.00  0.00     0.037 H 
BRANCH  17  20
ATOM     20  C8  E64 d   1      17.699  64.659  42.690  0.00  0.00    -0.059 C 
ATOM     21  H9  E64 d   1      18.087  63.678  42.378  0.00  0.00     0.038 H 
BRANCH  20  22
ATOM     22  C9  E64 d   1      18.093  64.919  44.135  0.00  0.00    -0.073 C 
ATOM     23  H10 E64 d   1      17.638  64.155  44.782  0.00  0.00     0.028 H 
ATOM     24  H11 E64 d   1      17.738  65.915  44.438  0.00  0.00     0.028 H 
ATOM     25  H12 E64 d   1      19.188  64.875  44.230  0.00  0.00     0.028 H 
ENDBRANCH  20  22
BRANCH  20  26
ATOM     26  C10 E64 d   1      16.156  64.635  42.560  0.00  0.00    -0.073 C 
ATOM     27  H13 E64 d   1      15.879  64.447  41.512  0.00  0.00     0.028 H 
ATOM     28  H14 E64 d   1      15.746  65.605  42.879  0.00  0.00     0.028 H 
ATOM     29  H15 E64 d   1      15.747  63.837  43.197  0.00  0.00     0.028 H 
ENDBRANCH  20  26
ENDBRANCH  17  20
ENDBRANCH   1  17
BRANCH   1  30
ATOM     30  C11 E64 d   1      18.122  67.633  40.239  0.00  0.00     0.240 C 
ATOM     31  O5  E64 d   1      19.226  68.002  39.833  0.00  0.00    -0.271 OA
ATOM     32  N2  E64 d   1      17.119  68.475  40.513  0.00  0.00    -0.359 N 
ATOM     33  H16 E64 d   1      16.261  68.078  40.838  0.00  0.00     0.162 HD
BRANCH  32  34
ATOM     34  C12 E64 d   1      17.177  69.934  40.375  0.00  0.00    -0.005 C 
ATOM     35  H17 E64 d   1      18.231  70.246  40.420  0.00  0.00     0.064 H 
ATOM     36  H18 E64 d   1      16.625  70.385  41.213  0.00  0.00     0.064 H 
BRANCH  34  37
ATOM     37  C13 E64 d   1      16.577  70.450  39.069  0.00  0.00    -0.049 C 
ATOM     38  H19 E64 d   1      15.497  70.242  39.061  0.00  0.00     0.035 H 
ATOM     39  H20 E64 d   1      17.056  69.934  38.224  0.00  0.00     0.035 H 
BRANCH  37  40
ATOM     40  C14 E64 d   1      16.797  71.954  38.927  0.00  0.00    -0.048 C 
ATOM     41  H21 E64 d   1      16.701  72.230  37.867  0.00  0.00     0.035 H 
ATOM     42  H22 E64 d   1      17.809  72.202  39.281  0.00  0.00     0.035 H 
BRANCH  40  43
ATOM     43  C15 E64 d   1      15.769  72.758  39.748  0.00  0.00     0.009 C 
ATOM     44  H23 E64 d   1      16.312  73.469  40.388  0.00  0.00     0.064 H 
ATOM     45  H24 E64 d   1      15.201  72.058  40.378  0.00  0.00     0.064 H 
BRANCH  43  46
ATOM     46  N3  E64 d   1      14.819  73.512  38.915  0.00  0.00    -0.227 N 
ATOM     47  C16 E64 d   1      13.595  73.093  38.557  0.00  0.00     0.665 C 
ATOM     48  N4  E64 d   1      13.040  73.573  37.452  0.00  0.00    -0.235 N 
ATOM     49  N5  E64 d   1      12.925  72.205  39.299  0.00  0.00    -0.235 N 
ATOM     50  H26 E64 d   1      12.101  73.258  37.169  0.00  0.00     0.174 HD
ATOM     51  H27 E64 d   1      13.548  74.261  36.877  0.00  0.00     0.174 HD
ATOM     52  H28 E64 d   1      13.349  71.828  40.158  0.00  0.00     0.174 HD
ATOM     53  H29 E64 d   1      11.985  71.898  39.011  0.00  0.00     0.174 HD
ATOM     54  H25 E64 d   1      15.118  74.438  38.579  0.00  0.00     0.177 HD
ENDBRANCH  43  46
ENDBRANCH  40  43
ENDBRANCH  37  40
ENDBRANCH  34  37
ENDBRANCH  32  34
ENDBRANCH   1  30
TORSDOF 15
