REMARK  5 active torsions:
REMARK  status: ('A' for Active; 'I' for Inactive)
REMARK    1  A    between atoms: S1_9  and  N1_1 
REMARK    2  A    between atoms: C5_5  and  O3_15 
REMARK    3  A    between atoms: O3_15  and  C8_6 
REMARK    4  A    between atoms: C8_6  and  C9_16 
REMARK    5  A    between atoms: C1_10  and  S1_9 
ROOT
ATOM      1  C2  EZL d   1      -3.551   3.439  14.978  0.00  0.00     0.076 A 
ATOM      2  C3  EZL d   1      -4.691   4.161  14.520  0.00  0.00     0.039 A 
ATOM      3  C4  EZL d   1      -4.566   5.343  13.771  0.00  0.00    -0.032 A 
ATOM      4  C5  EZL d   1      -3.265   5.828  13.474  0.00  0.00     0.070 A 
ATOM      5  C1  EZL d   1      -5.112   2.162  15.797  0.00  0.00     0.214 A 
ATOM      6  N2  EZL d   1      -3.823   2.293  15.712  0.00  0.00    -0.227 NA
ATOM      7  S2  EZL d   1      -6.116   3.346  15.035  0.00  0.00    -0.054 SA
ATOM      8  C6  EZL d   1      -2.122   5.115  13.922  0.00  0.00    -0.049 A 
ATOM      9  C7  EZL d   1      -2.236   3.930  14.672  0.00  0.00    -0.051 A 
ATOM     10  H3  EZL d   1      -5.446   5.874  13.427  0.00  0.00     0.090 H 
ATOM     11  H6  EZL d   1      -1.135   5.494  13.680  0.00  0.00     0.087 H 
ATOM     12  H7  EZL d   1      -1.353   3.400  15.011  0.00  0.00     0.087 H 
ENDROOT
BRANCH   4  13
ATOM     13  O3  EZL d   1      -3.141   7.001  12.740  0.00  0.00    -0.351 OA
BRANCH  13  14
ATOM     14  C8  EZL d   1      -1.809   7.499  12.439  0.00  0.00     0.023 C 
ATOM     15  H4  EZL d   1      -1.697   7.633  11.353  0.00  0.00     0.074 H 
ATOM     16  H5  EZL d   1      -1.053   6.787  12.801  0.00  0.00     0.074 H 
BRANCH  14  17
ATOM     17  C9  EZL d   1      -1.643   8.802  13.127  0.00  0.00    -0.056 C 
ATOM     18  H8  EZL d   1      -0.641   9.203  12.916  0.00  0.00     0.030 H 
ATOM     19  H9  EZL d   1      -1.761   8.662  14.212  0.00  0.00     0.030 H 
ATOM     20  H10 EZL d   1      -2.404   9.508  12.764  0.00  0.00     0.030 H 
ENDBRANCH  14  17
ENDBRANCH  13  14
ENDBRANCH   4  13
BRANCH   5  21
ATOM     21  S1  EZL d   1      -5.887   0.819  16.683  0.00  0.00     0.281 S 
ATOM     22  O1  EZL d   1      -7.304   0.943  16.427  0.00  0.00    -0.199 OA
ATOM     23  O2  EZL d   1      -5.403   0.943  18.034  0.00  0.00    -0.199 OA
BRANCH  21  24
ATOM     24  N1  EZL d   1      -5.357  -0.558  16.076  0.00  0.00    -0.323 N 
ATOM     25  H1  EZL d   1      -5.595  -0.816  15.140  0.00  0.00     0.169 HD
ATOM     26  H2  EZL d   1      -4.787  -1.163  16.632  0.00  0.00     0.169 HD
ENDBRANCH  21  24
ENDBRANCH   5  21
TORSDOF 5
