REMARK  11 active torsions:
REMARK  status: ('A' for Active; 'I' for Inactive)
REMARK    1  A    between atoms: N_1  and  CA_2 
REMARK    2  A    between atoms: CA_2  and  C_3 
REMARK    3  A    between atoms: CA_2  and  CB_6 
REMARK    4  A    between atoms: CB_6  and  CG_7 
REMARK    5  A    between atoms: CG_7  and  CD_8 
REMARK    6  A    between atoms: CD_8  and  NE_9 
REMARK    7  A    between atoms: CD_8  and  C5'_10 
REMARK    8  A    between atoms: C5'_10  and  C4'_11 
REMARK    9  A    between atoms: C3'_13  and  O3'_14 
REMARK   10  A    between atoms: C2'_15  and  O2'_16 
REMARK   11  A    between atoms: C1'_17  and  N9_18 
ROOT
ATOM      1  C4' SFG d   1      11.473   1.039  13.706  0.00  0.00     0.070 C 
ATOM      2  O4' SFG d   1      11.375   1.090  12.276  0.00  0.00    -0.355 OA
ATOM      3  C3' SFG d   1      10.350   0.084  14.156  0.00  0.00     0.089 C 
ATOM      4  C2' SFG d   1       9.392   0.127  12.966  0.00  0.00     0.105 C 
ATOM      5  C1' SFG d   1      10.300   0.308  11.741  0.00  0.00     0.139 C 
ATOM      6  H15 SFG d   1      11.250   2.035  14.117  0.00  0.00     0.087 H 
ATOM      7  H16 SFG d   1      10.736  -0.939  14.277  0.00  0.00     0.091 H 
ATOM      8  H18 SFG d   1       8.823  -0.812  12.901  0.00  0.00     0.093 H 
ATOM      9  H20 SFG d   1       9.743   0.883  10.987  0.00  0.00     0.122 H 
ENDROOT
BRANCH   1  10
ATOM     10  C5' SFG d   1      12.927   0.689  14.146  0.00  0.00    -0.012 C 
ATOM     11  H13 SFG d   1      12.915   0.368  15.198  0.00  0.00     0.040 H 
ATOM     12  H14 SFG d   1      13.303  -0.131  13.517  0.00  0.00     0.040 H 
BRANCH  10  13
ATOM     13  CD  SFG d   1      13.864   1.900  14.003  0.00  0.00     0.102 C 
ATOM     14  H9  SFG d   1      13.385   2.834  14.331  0.00  0.00     0.084 H 
BRANCH  13  15
ATOM     15  CG  SFG d   1      14.241   1.985  12.503  0.00  0.00    -0.036 C 
ATOM     16  H7  SFG d   1      15.197   1.461  12.356  0.00  0.00     0.036 H 
ATOM     17  H8  SFG d   1      13.455   1.483  11.920  0.00  0.00     0.036 H 
BRANCH  15  18
ATOM     18  CB  SFG d   1      14.394   3.448  11.967  0.00  0.00    -0.027 C 
ATOM     19  H5  SFG d   1      14.859   4.086  12.733  0.00  0.00     0.036 H 
ATOM     20  H6  SFG d   1      15.013   3.456  11.058  0.00  0.00     0.036 H 
BRANCH  18  21
ATOM     21  CA  SFG d   1      12.946   3.959  11.642  0.00  0.00     0.182 C 
ATOM     22  H4  SFG d   1      12.332   3.606  12.484  0.00  0.00     0.101 H 
BRANCH  21  23
ATOM     23  N   SFG d   1      12.357   3.316  10.458  0.00  0.00    -0.065 N 
ATOM     24  H1  SFG d   1      12.497   2.319  10.512  0.00  0.00     0.275 HD
ATOM     25  H2  SFG d   1      12.801   3.673   9.626  0.00  0.00     0.275 HD
ATOM     26  H3  SFG d   1      11.370   3.515  10.424  0.00  0.00     0.275 HD
ENDBRANCH  21  23
BRANCH  21  27
ATOM     27  C   SFG d   1      12.794   5.490  11.672  0.00  0.00     0.204 C 
ATOM     28  O   SFG d   1      12.176   6.038  10.723  0.00  0.00    -0.646 OA
ATOM     29  OXT SFG d   1      13.237   6.112  12.670  0.00  0.00    -0.646 OA
ENDBRANCH  21  27
ENDBRANCH  18  21
ENDBRANCH  15  18
ENDBRANCH  13  15
BRANCH  13  30
ATOM     30  NE  SFG d   1      15.037   1.568  14.878  0.00  0.00    -0.075 N 
ATOM     31  H10 SFG d   1      14.738   1.525  15.839  0.00  0.00     0.274 HD
ATOM     32  H11 SFG d   1      15.743   2.280  14.777  0.00  0.00     0.274 HD
ATOM     33  H12 SFG d   1      15.418   0.676  14.605  0.00  0.00     0.274 HD
ENDBRANCH  13  30
ENDBRANCH  10  13
ENDBRANCH   1  10
BRANCH   3  34
ATOM     34  O3' SFG d   1       9.822   0.500  15.404  0.00  0.00    -0.390 OA
ATOM     35  H17 SFG d   1       9.469   1.378  15.320  0.00  0.00     0.210 HD
ENDBRANCH   3  34
BRANCH   5  36
ATOM     36  N9  SFG d   1      10.874  -0.874  11.044  0.00  0.00    -0.294 N 
ATOM     37  C8  SFG d   1      12.113  -1.455  11.040  0.00  0.00     0.071 A 
ATOM     38  N7  SFG d   1      12.285  -2.503  10.222  0.00  0.00    -0.236 NA
ATOM     39  H21 SFG d   1      12.920  -1.084  11.671  0.00  0.00     0.144 H 
ATOM     40  C5  SFG d   1      11.034  -2.653   9.638  0.00  0.00     0.149 A 
ATOM     41  C6  SFG d   1      10.437  -3.521   8.701  0.00  0.00     0.155 A 
ATOM     42  C4  SFG d   1      10.156  -1.647  10.145  0.00  0.00     0.167 A 
ATOM     43  N6  SFG d   1      11.186  -4.510   8.150  0.00  0.00    -0.382 N 
ATOM     44  N1  SFG d   1       9.100  -3.389   8.339  0.00  0.00    -0.222 NA
ATOM     45  H22 SFG d   1      10.766  -5.153   7.464  0.00  0.00     0.157 HD
ATOM     46  H23 SFG d   1      12.175  -4.617   8.418  0.00  0.00     0.157 HD
ATOM     47  C2  SFG d   1       8.307  -2.397   8.865  0.00  0.00     0.091 A 
ATOM     48  N3  SFG d   1       8.829  -1.506   9.769  0.00  0.00    -0.222 NA
ATOM     49  H24 SFG d   1       7.268  -2.318   8.565  0.00  0.00     0.146 H 
ENDBRANCH   5  36
BRANCH   4  50
ATOM     50  O2' SFG d   1       8.477   1.240  13.031  0.00  0.00    -0.388 OA
ATOM     51  H19 SFG d   1       8.969   2.053  13.040  0.00  0.00     0.210 HD
ENDBRANCH   4  50
TORSDOF 11
