REMARK  11 active torsions:
REMARK  status: ('A' for Active; 'I' for Inactive)
REMARK    1  A    between atoms: C1_1  and  O1_20 
REMARK    2  A    between atoms: C2_2  and  C16_23 
REMARK    3  A    between atoms: C3_3  and  C23_19 
REMARK    4  A    between atoms: C4_4  and  C7_7 
REMARK    5  A    between atoms: C5_5  and  C20_18 
REMARK    6  A    between atoms: C8_8  and  C9_9 
REMARK    7  A    between atoms: C9_9  and  C19_17 
REMARK    8  A    between atoms: C10_10  and  C11_11 
REMARK    9  A    between atoms: C12_12  and  C13_13 
REMARK   10  A    between atoms: C13_13  and  C18_16 
REMARK   11  A    between atoms: C14_14  and  C15_15 
ROOT
ATOM      1  C7  R12 d   1      18.779  -4.913  21.853  0.00  0.00    -0.071 C 
ATOM      2  C8  R12 d   1      18.696  -4.074  20.824  0.00  0.00    -0.076 C 
ATOM      3  H2  R12 d   1      19.762  -5.035  22.304  0.00  0.00     0.084 H 
ATOM      4  H3  R12 d   1      17.719  -3.983  20.352  0.00  0.00     0.084 H 
ENDROOT
BRANCH   1   5
ATOM      5  C4  R12 d   1      17.672  -5.700  22.450  0.00  0.00    -0.024 A 
ATOM      6  C3  R12 d   1      16.507  -5.047  22.923  0.00  0.00    -0.043 A 
ATOM      7  C2  R12 d   1      15.484  -5.818  23.483  0.00  0.00    -0.022 A 
ATOM      8  C1  R12 d   1      15.589  -7.179  23.572  0.00  0.00     0.072 A 
ATOM      9  C6  R12 d   1      16.727  -7.864  23.113  0.00  0.00    -0.044 A 
ATOM     10  C5  R12 d   1      17.786  -7.109  22.539  0.00  0.00    -0.049 A 
ATOM     11  H1  R12 d   1      16.796  -8.943  23.195  0.00  0.00     0.088 H 
BRANCH   6  12
ATOM     12  C23 R12 d   1      16.318  -3.552  22.860  0.00  0.00    -0.050 C 
ATOM     13  H17 R12 d   1      15.339  -3.288  23.286  0.00  0.00     0.033 H 
ATOM     14  H18 R12 d   1      16.363  -3.220  21.812  0.00  0.00     0.033 H 
ATOM     15  H19 R12 d   1      17.114  -3.057  23.436  0.00  0.00     0.033 H 
ENDBRANCH   6  12
BRANCH   7  16
ATOM     16  C16 R12 d   1      14.227  -5.129  24.004  0.00  0.00    -0.048 C 
ATOM     17  H21 R12 d   1      13.536  -5.883  24.407  0.00  0.00     0.033 H 
ATOM     18  H22 R12 d   1      13.739  -4.585  23.182  0.00  0.00     0.033 H 
ATOM     19  H23 R12 d   1      14.501  -4.421  24.800  0.00  0.00     0.033 H 
ENDBRANCH   7  16
BRANCH   8  20
ATOM     20  O1  R12 d   1      14.607  -7.954  24.115  0.00  0.00    -0.360 OA
ATOM     21  H20 R12 d   1      13.886  -7.401  24.393  0.00  0.00     0.217 HD
ENDBRANCH   8  20
BRANCH  10  22
ATOM     22  C20 R12 d   1      19.029  -7.805  22.030  0.00  0.00    -0.050 C 
ATOM     23  H14 R12 d   1      19.728  -7.058  21.625  0.00  0.00     0.033 H 
ATOM     24  H15 R12 d   1      18.753  -8.516  21.237  0.00  0.00     0.033 H 
ATOM     25  H16 R12 d   1      19.510  -8.347  22.857  0.00  0.00     0.033 H 
ENDBRANCH  10  22
ENDBRANCH   1   5
BRANCH   2  26
ATOM     26  C9  R12 d   1      19.738  -3.284  20.272  0.00  0.00    -0.062 C 
ATOM     27  C10 R12 d   1      19.380  -2.371  19.362  0.00  0.00    -0.077 C 
ATOM     28  H4  R12 d   1      18.311  -2.227  19.213  0.00  0.00     0.084 H 
BRANCH  26  29
ATOM     29  C19 R12 d   1      21.172  -3.486  20.702  0.00  0.00    -0.051 C 
ATOM     30  H11 R12 d   1      21.220  -4.287  21.455  0.00  0.00     0.033 H 
ATOM     31  H12 R12 d   1      21.560  -2.552  21.135  0.00  0.00     0.033 H 
ATOM     32  H13 R12 d   1      21.780  -3.767  19.830  0.00  0.00     0.033 H 
ENDBRANCH  26  29
BRANCH  27  33
ATOM     33  C11 R12 d   1      20.246  -1.569  18.569  0.00  0.00    -0.082 C 
ATOM     34  C12 R12 d   1      19.793  -0.685  17.686  0.00  0.00    -0.077 C 
ATOM     35  H6  R12 d   1      18.712  -0.589  17.598  0.00  0.00     0.084 H 
ATOM     36  H5  R12 d   1      21.322  -1.684  18.690  0.00  0.00     0.083 H 
BRANCH  34  37
ATOM     37  C13 R12 d   1      20.577   0.143  16.849  0.00  0.00    -0.056 C 
ATOM     38  C14 R12 d   1      19.924   1.037  15.952  0.00  0.00    -0.004 C 
ATOM     39  H7  R12 d   1      18.837   1.004  16.001  0.00  0.00     0.094 H 
BRANCH  37  40
ATOM     40  C18 R12 d   1      22.068   0.067  16.904  0.00  0.00    -0.051 C 
ATOM     41  H8  R12 d   1      22.370  -0.678  17.655  0.00  0.00     0.033 H 
ATOM     42  H9  R12 d   1      22.475   1.051  17.179  0.00  0.00     0.033 H 
ATOM     43  H10 R12 d   1      22.457  -0.228  15.918  0.00  0.00     0.033 H 
ENDBRANCH  37  40
BRANCH  38  44
ATOM     44  C15 R12 d   1      20.447   1.982  14.987  0.00  0.00     0.199 C 
ATOM     45  O3  R12 d   1      21.517   2.650  15.377  0.00  0.00    -0.644 OA
ATOM     46  O2  R12 d   1      19.937   2.135  13.905  0.00  0.00    -0.644 OA
ENDBRANCH  38  44
ENDBRANCH  34  37
ENDBRANCH  27  33
ENDBRANCH   2  26
TORSDOF 11
