REMARK  3 active torsions:
REMARK  status: ('A' for Active; 'I' for Inactive)
REMARK    1  A    between atoms: C2_9  and  N1_1 
REMARK    2  A    between atoms: C9_11  and  C8_6 
REMARK    3  A    between atoms: C3_10  and  C2_9 
ROOT
ATOM      1  C4  B2Y d   1      44.190   1.383  17.190  0.00  0.00    -0.074 A 
ATOM      2  C5  B2Y d   1      44.514   0.075  16.853  0.00  0.00    -0.082 A 
ATOM      3  C6  B2Y d   1      43.658  -0.650  16.033  0.00  0.00    -0.082 A 
ATOM      4  C7  B2Y d   1      42.483  -0.074  15.546  0.00  0.00    -0.072 A 
ATOM      5  C8  B2Y d   1      42.153   1.248  15.890  0.00  0.00    -0.018 A 
ATOM      6  C3  B2Y d   1      43.026   1.978  16.716  0.00  0.00    -0.022 A 
ATOM      7  H4  B2Y d   1      44.855   1.949  17.832  0.00  0.00     0.084 H 
ATOM      8  H5  B2Y d   1      45.426  -0.376  17.226  0.00  0.00     0.083 H 
ATOM      9  H6  B2Y d   1      43.905  -1.672  15.769  0.00  0.00     0.083 H 
ATOM     10  H7  B2Y d   1      41.825  -0.647  14.902  0.00  0.00     0.084 H 
ENDROOT
BRANCH   5  11
ATOM     11  C9  B2Y d   1      40.903   1.844  15.336  0.00  0.00    -0.025 A 
ATOM     12  C10 B2Y d   1      39.645   1.374  15.720  0.00  0.00    -0.072 A 
ATOM     13  C11 B2Y d   1      38.515   1.968  15.155  0.00  0.00    -0.082 A 
ATOM     14  H8  B2Y d   1      39.548   0.568  16.439  0.00  0.00     0.084 H 
ATOM     15  C12 B2Y d   1      38.609   2.999  14.226  0.00  0.00    -0.083 A 
ATOM     16  H12 B2Y d   1      37.533   1.615  15.450  0.00  0.00     0.083 H 
ATOM     17  C13 B2Y d   1      39.853   3.448  13.832  0.00  0.00    -0.082 A 
ATOM     18  H13 B2Y d   1      37.712   3.446  13.815  0.00  0.00     0.083 H 
ATOM     19  C14 B2Y d   1      40.984   2.871  14.378  0.00  0.00    -0.072 A 
ATOM     20  H9  B2Y d   1      39.942   4.245  13.102  0.00  0.00     0.083 H 
ATOM     21  H14 B2Y d   1      41.960   3.219  14.059  0.00  0.00     0.084 H 
ENDBRANCH   5  11
BRANCH   6  22
ATOM     22  C2  B2Y d   1      42.735   3.404  17.118  0.00  0.00     0.104 C 
ATOM     23  H10 B2Y d   1      43.626   3.840  17.594  0.00  0.00     0.082 H 
ATOM     24  H11 B2Y d   1      42.472   3.991  16.226  0.00  0.00     0.082 H 
BRANCH  22  25
ATOM     25  N1  B2Y d   1      41.619   3.423  18.061  0.00  0.00    -0.075 N 
ATOM     26  H1  B2Y d   1      41.423   4.374  18.331  0.00  0.00     0.274 HD
ATOM     27  H2  B2Y d   1      41.861   2.885  18.878  0.00  0.00     0.274 HD
ATOM     28  H3  B2Y d   1      40.803   3.023  17.624  0.00  0.00     0.274 HD
ENDBRANCH  22  25
ENDBRANCH   6  22
TORSDOF 3
