REMARK  4 active torsions:
REMARK  status: ('A' for Active; 'I' for Inactive)
REMARK    1  A    between atoms: C11_14  and  C10_5 
REMARK    2  A    between atoms: N2_10  and  C1_9 
REMARK    3  A    between atoms: C18_19  and  C19_20 
REMARK    4  A    between atoms: C19_20  and  N20_21 
ROOT
ATOM      1  C5  7AC d   1      -1.054  -2.645  20.705  0.00  0.00     0.087 A 
ATOM      2  C6  7AC d   1      -0.340  -3.585  19.957  0.00  0.00    -0.032 A 
ATOM      3  C7  7AC d   1       0.726  -4.268  20.531  0.00  0.00     0.058 A 
ATOM      4  C8  7AC d   1       1.477  -5.241  19.776  0.00  0.00     0.100 C 
ATOM      5  C10 7AC d   1       1.070  -4.024  21.873  0.00  0.00     0.007 A 
ATOM      6  C21 7AC d   1      -0.694  -2.387  22.052  0.00  0.00     0.073 A 
ATOM      7  N2  7AC d   1      -1.596  -1.413  22.487  0.00  0.00    -0.344 N 
ATOM      8  C3  7AC d   1      -2.422  -1.120  21.443  0.00  0.00     0.067 A 
ATOM      9  N4  7AC d   1      -2.114  -1.844  20.406  0.00  0.00    -0.242 NA
ATOM     10  N9  7AC d   1       2.088  -6.018  19.204  0.00  0.00    -0.191 NA
ATOM     11  C18 7AC d   1       0.380  -3.086  22.627  0.00  0.00     0.009 A 
ATOM     12  H1  7AC d   1      -0.618  -3.782  18.928  0.00  0.00     0.089 H 
ATOM     13  H7  7AC d   1      -3.225  -0.385  21.472  0.00  0.00     0.143 H 
ENDROOT
BRANCH   5  14
ATOM     14  C11 7AC d   1       2.256  -4.740  22.378  0.00  0.00    -0.002 A 
ATOM     15  C12 7AC d   1       2.257  -6.063  22.796  0.00  0.00    -0.070 A 
ATOM     16  C13 7AC d   1       3.461  -6.619  23.209  0.00  0.00    -0.082 A 
ATOM     17  H8  7AC d   1       1.343  -6.646  22.800  0.00  0.00     0.084 H 
ATOM     18  C14 7AC d   1       4.647  -5.890  23.201  0.00  0.00    -0.081 A 
ATOM     19  H2  7AC d   1       3.478  -7.649  23.547  0.00  0.00     0.083 H 
ATOM     20  C15 7AC d   1       4.648  -4.584  22.766  0.00  0.00    -0.061 A 
ATOM     21  H9  7AC d   1       5.569  -6.351  23.537  0.00  0.00     0.083 H 
ATOM     22  C16 7AC d   1       3.463  -4.020  22.348  0.00  0.00     0.045 A 
ATOM     23  H3  7AC d   1       5.567  -4.009  22.753  0.00  0.00     0.086 H 
ATOM     24 CL17 7AC d   1       3.482  -2.368  21.811  0.00  0.00    -0.083 Cl
ENDBRANCH   5  14
BRANCH  11  25
ATOM     25  C19 7AC d   1       0.798  -2.828  24.054  0.00  0.00     0.106 C 
ATOM     26  H10 7AC d   1       1.358  -3.691  24.443  0.00  0.00     0.082 H 
ATOM     27  H11 7AC d   1      -0.090  -2.655  24.680  0.00  0.00     0.082 H 
BRANCH  25  28
ATOM     28  N20 7AC d   1       1.653  -1.634  24.055  0.00  0.00    -0.075 N 
ATOM     29  H12 7AC d   1       1.950  -1.434  24.997  0.00  0.00     0.274 HD
ATOM     30  H13 7AC d   1       1.135  -0.849  23.693  0.00  0.00     0.274 HD
ATOM     31  H14 7AC d   1       2.461  -1.799  23.476  0.00  0.00     0.274 HD
ENDBRANCH  25  28
ENDBRANCH  11  25
BRANCH   7  32
ATOM     32  C1  7AC d   1      -1.674  -0.793  23.811  0.00  0.00    -0.013 C 
ATOM     33  H4  7AC d   1      -2.497  -0.063  23.826  0.00  0.00     0.057 H 
ATOM     34  H5  7AC d   1      -0.726  -0.281  24.033  0.00  0.00     0.057 H 
ATOM     35  H6  7AC d   1      -1.858  -1.569  24.569  0.00  0.00     0.057 H 
ENDBRANCH   7  32
TORSDOF 4
