REMARK  4 active torsions:
REMARK  status: ('A' for Active; 'I' for Inactive)
REMARK    1  A    between atoms: C7_6  and  C4_3 
REMARK    2  A    between atoms: C12_16  and  C13_9 
REMARK    3  A    between atoms: C16_13  and  O1_14 
REMARK    4  A    between atoms: C12_16  and  C11_17 
ROOT
ATOM      1  N1  LKG d   1      19.894  14.038  56.737  0.00  0.00    -0.197 N 
ATOM      2  N3  LKG d   1      20.849  15.990  56.440  0.00  0.00    -0.128 NA
ATOM      3  C7  LKG d   1      18.181  13.547  58.128  0.00  0.00     0.088 A 
ATOM      4  C8  LKG d   1      18.096  14.868  58.583  0.00  0.00    -0.049 A 
ATOM      5  C10 LKG d   1      19.885  15.384  57.125  0.00  0.00     0.174 A 
ATOM      6  C11 LKG d   1      20.924  13.978  55.811  0.00  0.00     0.156 A 
ATOM      7  N2  LKG d   1      19.105  13.207  57.203  0.00  0.00    -0.164 NA
ATOM      8  N4  LKG d   1      21.442  15.196  55.692  0.00  0.00    -0.132 NA
ATOM      9  C9  LKG d   1      18.968  15.821  58.075  0.00  0.00    -0.033 A 
ATOM     10  H3  LKG d   1      17.352  15.146  59.329  0.00  0.00     0.087 H 
ATOM     11  H11 LKG d   1      18.936  16.859  58.404  0.00  0.00     0.089 H 
ENDROOT
BRANCH   6  12
ATOM     12  C12 LKG d   1      21.320  12.698  55.070  0.00  0.00     0.018 C 
ATOM     13  H9  LKG d   1      20.411  12.211  54.686  0.00  0.00     0.051 H 
ATOM     14  H10 LKG d   1      21.979  12.960  54.229  0.00  0.00     0.051 H 
BRANCH  12  15
ATOM     15  C13 LKG d   1      22.055  11.723  55.993  0.00  0.00    -0.051 A 
ATOM     16  C14 LKG d   1      23.395  11.941  56.318  0.00  0.00    -0.074 A 
ATOM     17  C15 LKG d   1      24.051  11.037  57.159  0.00  0.00    -0.051 A 
ATOM     18  H6  LKG d   1      23.921  12.802  55.922  0.00  0.00     0.084 H 
ATOM     19  C16 LKG d   1      23.366   9.929  57.655  0.00  0.00     0.065 A 
ATOM     20  H4  LKG d   1      25.090  11.197  57.425  0.00  0.00     0.087 H 
ATOM     21  C17 LKG d   1      22.029   9.709  57.319  0.00  0.00    -0.051 A 
ATOM     22  C18 LKG d   1      21.373  10.612  56.484  0.00  0.00    -0.074 A 
ATOM     23  H5  LKG d   1      21.505   8.842  57.705  0.00  0.00     0.087 H 
ATOM     24  H8  LKG d   1      20.335  10.450  56.217  0.00  0.00     0.084 H 
BRANCH  19  25
ATOM     25  O1  LKG d   1      24.000   9.042  58.467  0.00  0.00    -0.361 OA
ATOM     26  H7  LKG d   1      23.549   9.001  59.302  0.00  0.00     0.217 HD
ENDBRANCH  19  25
ENDBRANCH  12  15
ENDBRANCH   6  12
BRANCH   3  27
ATOM     27  C4  LKG d   1      17.307  12.576  58.622  0.00  0.00    -0.006 A 
ATOM     28  C5  LKG d   1      17.615  11.223  58.481  0.00  0.00    -0.071 A 
ATOM     29  C6  LKG d   1      16.747  10.246  58.965  0.00  0.00    -0.082 A 
ATOM     30  H1  LKG d   1      18.536  10.929  57.991  0.00  0.00     0.084 H 
ATOM     31  C1  LKG d   1      15.558  10.625  59.596  0.00  0.00    -0.083 A 
ATOM     32  H2  LKG d   1      16.993   9.196  58.853  0.00  0.00     0.083 H 
ATOM     33  C2  LKG d   1      15.243  11.973  59.738  0.00  0.00    -0.082 A 
ATOM     34  H14 LKG d   1      14.881   9.868  59.975  0.00  0.00     0.083 H 
ATOM     35  C3  LKG d   1      16.116  12.946  59.254  0.00  0.00    -0.071 A 
ATOM     36  H13 LKG d   1      14.320  12.266  60.224  0.00  0.00     0.083 H 
ATOM     37  H12 LKG d   1      15.870  13.995  59.368  0.00  0.00     0.084 H 
ENDBRANCH   3  27
TORSDOF 4
