REMARK  6 active torsions:
REMARK  status: ('A' for Active; 'I' for Inactive)
REMARK    1  A    between atoms: C7_6  and  C4_3 
REMARK    2  A    between atoms: O1_21  and  C13_9 
REMARK    3  A    between atoms: O2_15  and  C22_14 
REMARK    4  A    between atoms: C19_16  and  O2_15 
REMARK    5  A    between atoms: C12_22  and  O1_21 
REMARK    6  A    between atoms: C11_23  and  C12_22 
ROOT
ATOM      1  C12 L5G d   1      21.099  12.506  55.252  0.00  0.00     0.084 C 
ATOM      2  H12 L5G d   1      20.449  12.508  54.364  0.00  0.00     0.087 H 
ATOM      3  H13 L5G d   1      22.146  12.631  54.940  0.00  0.00     0.087 H 
ENDROOT
BRANCH   1   4
ATOM      4  O1  L5G d   1      20.996  11.164  55.843  0.00  0.00    -0.343 OA
BRANCH   4   5
ATOM      5  C13 L5G d   1      21.996  10.785  56.702  0.00  0.00     0.083 A 
ATOM      6  C16 L5G d   1      21.808   9.683  57.535  0.00  0.00     0.026 A 
ATOM      7  C17 L5G d   1      22.832   9.288  58.409  0.00  0.00     0.072 A 
ATOM      8  C21 L5G d   1      20.611   8.975  57.505  0.00  0.00    -0.065 A 
ATOM      9  C18 L5G d   1      22.652   8.186  59.251  0.00  0.00    -0.022 A 
ATOM     10  N5  L5G d   1      23.989   9.972  58.440  0.00  0.00    -0.260 NA
ATOM     11  C19 L5G d   1      21.446   7.475  59.220  0.00  0.00     0.070 A 
ATOM     12  H10 L5G d   1      23.444   7.883  59.926  0.00  0.00     0.091 H 
ATOM     13  C20 L5G d   1      20.431   7.881  58.350  0.00  0.00    -0.050 A 
ATOM     14  H5  L5G d   1      19.492   7.339  58.332  0.00  0.00     0.087 H 
ATOM     15  C15 L5G d   1      24.199  11.025  57.661  0.00  0.00     0.005 A 
ATOM     16  C14 L5G d   1      23.215  11.461  56.769  0.00  0.00    -0.033 A 
ATOM     17  H4  L5G d   1      25.144  11.553  57.717  0.00  0.00     0.114 H 
ATOM     18  H11 L5G d   1      23.398  12.319  56.133  0.00  0.00     0.090 H 
ATOM     19  H6  L5G d   1      19.820   9.273  56.826  0.00  0.00     0.085 H 
BRANCH  11  20
ATOM     20  O2  L5G d   1      21.194   6.387  60.015  0.00  0.00    -0.356 OA
BRANCH  20  21
ATOM     21  C22 L5G d   1      22.249   5.933  60.878  0.00  0.00     0.010 C 
ATOM     22  H7  L5G d   1      21.904   5.060  61.451  0.00  0.00     0.066 H 
ATOM     23  H8  L5G d   1      22.528   6.740  61.572  0.00  0.00     0.066 H 
ATOM     24  H9  L5G d   1      23.123   5.652  60.272  0.00  0.00     0.066 H 
ENDBRANCH  20  21
ENDBRANCH  11  20
ENDBRANCH   4   5
ENDBRANCH   1   4
BRANCH   1  25
ATOM     25  C11 L5G d   1      20.766  13.644  55.990  0.00  0.00     0.176 A 
ATOM     26  N2  L5G d   1      19.733  13.740  56.910  0.00  0.00    -0.195 N 
ATOM     27  N1  L5G d   1      18.870  12.958  57.323  0.00  0.00    -0.164 NA
ATOM     28  C10 L5G d   1      19.826  15.059  57.354  0.00  0.00     0.174 A 
ATOM     29  C7  L5G d   1      17.961  13.325  58.247  0.00  0.00     0.088 A 
ATOM     30  C8  L5G d   1      17.969  14.624  58.759  0.00  0.00    -0.049 A 
ATOM     31  C9  L5G d   1      18.922  15.522  58.306  0.00  0.00    -0.033 A 
ATOM     32  H3  L5G d   1      17.236  14.927  59.505  0.00  0.00     0.087 H 
ATOM     33  H14 L5G d   1      18.962  16.545  58.678  0.00  0.00     0.089 H 
ATOM     34  N3  L5G d   1      20.853  15.623  56.712  0.00  0.00    -0.128 NA
ATOM     35  N4  L5G d   1      21.391  14.822  55.932  0.00  0.00    -0.130 NA
BRANCH  29  36
ATOM     36  C4  L5G d   1      17.015  12.389  58.663  0.00  0.00    -0.006 A 
ATOM     37  C5  L5G d   1      15.995  12.738  59.552  0.00  0.00    -0.071 A 
ATOM     38  C6  L5G d   1      15.054  11.785  59.936  0.00  0.00    -0.082 A 
ATOM     39  H1  L5G d   1      15.936  13.748  59.942  0.00  0.00     0.084 H 
ATOM     40  C1  L5G d   1      15.128  10.483  59.437  0.00  0.00    -0.083 A 
ATOM     41  H2  L5G d   1      14.262  12.055  60.625  0.00  0.00     0.083 H 
ATOM     42  C2  L5G d   1      16.143  10.130  58.547  0.00  0.00    -0.082 A 
ATOM     43  H17 L5G d   1      14.395   9.745  59.742  0.00  0.00     0.083 H 
ATOM     44  C3  L5G d   1      17.080  11.086  58.158  0.00  0.00    -0.071 A 
ATOM     45  H16 L5G d   1      16.203   9.119  58.161  0.00  0.00     0.083 H 
ATOM     46  H15 L5G d   1      17.864  10.818  57.459  0.00  0.00     0.084 H 
ENDBRANCH  29  36
ENDBRANCH   1  25
TORSDOF 6
