REMARK  11 active torsions:
REMARK  status: ('A' for Active; 'I' for Inactive)
REMARK    1  A    between atoms: C8_5  and  N26_16 
REMARK    2  A    between atoms: C11_33  and  C10_6 
REMARK    3  A    between atoms: C13_7  and  O32_27 
REMARK    4  A    between atoms: C21_11  and  C17_9 
REMARK    5  A    between atoms: N25_29  and  C20_10 
REMARK    6  A    between atoms: C20_10  and  C19_30 
REMARK    7  A    between atoms: C19_30  and  C21_11 
REMARK    8  A    between atoms: C21_11  and  C16_31 
REMARK    9  A    between atoms: S35_13  and  C18_15 
REMARK   10  A    between atoms: N26_16  and  S35_13 
REMARK   11  A    between atoms: C14_23  and  C12_26 
ROOT
ATOM      1  C13 N3H d   1      95.919   7.760  54.624  0.00  0.00     0.117 C 
ATOM      2  C15 N3H d   1      94.413   9.617  55.168  0.00  0.00     0.280 C 
ATOM      3  C12 N3H d   1      95.285   8.481  55.588  0.00  0.00     0.116 C 
ATOM      4  O27 N3H d   1      93.657  10.172  55.975  0.00  0.00    -0.265 OA
ATOM      5  N25 N3H d   1      94.555  10.061  53.866  0.00  0.00    -0.233 N 
ATOM      6  N23 N3H d   1      95.346   9.462  52.941  0.00  0.00    -0.166 NA
ATOM      7  C11 N3H d   1      96.001   8.391  53.263  0.00  0.00     0.128 C 
ENDROOT
BRANCH   3   8
ATOM      8  C14 N3H d   1      95.397   8.232  57.043  0.00  0.00     0.156 C 
ATOM      9  N24 N3H d   1      96.339   7.229  57.382  0.00  0.00    -0.263 N 
ATOM     10  S34 N3H d   1      96.558   6.754  58.989  0.00  0.00     0.266 S 
ATOM     11  H15 N3H d   1      96.881   6.797  56.661  0.00  0.00     0.180 HD
ATOM     12  C9  N3H d   1      95.939   8.130  59.903  0.00  0.00     0.110 A 
ATOM     13  O28 N3H d   1      97.962   6.641  59.312  0.00  0.00    -0.200 OA
ATOM     14  O29 N3H d   1      95.657   5.639  59.231  0.00  0.00    -0.200 OA
ATOM     15  C5  N3H d   1      96.313   8.306  61.249  0.00  0.00    -0.032 A 
ATOM     16  C7  N3H d   1      95.069   9.017  59.254  0.00  0.00     0.082 A 
ATOM     17  C8  N3H d   1      95.789   9.402  61.965  0.00  0.00     0.043 A 
ATOM     18  H2  N3H d   1      96.993   7.610  61.727  0.00  0.00     0.089 H 
ATOM     19  C3  N3H d   1      94.926  10.298  61.332  0.00  0.00    -0.054 A 
ATOM     20  C2  N3H d   1      94.569  10.111  59.990  0.00  0.00    -0.051 A 
ATOM     21  H14 N3H d   1      94.529  11.144  61.882  0.00  0.00     0.087 H 
ATOM     22  H16 N3H d   1      93.900  10.817  59.511  0.00  0.00     0.087 H 
ATOM     23  N22 N3H d   1      94.676   8.891  57.912  0.00  0.00    -0.228 NA
BRANCH  17  24
ATOM     24  N26 N3H d   1      96.125   9.652  63.334  0.00  0.00    -0.285 N 
ATOM     25  H13 N3H d   1      96.259  10.595  63.638  0.00  0.00     0.178 HD
BRANCH  24  26
ATOM     26  S35 N3H d   1      96.304   8.373  64.470  0.00  0.00     0.227 S 
ATOM     27  O31 N3H d   1      95.736   7.132  63.956  0.00  0.00    -0.206 OA
ATOM     28  O30 N3H d   1      95.918   8.866  65.772  0.00  0.00    -0.206 OA
BRANCH  26  29
ATOM     29  C18 N3H d   1      98.075   8.233  64.525  0.00  0.00     0.033 C 
ATOM     30  H10 N3H d   1      98.444   7.859  63.558  0.00  0.00     0.051 H 
ATOM     31  H11 N3H d   1      98.363   7.532  65.323  0.00  0.00     0.051 H 
ATOM     32  H12 N3H d   1      98.515   9.221  64.728  0.00  0.00     0.051 H 
ENDBRANCH  26  29
ENDBRANCH  24  26
ENDBRANCH  17  24
ENDBRANCH   3   8
BRANCH   1  33
ATOM     33  O32 N3H d   1      96.407   6.485  54.811  0.00  0.00    -0.357 OA
ATOM     34  H17 N3H d   1      97.055   6.494  55.506  0.00  0.00     0.217 HD
ENDBRANCH   1  33
BRANCH   7  35
ATOM     35  C10 N3H d   1      96.834   7.846  52.180  0.00  0.00     0.038 A 
ATOM     36  C4  N3H d   1      97.191   8.474  51.005  0.00  0.00    -0.064 A 
ATOM     37  C1  N3H d   1      98.028   7.664  50.184  0.00  0.00    -0.075 A 
ATOM     38  H1  N3H d   1      96.869   9.478  50.734  0.00  0.00     0.085 H 
ATOM     39  C6  N3H d   1      98.297   6.446  50.765  0.00  0.00    -0.044 A 
ATOM     40  H23 N3H d   1      98.410   7.972  49.212  0.00  0.00     0.084 H 
ATOM     41  S33 N3H d   1      97.526   6.284  52.288  0.00  0.00    -0.100 SA
ATOM     42  H3  N3H d   1      98.923   5.678  50.313  0.00  0.00     0.095 H 
ENDBRANCH   7  35
BRANCH   5  43
ATOM     43  C20 N3H d   1      93.866  11.245  53.387  0.00  0.00     0.021 C 
ATOM     44  H7  N3H d   1      94.331  11.579  52.447  0.00  0.00     0.067 H 
ATOM     45  H8  N3H d   1      93.950  12.042  54.141  0.00  0.00     0.067 H 
BRANCH  43  46
ATOM     46  C19 N3H d   1      92.382  10.941  53.136  0.00  0.00    -0.045 C 
ATOM     47  H18 N3H d   1      91.942  11.808  52.622  0.00  0.00     0.036 H 
ATOM     48  H19 N3H d   1      91.895  10.808  54.113  0.00  0.00     0.036 H 
BRANCH  46  49
ATOM     49  C21 N3H d   1      92.086   9.685  52.284  0.00  0.00    -0.060 C 
ATOM     50  H9  N3H d   1      92.666   8.853  52.709  0.00  0.00     0.038 H 
BRANCH  49  51
ATOM     51  C17 N3H d   1      90.610   9.273  52.297  0.00  0.00    -0.073 C 
ATOM     52  H4  N3H d   1      90.474   8.377  51.673  0.00  0.00     0.028 H 
ATOM     53  H5  N3H d   1      89.996  10.094  51.898  0.00  0.00     0.028 H 
ATOM     54  H6  N3H d   1      90.300   9.052  53.329  0.00  0.00     0.028 H 
ENDBRANCH  49  51
BRANCH  49  55
ATOM     55  C16 N3H d   1      92.556   9.907  50.837  0.00  0.00    -0.073 C 
ATOM     56  H20 N3H d   1      92.341   9.009  50.240  0.00  0.00     0.028 H 
ATOM     57  H21 N3H d   1      93.638  10.102  50.829  0.00  0.00     0.028 H 
ATOM     58  H22 N3H d   1      92.025  10.769  50.407  0.00  0.00     0.028 H 
ENDBRANCH  49  55
ENDBRANCH  46  49
ENDBRANCH  43  46
ENDBRANCH   5  43
TORSDOF 11
