REMARK  6 active torsions:
REMARK  status: ('A' for Active; 'I' for Inactive)
REMARK    1  A    between atoms: CAA_1  and  N_2 
REMARK    2  A    between atoms: N_2  and  CAB_3 
REMARK    3  A    between atoms: N_2  and  CA_4 
REMARK    4  A    between atoms: CA_4  and  C_5 
REMARK       I    between atoms: C_5  and  NAM_7 
REMARK    5  A    between atoms: NAM_7  and  CAP_8 
REMARK    6  A    between atoms: CAQ_17  and  OAD_18 
ROOT
ATOM      1  CAP P34 d   1      21.219  -5.919  13.313  0.00  0.00     0.013 A 
ATOM      2  CAK P34 d   1      20.403  -7.053  12.647  0.00  0.00    -0.041 A 
ATOM      3  CAU P34 d   1      18.942  -6.782  12.200  0.00  0.00    -0.021 A 
ATOM      4  CAT P34 d   1      18.128  -7.881  11.541  0.00  0.00    -0.041 A 
ATOM      5  CAI P34 d   1      18.774  -9.275  11.323  0.00  0.00    -0.061 A 
ATOM      6  CAF P34 d   1      17.944 -10.386  10.656  0.00  0.00    -0.065 A 
ATOM      7  CAE P34 d   1      16.501 -10.135  10.208  0.00  0.00    -0.065 A 
ATOM      8  CAH P34 d   1      15.868  -8.756  10.427  0.00  0.00    -0.057 A 
ATOM      9  CAS P34 d   1      16.707  -7.630  11.103  0.00  0.00    -0.000 A 
ATOM     10  CAQ P34 d   1      16.084  -6.224  11.333  0.00  0.00     0.194 A 
ATOM     11  NAN P34 d   1      16.891  -5.135  11.984  0.00  0.00    -0.044 N 
ATOM     12  CAR P34 d   1      18.316  -5.388  12.426  0.00  0.00     0.109 A 
ATOM     13  CAJ P34 d   1      19.134  -4.250  13.097  0.00  0.00    -0.036 A 
ATOM     14  CAG P34 d   1      20.587  -4.515  13.542  0.00  0.00    -0.044 A 
ATOM     15  H11 P34 d   1      21.583  -5.600  12.325  0.00  0.00     0.072 H 
ATOM     16  H12 P34 d   1      20.369  -7.886  13.364  0.00  0.00     0.036 H 
ATOM     17  H13 P34 d   1      20.959  -7.364  11.750  0.00  0.00     0.036 H 
ATOM     18  H14 P34 d   1      18.580  -7.106  13.187  0.00  0.00     0.043 H 
ATOM     19  H15 P34 d   1      18.487  -7.556  10.553  0.00  0.00     0.041 H 
ATOM     20  H16 P34 d   1      19.076  -9.649  12.312  0.00  0.00     0.033 H 
ATOM     21  H17 P34 d   1      19.668  -9.122  10.700  0.00  0.00     0.033 H 
ATOM     22  H18 P34 d   1      17.908 -11.221  11.371  0.00  0.00     0.033 H 
ATOM     23  H19 P34 d   1      18.500 -10.695   9.759  0.00  0.00     0.033 H 
ATOM     24  H20 P34 d   1      15.871 -10.864  10.739  0.00  0.00     0.033 H 
ATOM     25  H21 P34 d   1      16.463 -10.336   9.127  0.00  0.00     0.033 H 
ATOM     26  H22 P34 d   1      14.975  -8.908  11.050  0.00  0.00     0.033 H 
ATOM     27  H23 P34 d   1      15.566  -8.381   9.438  0.00  0.00     0.033 H 
ATOM     28  H24 P34 d   1      16.344  -7.956  12.089  0.00  0.00     0.047 H 
ATOM     29  H25 P34 d   1      16.436  -5.903  10.342  0.00  0.00     0.129 H 
ATOM     30  H27 P34 d   1      16.381  -4.851  12.806  0.00  0.00     0.280 HD
ATOM     31  H28 P34 d   1      16.925  -4.370  11.328  0.00  0.00     0.280 HD
ATOM     32  H29 P34 d   1      17.956  -5.709  13.415  0.00  0.00     0.085 H 
ATOM     33  H30 P34 d   1      18.577  -3.942  13.994  0.00  0.00     0.036 H 
ATOM     34  H31 P34 d   1      19.167  -3.415  12.381  0.00  0.00     0.036 H 
ATOM     35  H32 P34 d   1      21.221  -3.789  13.011  0.00  0.00     0.036 H 
ATOM     36  H33 P34 d   1      20.631  -4.318  14.623  0.00  0.00     0.036 H 
ENDROOT
BRANCH   1  37
ATOM     37  NAM P34 d   1      22.589  -6.159  13.751  0.00  0.00    -0.355 N 
ATOM     38  C   P34 d   1      22.849  -6.257  15.184  0.00  0.00     0.243 C 
ATOM     39  O   P34 d   1      23.955  -6.433  15.581  0.00  0.00    -0.272 OA
ATOM     40  H10 P34 d   1      23.331  -6.254  13.087  0.00  0.00     0.162 HD
BRANCH  38  41
ATOM     41  CA  P34 d   1      21.657  -6.260  16.157  0.00  0.00     0.155 C 
ATOM     42  H8  P34 d   1      21.103  -5.320  16.019  0.00  0.00     0.090 H 
ATOM     43  H9  P34 d   1      21.008  -7.110  15.898  0.00  0.00     0.090 H 
BRANCH  41  44
ATOM     44  N   P34 d   1      22.010  -6.375  17.578  0.00  0.00    -0.070 N 
ATOM     45  H4  P34 d   1      22.982  -6.136  17.699  0.00  0.00     0.279 HD
BRANCH  44  46
ATOM     46  CAA P34 d   1      21.795  -7.754  18.036  0.00  0.00     0.066 C 
ATOM     47  H1  P34 d   1      22.061  -7.832  19.100  0.00  0.00     0.068 H 
ATOM     48  H2  P34 d   1      22.425  -8.438  17.449  0.00  0.00     0.068 H 
ATOM     49  H3  P34 d   1      20.737  -8.024  17.902  0.00  0.00     0.068 H 
ENDBRANCH  44  46
BRANCH  44  50
ATOM     50  CAB P34 d   1      21.184  -5.446  18.361  0.00  0.00     0.066 C 
ATOM     51  H5  P34 d   1      21.354  -4.418  18.009  0.00  0.00     0.068 H 
ATOM     52  H6  P34 d   1      21.457  -5.519  19.424  0.00  0.00     0.068 H 
ATOM     53  H7  P34 d   1      20.122  -5.705  18.237  0.00  0.00     0.068 H 
ENDBRANCH  44  50
ENDBRANCH  41  44
ENDBRANCH  38  41
ENDBRANCH   1  37
BRANCH  10  54
ATOM     54  OAD P34 d   1      14.763  -5.963  10.957  0.00  0.00    -0.369 OA
ATOM     55  H26 P34 d   1      14.388  -6.741  10.562  0.00  0.00     0.212 HD
ENDBRANCH  10  54
TORSDOF 6
