REMARK  5 active torsions:
REMARK  status: ('A' for Active; 'I' for Inactive)
REMARK    1  A    between atoms: C18_2  and  C17_3 
REMARK       I    between atoms: C17_3  and  N15_24 
REMARK    2  A    between atoms: N15_24  and  C11_8 
REMARK    3  A    between atoms: O7_19  and  C6_18 
REMARK    4  A    between atoms: C8_20  and  O7_19 
REMARK    5  A    between atoms: N21_26  and  C26_28 
ROOT
ATOM      1  C13 1FN d   1      20.129  13.963  56.607  0.00  0.00     0.152 A 
ATOM      2  C11 1FN d   1      20.282  16.396  56.462  0.00  0.00     0.038 A 
ATOM      3  C12 1FN d   1      20.322  15.168  55.821  0.00  0.00    -0.017 A 
ATOM      4  C8  1FN d   1      19.880  14.003  57.999  0.00  0.00     0.114 A 
ATOM      5  C9  1FN d   1      19.831  15.319  58.604  0.00  0.00    -0.045 A 
ATOM      6  C10 1FN d   1      20.031  16.525  57.852  0.00  0.00    -0.054 A 
ATOM      7  F14 1FN d   1      20.186  12.688  56.062  0.00  0.00    -0.203 F 
ATOM      8  H4  1FN d   1      20.494  15.108  54.752  0.00  0.00     0.091 H 
ATOM      9  H10 1FN d   1      19.635  15.396  59.667  0.00  0.00     0.088 H 
ATOM     10  H11 1FN d   1      19.992  17.498  58.328  0.00  0.00     0.087 H 
ENDROOT
BRANCH   2  11
ATOM     11  N15 1FN d   1      20.483  17.551  55.797  0.00  0.00    -0.323 N 
ATOM     12  C17 1FN d   1      20.650  17.817  54.419  0.00  0.00     0.261 C 
ATOM     13  O19 1FN d   1      20.508  17.031  53.488  0.00  0.00    -0.267 OA
ATOM     14  H12 1FN d   1      20.521  18.362  56.381  0.00  0.00     0.169 HD
BRANCH  12  15
ATOM     15  C18 1FN d   1      20.990  19.203  54.105  0.00  0.00     0.100 A 
ATOM     16  C20 1FN d   1      21.194  20.260  55.165  0.00  0.00     0.268 A 
ATOM     17  N21 1FN d   1      21.496  21.611  54.641  0.00  0.00    -0.289 N 
ATOM     18  O25 1FN d   1      21.120  20.056  56.429  0.00  0.00    -0.267 OA
ATOM     19  C22 1FN d   1      21.569  21.942  53.350  0.00  0.00    -0.011 A 
ATOM     20  C23 1FN d   1      21.371  20.923  52.398  0.00  0.00    -0.066 A 
ATOM     21  H1  1FN d   1      21.775  22.966  53.043  0.00  0.00     0.112 H 
ATOM     22  C24 1FN d   1      21.097  19.590  52.775  0.00  0.00    -0.061 A 
ATOM     23  H2  1FN d   1      21.431  21.171  51.339  0.00  0.00     0.085 H 
ATOM     24  H3  1FN d   1      20.965  18.840  51.997  0.00  0.00     0.085 H 
BRANCH  17  25
ATOM     25  C26 1FN d   1      21.684  22.598  55.570  0.00  0.00     0.042 A 
ATOM     26  C34 1FN d   1      20.695  23.623  55.609  0.00  0.00    -0.054 A 
ATOM     27  C33 1FN d   1      20.833  24.650  56.585  0.00  0.00    -0.043 A 
ATOM     28  H5  1FN d   1      19.862  23.621  54.916  0.00  0.00     0.087 H 
ATOM     29  C32 1FN d   1      21.948  24.606  57.470  0.00  0.00     0.116 A 
ATOM     30  H7  1FN d   1      20.104  25.450  56.653  0.00  0.00     0.088 H 
ATOM     31  C31 1FN d   1      22.982  23.621  57.524  0.00  0.00    -0.043 A 
ATOM     32  F35 1FN d   1      22.145  25.462  58.351  0.00  0.00    -0.206 F 
ATOM     33  C30 1FN d   1      22.805  22.598  56.522  0.00  0.00    -0.054 A 
ATOM     34  H16 1FN d   1      23.802  23.640  58.233  0.00  0.00     0.088 H 
ATOM     35  H15 1FN d   1      23.530  21.794  56.469  0.00  0.00     0.087 H 
ENDBRANCH  17  25
ENDBRANCH  12  15
ENDBRANCH   2  11
BRANCH   4  36
ATOM     36  O7  1FN d   1      19.723  12.765  58.681  0.00  0.00    -0.307 OA
BRANCH  36  37
ATOM     37  C6  1FN d   1      20.862  12.285  59.479  0.00  0.00     0.091 A 
ATOM     38  C1  1FN d   1      20.499  11.333  60.574  0.00  0.00     0.045 A 
ATOM     39  C27 1FN d   1      19.229  10.748  61.060  0.00  0.00    -0.052 A 
ATOM     40  C2  1FN d   1      21.549  10.871  61.351  0.00  0.00     0.140 A 
ATOM     41  C28 1FN d   1      19.686   9.913  62.175  0.00  0.00    -0.020 A 
ATOM     42  H6  1FN d   1      18.217  10.899  60.686  0.00  0.00     0.087 H 
ATOM     43  N29 1FN d   1      21.112  10.028  62.329  0.00  0.00    -0.350 N 
ATOM     44  H13 1FN d   1      19.040   9.295  62.797  0.00  0.00     0.111 H 
ATOM     45  H14 1FN d   1      21.692   9.562  63.042  0.00  0.00     0.166 HD
ATOM     46  N3  1FN d   1      22.820  11.267  61.132  0.00  0.00    -0.242 NA
ATOM     47  C4  1FN d   1      23.239  12.154  60.126  0.00  0.00     0.007 A 
ATOM     48  C5  1FN d   1      22.240  12.671  59.271  0.00  0.00    -0.032 A 
ATOM     49  H8  1FN d   1      24.281  12.429  60.011  0.00  0.00     0.115 H 
ATOM     50  H9  1FN d   1      22.504  13.350  58.468  0.00  0.00     0.090 H 
ENDBRANCH  36  37
ENDBRANCH   4  36
TORSDOF 5
