REMARK  6 active torsions:
REMARK  status: ('A' for Active; 'I' for Inactive)
REMARK    1  A    between atoms: S7_19  and  C3_3 
REMARK    2  A    between atoms: C10_4  and  C11_5 
REMARK       I    between atoms: N9_21  and  C10_4 
REMARK    3  A    between atoms: C15_8  and  N18_10 
REMARK    4  A    between atoms: C4_16  and  N9_21 
REMARK    5  A    between atoms: N8_20  and  S7_19 
REMARK    6  A    between atoms: C25_26  and  N8_20 
ROOT
ATOM      1  C1  FXA d   1       2.614  44.149  64.619  0.00  0.00    -0.081 A 
ATOM      2  C2  FXA d   1       3.880  44.842  64.828  0.00  0.00    -0.058 A 
ATOM      3  C3  FXA d   1       5.058  44.336  64.128  0.00  0.00     0.106 A 
ATOM      4  C4  FXA d   1       4.978  43.195  63.235  0.00  0.00     0.058 A 
ATOM      5  C5  FXA d   1       3.723  42.480  63.064  0.00  0.00    -0.056 A 
ATOM      6  C6  FXA d   1       2.543  42.962  63.766  0.00  0.00    -0.081 A 
ATOM      7  H1  FXA d   1       1.716  44.517  65.101  0.00  0.00     0.083 H 
ATOM      8  H2  FXA d   1       3.945  45.705  65.481  0.00  0.00     0.086 H 
ATOM      9  H10 FXA d   1       3.668  41.605  62.426  0.00  0.00     0.087 H 
ATOM     10  H11 FXA d   1       1.601  42.436  63.656  0.00  0.00     0.083 H 
ENDROOT
BRANCH   4  11
ATOM     11  N9  FXA d   1       6.074  42.722  62.523  0.00  0.00    -0.322 N 
ATOM     12  C10 FXA d   1       6.390  43.015  61.223  0.00  0.00     0.256 C 
ATOM     13  O12 FXA d   1       6.175  44.122  60.723  0.00  0.00    -0.267 OA
ATOM     14  H13 FXA d   1       6.694  42.106  63.009  0.00  0.00     0.169 HD
BRANCH  12  15
ATOM     15  C11 FXA d   1       7.022  41.891  60.432  0.00  0.00     0.032 A 
ATOM     16  C13 FXA d   1       7.842  42.194  59.237  0.00  0.00    -0.066 A 
ATOM     17  C14 FXA d   1       8.392  41.099  58.415  0.00  0.00    -0.056 A 
ATOM     18  H3  FXA d   1       8.039  43.225  58.965  0.00  0.00     0.085 H 
ATOM     19  C15 FXA d   1       8.142  39.678  58.757  0.00  0.00     0.042 A 
ATOM     20  H4  FXA d   1       8.991  41.338  57.544  0.00  0.00     0.087 H 
ATOM     21  C16 FXA d   1       7.363  39.382  59.981  0.00  0.00    -0.056 A 
ATOM     22  C17 FXA d   1       6.812  40.479  60.803  0.00  0.00    -0.066 A 
ATOM     23  H5  FXA d   1       7.196  38.352  60.276  0.00  0.00     0.087 H 
ATOM     24  H14 FXA d   1       6.243  40.242  61.695  0.00  0.00     0.085 H 
BRANCH  19  25
ATOM     25  N18 FXA d   1       8.566  38.640  57.843  0.00  0.00    -0.290 N 
ATOM     26  C19 FXA d   1       7.713  38.343  56.684  0.00  0.00     0.252 A 
ATOM     27  C20 FXA d   1       8.160  37.377  55.625  0.00  0.00    -0.017 A 
ATOM     28  O22 FXA d   1       6.608  38.887  56.578  0.00  0.00    -0.268 OA
ATOM     29  C23 FXA d   1       9.431  36.748  55.815  0.00  0.00    -0.076 A 
ATOM     30  H6  FXA d   1       7.545  37.165  54.752  0.00  0.00     0.092 H 
ATOM     31  C24 FXA d   1      10.201  37.063  57.000  0.00  0.00    -0.067 A 
ATOM     32  H15 FXA d   1       9.814  36.042  55.079  0.00  0.00     0.083 H 
ATOM     33  C21 FXA d   1       9.791  38.005  58.015  0.00  0.00    -0.011 A 
ATOM     34  H8  FXA d   1      11.155  36.555  57.135  0.00  0.00     0.085 H 
ATOM     35  H7  FXA d   1      10.417  38.210  58.882  0.00  0.00     0.112 H 
ENDBRANCH  19  25
ENDBRANCH  12  15
ENDBRANCH   4  11
BRANCH   3  36
ATOM     36  S7  FXA d   1       6.641  45.136  64.302  0.00  0.00     0.266 S 
ATOM     37  O32 FXA d   1       6.446  46.154  65.304  0.00  0.00    -0.200 OA
ATOM     38  O33 FXA d   1       7.034  45.549  62.983  0.00  0.00    -0.200 OA
BRANCH  36  39
ATOM     39  N8  FXA d   1       7.830  44.103  64.838  0.00  0.00    -0.264 N 
ATOM     40  H12 FXA d   1       7.497  43.172  64.986  0.00  0.00     0.180 HD
BRANCH  39  41
ATOM     41  C25 FXA d   1       9.198  44.246  65.129  0.00  0.00     0.136 A 
ATOM     42  C26 FXA d   1      10.141  44.920  64.232  0.00  0.00    -0.036 A 
ATOM     43  C27 FXA d   1      11.529  44.857  64.630  0.00  0.00    -0.057 A 
ATOM     44  H16 FXA d   1       9.819  45.431  63.332  0.00  0.00     0.089 H 
ATOM     45  C28 FXA d   1      11.967  44.131  65.822  0.00  0.00     0.051 A 
ATOM     46  H9  FXA d   1      12.271  45.365  64.025  0.00  0.00     0.086 H 
ATOM     47  C29 FXA d   1      10.985  43.491  66.691  0.00  0.00     0.025 A 
ATOM     48 CL31 FXA d   1      13.751  43.878  66.219  0.00  0.00    -0.083 Cl
ATOM     49  N30 FXA d   1       9.649  43.601  66.305  0.00  0.00    -0.241 NA
ATOM     50  H17 FXA d   1      11.278  42.959  67.589  0.00  0.00     0.117 H 
ENDBRANCH  39  41
ENDBRANCH  36  39
ENDBRANCH   3  36
TORSDOF 6
