REMARK  9 active torsions:
REMARK  status: ('A' for Active; 'I' for Inactive)
REMARK    1  A    between atoms: O3A_8  and  PB_1 
REMARK    2  A    between atoms: PA_5  and  O3A_8 
REMARK    3  A    between atoms: PA_5  and  O5'_9 
REMARK    4  A    between atoms: O5'_9  and  C5'_10 
REMARK    5  A    between atoms: C5'_10  and  C4'_11 
REMARK    6  A    between atoms: C3'_13  and  O3'_14 
REMARK    7  A    between atoms: C2'_15  and  O2'_16 
REMARK    8  A    between atoms: C1'_17  and  N9_18 
REMARK    9  A    between atoms: C6_22  and  N6_23 
ROOT
ATOM      1  C4' ADP d   1      83.657 126.539 263.814  0.00  0.00     0.089 C 
ATOM      2  O4' ADP d   1      83.450 127.269 265.010  0.00  0.00    -0.353 OA
ATOM      3  C3' ADP d   1      84.537 127.434 262.957  0.00  0.00     0.091 C 
ATOM      4  C2' ADP d   1      84.401 128.813 263.529  0.00  0.00     0.105 C 
ATOM      5  C1' ADP d   1      84.100 128.546 264.968  0.00  0.00     0.139 C 
ATOM      6  H3  ADP d   1      82.707 126.352 263.292  0.00  0.00     0.090 H 
ATOM      7  H4  ADP d   1      85.585 127.106 263.027  0.00  0.00     0.091 H 
ATOM      8  H6  ADP d   1      85.361 129.344 263.450  0.00  0.00     0.093 H 
ATOM      9  H8  ADP d   1      83.422 129.327 265.342  0.00  0.00     0.122 H 
ENDROOT
BRANCH   5  10
ATOM     10  N9  ADP d   1      85.311 128.504 265.853  0.00  0.00    -0.294 N 
ATOM     11  C8  ADP d   1      85.781 127.418 266.493  0.00  0.00     0.071 A 
ATOM     12  N7  ADP d   1      86.843 127.733 267.186  0.00  0.00    -0.236 NA
ATOM     13  H9  ADP d   1      85.341 126.423 266.441  0.00  0.00     0.144 H 
ATOM     14  C5  ADP d   1      87.086 128.988 267.024  0.00  0.00     0.149 A 
ATOM     15  C6  ADP d   1      88.046 129.875 267.489  0.00  0.00     0.155 A 
ATOM     16  C4  ADP d   1      86.096 129.501 266.154  0.00  0.00     0.167 A 
ATOM     17  N1  ADP d   1      88.022 131.200 267.108  0.00  0.00    -0.222 NA
ATOM     18  C2  ADP d   1      87.068 131.681 266.272  0.00  0.00     0.091 A 
ATOM     19  N3  ADP d   1      86.116 130.819 265.808  0.00  0.00    -0.222 NA
ATOM     20  H12 ADP d   1      87.062 132.725 265.979  0.00  0.00     0.146 H 
BRANCH  15  21
ATOM     21  N6  ADP d   1      88.996 129.451 268.308  0.00  0.00    -0.382 N 
ATOM     22  H10 ADP d   1      89.709 130.109 268.654  0.00  0.00     0.157 HD
ATOM     23  H11 ADP d   1      89.022 128.463 268.599  0.00  0.00     0.157 HD
ENDBRANCH  15  21
ENDBRANCH   5  10
BRANCH   4  24
ATOM     24  O2' ADP d   1      83.425 129.596 262.855  0.00  0.00    -0.388 OA
ATOM     25  H7  ADP d   1      83.379 130.456 263.255  0.00  0.00     0.210 HD
ENDBRANCH   4  24
BRANCH   1  26
ATOM     26  C5' ADP d   1      84.284 125.183 264.225  0.00  0.00     0.058 C 
ATOM     27  H1  ADP d   1      85.016 125.325 265.034  0.00  0.00     0.079 H 
ATOM     28  H2  ADP d   1      83.504 124.481 264.555  0.00  0.00     0.079 H 
BRANCH  26  29
ATOM     29  O5' ADP d   1      84.924 124.701 263.053  0.00  0.00    -0.287 OA
BRANCH  29  30
ATOM     30  PA  ADP d   1      85.721 123.358 262.848  0.00  0.00     0.418 P 
ATOM     31  O1A ADP d   1      87.089 123.622 262.448  0.00  0.00    -0.624 OA
ATOM     32  O2A ADP d   1      85.052 122.606 261.807  0.00  0.00    -0.624 OA
BRANCH  30  33
ATOM     33  O3A ADP d   1      85.718 122.553 264.173  0.00  0.00    -0.173 OA
BRANCH  33  34
ATOM     34  PB  ADP d   1      86.244 121.125 264.496  0.00  0.00     0.431 P 
ATOM     35  O1B ADP d   1      87.195 120.730 263.441  0.00  0.00    -0.616 OA
ATOM     36  O2B ADP d   1      86.970 121.126 265.916  0.00  0.00    -0.616 OA
ATOM     37  O3B ADP d   1      85.107 120.190 264.523  0.00  0.00    -0.616 OA
ENDBRANCH  33  34
ENDBRANCH  30  33
ENDBRANCH  29  30
ENDBRANCH  26  29
ENDBRANCH   1  26
BRANCH   3  38
ATOM     38  O3' ADP d   1      84.137 127.385 261.600  0.00  0.00    -0.390 OA
ATOM     39  H5  ADP d   1      83.237 127.679 261.526  0.00  0.00     0.210 HD
ENDBRANCH   3  38
TORSDOF 9
