REMARK  4 active torsions:
REMARK  status: ('A' for Active; 'I' for Inactive)
REMARK    1  A    between atoms: CAM_3  and  OAB_4 
REMARK    2  A    between atoms: CAP_7  and  CAQ_8 
REMARK    3  A    between atoms: CAN_16  and  OAC_17 
REMARK    4  A    between atoms: CAO_19  and  OAD_20 
ROOT
ATOM      1  CAQ AGI d   1      16.679  15.629 -11.938  0.00  0.00     0.090 A 
ATOM      2  OAL AGI d   1      16.177  16.627 -12.755  0.00  0.00    -0.309 OA
ATOM      3  CAJ AGI d   1      15.901  14.979 -10.975  0.00  0.00    -0.000 A 
ATOM      4  CAR AGI d   1      14.560  15.312 -10.845  0.00  0.00     0.190 A 
ATOM      5  OAA AGI d   1      13.868  14.727 -10.006  0.00  0.00    -0.287 OA
ATOM      6  CAT AGI d   1      14.046  16.346 -11.631  0.00  0.00     0.081 A 
ATOM      7  CAS AGI d   1      14.869  17.008 -12.554  0.00  0.00     0.095 A 
ATOM      8  CAK AGI d   1      14.346  18.075 -13.296  0.00  0.00    -0.017 A 
ATOM      9  CAN AGI d   1      13.026  18.501 -13.103  0.00  0.00     0.071 A 
ATOM     10  CAI AGI d   1      12.218  17.862 -12.164  0.00  0.00    -0.018 A 
ATOM     11  CAO AGI d   1      12.746  16.805 -11.420  0.00  0.00     0.085 A 
ATOM     12  H6  AGI d   1      16.343  14.219 -10.333  0.00  0.00     0.094 H 
ATOM     13  H7  AGI d   1      14.970  18.576 -14.027  0.00  0.00     0.092 H 
ATOM     14  H9  AGI d   1      11.193  18.181 -12.013  0.00  0.00     0.092 H 
ENDROOT
BRANCH   1  15
ATOM     15  CAP AGI d   1      18.029  15.309 -11.993  0.00  0.00    -0.002 A 
ATOM     16  CAG AGI d   1      18.891  16.408 -11.994  0.00  0.00    -0.068 A 
ATOM     17  CAE AGI d   1      20.266  16.230 -12.007  0.00  0.00    -0.050 A 
ATOM     18  H1  AGI d   1      18.480  17.411 -11.985  0.00  0.00     0.085 H 
ATOM     19  CAM AGI d   1      20.772  14.937 -11.984  0.00  0.00     0.065 A 
ATOM     20  H2  AGI d   1      20.933  17.084 -12.035  0.00  0.00     0.087 H 
ATOM     21  CAF AGI d   1      19.924  13.824 -11.958  0.00  0.00    -0.050 A 
ATOM     22  CAH AGI d   1      18.539  14.007 -11.948  0.00  0.00    -0.068 A 
ATOM     23  H4  AGI d   1      20.340  12.823 -11.946  0.00  0.00     0.087 H 
ATOM     24  H5  AGI d   1      17.871  13.155 -11.906  0.00  0.00     0.085 H 
BRANCH  19  25
ATOM     25  OAB AGI d   1      22.116  14.789 -11.992  0.00  0.00    -0.361 OA
ATOM     26  H3  AGI d   1      22.472  15.183 -12.780  0.00  0.00     0.217 HD
ENDBRANCH  19  25
ENDBRANCH   1  15
BRANCH  11  27
ATOM     27  OAD AGI d   1      11.981  16.186 -10.489  0.00  0.00    -0.360 OA
ATOM     28  H10 AGI d   1      12.485  15.495 -10.075  0.00  0.00     0.217 HD
ENDBRANCH  11  27
BRANCH   9  29
ATOM     29  OAC AGI d   1      12.526  19.544 -13.832  0.00  0.00    -0.361 OA
ATOM     30  H8  AGI d   1      11.624  19.702 -13.579  0.00  0.00     0.217 HD
ENDBRANCH   9  29
TORSDOF 4
