REMARK WARNING: 32 MAX_TORS EXCEEDED!!!
REMARK  71 active torsions:
REMARK  status: ('A' for Active; 'I' for Inactive)
REMARK    1  A    between atoms: CA_2  and  N_1 
REMARK    2  A    between atoms: CA_2  and  CB_5 
REMARK    3  A    between atoms: C_3  and  CA_2 
REMARK       I    between atoms: N_10  and  C_3 
REMARK    4  A    between atoms: CB_5  and  CG_6 
REMARK    5  A    between atoms: CG_6  and  CD_7 
REMARK       I    between atoms: CD_7  and  NE2_9 
REMARK    6  A    between atoms: CA_11  and  N_10 
REMARK    7  A    between atoms: C_12  and  CA_11 
REMARK       I    between atoms: N_14  and  C_12 
REMARK    8  A    between atoms: CA_15  and  N_14 
REMARK    9  A    between atoms: CA_15  and  CB_18 
REMARK   10  A    between atoms: C_16  and  CA_15 
REMARK       I    between atoms: N_22  and  C_16 
REMARK   11  A    between atoms: CB_18  and  CG2_20 
REMARK   12  A    between atoms: CB_18  and  CG1_19 
REMARK   13  A    between atoms: CG1_19  and  CD1_21 
REMARK   14  A    between atoms: CA_23  and  N_22 
REMARK   15  A    between atoms: CA_23  and  CB_26 
REMARK   16  A    between atoms: C_24  and  CA_23 
REMARK       I    between atoms: N_29  and  C_24 
REMARK   17  A    between atoms: CB_26  and  CG2_28 
REMARK   18  A    between atoms: CB_26  and  OG1_27 
REMARK   19  A    between atoms: CA_30  and  N_29 
REMARK   20  A    between atoms: CA_30  and  CB_33 
REMARK   21  A    between atoms: C_31  and  CA_30 
REMARK       I    between atoms: N_38  and  C_31 
REMARK   22  A    between atoms: CB_33  and  CG_34 
REMARK   23  A    between atoms: CG_34  and  CD_35 
REMARK   24  A    between atoms: CD_35  and  CE_36 
REMARK   25  A    between atoms: CE_36  and  NZ_37 
REMARK   26  A    between atoms: C_40  and  CA_39 
REMARK       I    between atoms: N_45  and  C_40 
REMARK   27  A    between atoms: CA_46  and  N_45 
REMARK   28  A    between atoms: CA_46  and  CB_49 
REMARK   29  A    between atoms: C_47  and  CA_46 
REMARK       I    between atoms: N_50  and  C_47 
REMARK   30  A    between atoms: CA_51  and  N_50 
REMARK   31  A    between atoms: CA_51  and  CB_54 
REMARK   32  A    between atoms: C_52  and  CA_51 
REMARK       I    between atoms: N_58  and  C_52 
REMARK   33  A    between atoms: CB_54  and  CG2_56 
REMARK   34  A    between atoms: CB_54  and  CG1_55 
REMARK   35  A    between atoms: CG1_55  and  CD1_57 
REMARK   36  A    between atoms: CA_59  and  N_58 
REMARK   37  A    between atoms: CA_59  and  CB_62 
REMARK   38  A    between atoms: C_60  and  CA_59 
REMARK       I    between atoms: N_69  and  C_60 
REMARK   39  A    between atoms: CB_62  and  CG_63 
REMARK   40  A    between atoms: CG_63  and  CD_64 
REMARK   41  A    between atoms: CD_64  and  NE_65 
REMARK       I    between atoms: NE_65  and  CZ_66 
REMARK       I    between atoms: CZ_66  and  NH2_68 
REMARK       I    between atoms: CZ_66  and  NH1_67 
REMARK   42  A    between atoms: CA_70  and  N_69 
REMARK   43  A    between atoms: CA_70  and  CB_73 
REMARK   44  A    between atoms: C_71  and  CA_70 
REMARK       I    between atoms: N_80  and  C_71 
REMARK   45  A    between atoms: CB_73  and  CG_74 
REMARK   46  A    between atoms: CG_74  and  CD_75 
REMARK   47  A    between atoms: CD_75  and  NE_76 
REMARK       I    between atoms: NE_76  and  CZ_77 
REMARK       I    between atoms: CZ_77  and  NH2_79 
REMARK       I    between atoms: CZ_77  and  NH1_78 
REMARK   48  A    between atoms: CA_81  and  N_80 
REMARK   49  A    between atoms: CA_81  and  CB_84 
REMARK   50  A    between atoms: C_82  and  CA_81 
REMARK       I    between atoms: N_88  and  C_82 
REMARK   51  A    between atoms: CB_84  and  CG_85 
REMARK   52  A    between atoms: CG_85  and  CD1_86 
REMARK   53  A    between atoms: CG_85  and  CD2_87 
REMARK   54  A    between atoms: CA_89  and  N_88 
REMARK   55  A    between atoms: CA_89  and  CB_92 
REMARK   56  A    between atoms: C_90  and  CA_89 
REMARK       I    between atoms: N_93  and  C_90 
REMARK   57  A    between atoms: CA_94  and  N_93 
REMARK   58  A    between atoms: CA_94  and  CB_97 
REMARK   59  A    between atoms: C_95  and  CA_94 
REMARK       I    between atoms: N_104  and  C_95 
REMARK   60  A    between atoms: CB_97  and  CG_98 
REMARK   61  A    between atoms: CG_98  and  CD_99 
REMARK   62  A    between atoms: CD_99  and  NE_100 
REMARK       I    between atoms: NE_100  and  CZ_101 
REMARK       I    between atoms: CZ_101  and  NH2_103 
REMARK       I    between atoms: CZ_101  and  NH1_102 
REMARK   63  A    between atoms: CA_105  and  N_104 
REMARK   64  A    between atoms: CA_105  and  CB_108 
REMARK   65  A    between atoms: C_106  and  CA_105 
REMARK       I    between atoms: C_106  and  N_115 
REMARK   66  A    between atoms: CB_108  and  CG_109 
REMARK   67  A    between atoms: CG_109  and  CD_110 
REMARK   68  A    between atoms: CD_110  and  NE_111 
REMARK       I    between atoms: NE_111  and  CZ_112 
REMARK       I    between atoms: CZ_112  and  NH1_113 
REMARK   69  A    between atoms: N_115  and  CA_116 
REMARK   70  A    between atoms: CA_116  and  C_117 
REMARK   71  A    between atoms: C_117  and  O1_119 
ROOT
ATOM      1  CA  ARG d   1       7.938 -12.409  34.159  0.00  0.00     0.089 C 
ATOM      2  H69 ARG d   1       7.172 -12.378  33.370  0.00  0.00     0.087 H 
ENDROOT
BRANCH   1   3
ATOM      3  N   ARG d   1       8.127 -13.755  34.499  0.00  0.00    -0.346 N 
ATOM      4  C   ILE d   1       8.373 -14.683  33.605  0.00  0.00     0.241 C 
ATOM      5  O   ILE d   1       8.452 -14.457  32.397  0.00  0.00    -0.271 OA
ATOM      6  H68 ARG d   1       8.072 -14.019  35.462  0.00  0.00     0.163 HD
BRANCH   4   7
ATOM      7  CA  ILE d   1       8.628 -16.084  34.156  0.00  0.00     0.092 C 
ATOM      8  H58 ILE d   1       9.231 -16.639  33.422  0.00  0.00     0.088 H 
BRANCH   7   9
ATOM      9  N   ILE d   1       9.383 -16.014  35.402  0.00  0.00    -0.346 N 
ATOM     10  C   ALA d   1      10.652 -15.617  35.433  0.00  0.00     0.240 C 
ATOM     11  O   ALA d   1      11.284 -15.311  34.422  0.00  0.00    -0.271 OA
ATOM     12  H57 ILE d   1       8.934 -16.272  36.257  0.00  0.00     0.163 HD
BRANCH  10  13
ATOM     13  CA  ALA d   1      11.307 -15.559  36.811  0.00  0.00     0.086 C 
ATOM     14  H53 ALA d   1      12.142 -14.845  36.760  0.00  0.00     0.086 H 
BRANCH  13  15
ATOM     15  N   ALA d   1      10.371 -15.085  37.826  0.00  0.00    -0.346 N 
ATOM     16  C   PRO d   1       9.997 -13.810  37.874  0.00  0.00     0.241 C 
ATOM     17  O   PRO d   1      10.421 -12.961  37.090  0.00  0.00    -0.271 OA
ATOM     18  H52 ALA d   1      10.005 -15.730  38.497  0.00  0.00     0.163 HD
BRANCH  16  19
ATOM     19  CA  PRO d   1       9.000 -13.412  38.964  0.00  0.00     0.091 C 
ATOM     20  CB  PRO d   1       9.724 -13.235  40.302  0.00  0.00    -0.036 C 
ATOM     21  CG  PRO d   1       8.729 -13.650  41.321  0.00  0.00    -0.048 C 
ATOM     22  H46 PRO d   1      10.017 -12.185  40.450  0.00  0.00     0.036 H 
ATOM     23  H47 PRO d   1      10.618 -13.875  40.348  0.00  0.00     0.036 H 
ATOM     24  CD  PRO d   1       7.968 -14.777  40.693  0.00  0.00    -0.001 C 
ATOM     25  H48 PRO d   1       9.234 -13.989  42.237  0.00  0.00     0.035 H 
ATOM     26  H49 PRO d   1       8.054 -12.816  41.562  0.00  0.00     0.035 H 
ATOM     27  N   PRO d   1       8.010 -14.451  39.256  0.00  0.00    -0.337 N 
ATOM     28  H50 PRO d   1       8.456 -15.742  40.893  0.00  0.00     0.064 H 
ATOM     29  H51 PRO d   1       6.932 -14.807  41.061  0.00  0.00     0.064 H 
ATOM     30  C   LYS d   1       7.243 -14.926  38.300  0.00  0.00     0.243 C 
ATOM     31  O   LYS d   1       7.192 -14.419  37.239  0.00  0.00    -0.271 OA
ATOM     32  H45 PRO d   1       8.497 -12.481  38.663  0.00  0.00     0.087 H 
BRANCH  30  33
ATOM     33  CA  LYS d   1       6.361 -16.107  38.610  0.00  0.00     0.089 C 
ATOM     34  H33 LYS d   1       6.088 -16.545  37.639  0.00  0.00     0.087 H 
BRANCH  33  35
ATOM     35  N   LYS d   1       6.960 -17.183  39.364  0.00  0.00    -0.346 N 
ATOM     36  C   THR d   1       7.964 -17.864  38.887  0.00  0.00     0.243 C 
ATOM     37  O   THR d   1       8.484 -17.579  37.807  0.00  0.00    -0.271 OA
ATOM     38  H32 LYS d   1       6.598 -17.410  40.268  0.00  0.00     0.163 HD
BRANCH  36  39
ATOM     39  CA  THR d   1       8.488 -19.038  39.721  0.00  0.00     0.113 C 
ATOM     40  H26 THR d   1       7.628 -19.514  40.214  0.00  0.00     0.091 H 
BRANCH  39  41
ATOM     41  N   THR d   1       9.131 -20.043  38.877  0.00  0.00    -0.344 N 
ATOM     42  C   ILE d   1       8.442 -20.761  37.995  0.00  0.00     0.241 C 
ATOM     43  O   ILE d   1       7.220 -20.670  37.868  0.00  0.00    -0.271 OA
ATOM     44  H25 THR d   1      10.116 -20.195  38.965  0.00  0.00     0.163 HD
BRANCH  42  45
ATOM     45  CA  ILE d   1       9.251 -21.710  37.109  0.00  0.00     0.092 C 
ATOM     46  H15 ILE d   1       8.816 -21.663  36.100  0.00  0.00     0.088 H 
BRANCH  45  47
ATOM     47  N   ILE d   1      10.651 -21.313  36.997  0.00  0.00    -0.346 N 
ATOM     48  C   GLY d   1      11.123 -20.662  35.938  0.00  0.00     0.236 C 
ATOM     49  O   GLY d   1      10.404 -20.228  35.038  0.00  0.00    -0.272 OA
ATOM     50  H14 ILE d   1      11.277 -21.539  37.743  0.00  0.00     0.163 HD
BRANCH  48  51
ATOM     51  CA  GLY d   1      12.626 -20.472  35.895  0.00  0.00     0.069 C 
ATOM     52  H12 GLY d   1      12.918 -20.117  34.896  0.00  0.00     0.078 H 
ATOM     53  H13 GLY d   1      12.918 -19.726  36.649  0.00  0.00     0.078 H 
BRANCH  51  54
ATOM     54  N   GLY d   1      13.308 -21.730  36.175  0.00  0.00    -0.351 N 
ATOM     55  C   GLN d   1      13.623 -22.087  37.416  0.00  0.00     0.248 C 
ATOM     56  O   GLN d   1      13.461 -21.346  38.386  0.00  0.00    -0.271 OA
ATOM     57  H11 GLY d   1      13.544 -22.338  35.417  0.00  0.00     0.163 HD
BRANCH  55  58
ATOM     58  CA  GLN d   1      14.202 -23.489  37.596  0.00  0.00     0.176 C 
ATOM     59  H4  GLN d   1      14.920 -23.464  38.429  0.00  0.00     0.099 H 
BRANCH  58  60
ATOM     60  N   GLN d   1      13.119 -24.456  37.933  0.00  0.00    -0.066 N 
ATOM     61  H1  GLN d   1      13.514 -25.376  38.049  0.00  0.00     0.275 HD
ATOM     62  H2  GLN d   1      12.440 -24.473  37.188  0.00  0.00     0.275 HD
ATOM     63  H3  GLN d   1      12.670 -24.173  38.790  0.00  0.00     0.275 HD
ENDBRANCH  58  60
BRANCH  58  64
ATOM     64  CB  GLN d   1      14.942 -23.937  36.334  0.00  0.00    -0.022 C 
ATOM     65  H5  GLN d   1      14.392 -23.560  35.459  0.00  0.00     0.037 H 
ATOM     66  H6  GLN d   1      14.955 -25.037  36.313  0.00  0.00     0.037 H 
BRANCH  64  67
ATOM     67  CG  GLN d   1      16.377 -23.442  36.244  0.00  0.00     0.011 C 
ATOM     68  H7  GLN d   1      16.806 -23.419  37.257  0.00  0.00     0.047 H 
ATOM     69  H8  GLN d   1      16.374 -22.425  35.824  0.00  0.00     0.047 H 
BRANCH  67  70
ATOM     70  CD  GLN d   1      17.244 -24.328  35.368  0.00  0.00     0.215 C 
ATOM     71  NE2 GLN d   1      18.468 -24.585  35.816  0.00  0.00    -0.370 N 
ATOM     72  H9  GLN d   1      19.085 -25.163  35.282  0.00  0.00     0.159 HD
ATOM     73  H10 GLN d   1      18.772 -24.201  36.688  0.00  0.00     0.159 HD
ATOM     74  OE1 GLN d   1      16.819 -24.777  34.303  0.00  0.00    -0.274 OA
ENDBRANCH  67  70
ENDBRANCH  64  67
ENDBRANCH  58  64
ENDBRANCH  55  58
ENDBRANCH  51  54
ENDBRANCH  48  51
ENDBRANCH  45  47
BRANCH  45  75
ATOM     75  CB  ILE d   1       9.130 -23.173  37.601  0.00  0.00    -0.030 C 
ATOM     76  H16 ILE d   1       9.954 -23.372  38.303  0.00  0.00     0.043 H 
BRANCH  75  77
ATOM     77  CG2 ILE d   1       7.813 -23.401  38.333  0.00  0.00    -0.071 C 
ATOM     78  H19 ILE d   1       7.738 -22.702  39.179  0.00  0.00     0.028 H 
ATOM     79  H20 ILE d   1       7.775 -24.435  38.706  0.00  0.00     0.028 H 
ATOM     80  H21 ILE d   1       6.975 -23.230  37.642  0.00  0.00     0.028 H 
ENDBRANCH  75  77
BRANCH  75  81
ATOM     81  CG1 ILE d   1       9.257 -24.137  36.415  0.00  0.00    -0.063 C 
ATOM     82  H17 ILE d   1      10.129 -23.836  35.815  0.00  0.00     0.033 H 
ATOM     83  H18 ILE d   1       8.346 -24.058  35.804  0.00  0.00     0.033 H 
BRANCH  81  84
ATOM     84  CD1 ILE d   1       9.434 -25.584  36.823  0.00  0.00    -0.076 C 
ATOM     85  H22 ILE d   1       9.517 -26.211  35.923  0.00  0.00     0.027 H 
ATOM     86  H23 ILE d   1       8.565 -25.907  37.416  0.00  0.00     0.027 H 
ATOM     87  H24 ILE d   1      10.348 -25.686  37.427  0.00  0.00     0.027 H 
ENDBRANCH  81  84
ENDBRANCH  75  81
ENDBRANCH  45  75
ENDBRANCH  42  45
ENDBRANCH  39  41
BRANCH  39  88
ATOM     88  CB  THR d   1       9.447 -18.530  40.823  0.00  0.00     0.060 C 
ATOM     89  H27 THR d   1       9.550 -19.310  41.592  0.00  0.00     0.086 H 
BRANCH  88  90
ATOM     90  CG2 THR d   1      10.819 -18.224  40.243  0.00  0.00    -0.050 C 
ATOM     91  H29 THR d   1      11.483 -17.865  41.043  0.00  0.00     0.031 H 
ATOM     92  H30 THR d   1      10.725 -17.448  39.469  0.00  0.00     0.031 H 
ATOM     93  H31 THR d   1      11.241 -19.137  39.798  0.00  0.00     0.031 H 
ENDBRANCH  88  90
BRANCH  88  94
ATOM     94  OG1 THR d   1       8.912 -17.345  41.424  0.00  0.00    -0.393 OA
ATOM     95  H28 THR d   1       8.055 -17.535  41.787  0.00  0.00     0.210 HD
ENDBRANCH  88  94
ENDBRANCH  39  88
ENDBRANCH  36  39
ENDBRANCH  33  35
BRANCH  33  96
ATOM     96  CB  LYS d   1       5.079 -15.614  39.249  0.00  0.00    -0.038 C 
ATOM     97  H34 LYS d   1       4.502 -15.069  38.487  0.00  0.00     0.036 H 
ATOM     98  H35 LYS d   1       5.344 -14.929  40.068  0.00  0.00     0.036 H 
BRANCH  96  99
ATOM     99  CG  LYS d   1       4.245 -16.656  39.786  0.00  0.00    -0.061 C 
ATOM    100  H36 LYS d   1       4.005 -16.428  40.835  0.00  0.00     0.033 H 
ATOM    101  H37 LYS d   1       4.779 -17.616  39.732  0.00  0.00     0.033 H 
BRANCH  99 102
ATOM    102  CD  LYS d   1       3.024 -16.742  39.022  0.00  0.00    -0.043 C 
ATOM    103  H38 LYS d   1       2.779 -17.799  38.841  0.00  0.00     0.035 H 
ATOM    104  H39 LYS d   1       3.157 -16.226  38.060  0.00  0.00     0.035 H 
BRANCH 102 105
ATOM    105  CE  LYS d   1       1.927 -16.105  39.774  0.00  0.00     0.080 C 
ATOM    106  H40 LYS d   1       2.261 -15.902  40.802  0.00  0.00     0.075 H 
ATOM    107  H41 LYS d   1       1.060 -16.782  39.796  0.00  0.00     0.075 H 
BRANCH 105 108
ATOM    108  NZ  LYS d   1       1.542 -14.846  39.133  0.00  0.00    -0.079 N 
ATOM    109  H42 LYS d   1       0.792 -14.419  39.654  0.00  0.00     0.274 HD
ATOM    110  H43 LYS d   1       1.234 -15.029  38.191  0.00  0.00     0.274 HD
ATOM    111  H44 LYS d   1       2.334 -14.223  39.113  0.00  0.00     0.274 HD
ENDBRANCH 105 108
ENDBRANCH 102 105
ENDBRANCH  99 102
ENDBRANCH  96  99
ENDBRANCH  33  96
ENDBRANCH  30  33
ENDBRANCH  16  19
ENDBRANCH  13  15
BRANCH  13 112
ATOM    112  CB  ALA d   1      11.869 -16.916  37.192  0.00  0.00    -0.049 C 
ATOM    113  H54 ALA d   1      12.570 -17.254  36.415  0.00  0.00     0.030 H 
ATOM    114  H55 ALA d   1      11.047 -17.641  37.283  0.00  0.00     0.030 H 
ATOM    115  H56 ALA d   1      12.397 -16.837  38.154  0.00  0.00     0.030 H 
ENDBRANCH  13 112
ENDBRANCH  10  13
ENDBRANCH   7   9
BRANCH   7 116
ATOM    116  CB  ILE d   1       7.294 -16.837  34.348  0.00  0.00    -0.030 C 
ATOM    117  H59 ILE d   1       6.784 -16.419  35.228  0.00  0.00     0.043 H 
BRANCH 116 118
ATOM    118  CG2 ILE d   1       6.386 -16.655  33.138  0.00  0.00    -0.071 C 
ATOM    119  H62 ILE d   1       6.207 -15.582  32.972  0.00  0.00     0.028 H 
ATOM    120  H63 ILE d   1       5.428 -17.163  33.319  0.00  0.00     0.028 H 
ATOM    121  H64 ILE d   1       6.869 -17.087  32.249  0.00  0.00     0.028 H 
ENDBRANCH 116 118
BRANCH 116 122
ATOM    122  CG1 ILE d   1       7.561 -18.324  34.602  0.00  0.00    -0.063 C 
ATOM    123  H60 ILE d   1       8.261 -18.410  35.446  0.00  0.00     0.033 H 
ATOM    124  H61 ILE d   1       8.021 -18.752  33.699  0.00  0.00     0.033 H 
BRANCH 122 125
ATOM    125  CD1 ILE d   1       6.318 -19.127  34.930  0.00  0.00    -0.076 C 
ATOM    126  H65 ILE d   1       6.594 -20.178  35.098  0.00  0.00     0.027 H 
ATOM    127  H66 ILE d   1       5.609 -19.064  34.092  0.00  0.00     0.027 H 
ATOM    128  H67 ILE d   1       5.849 -18.722  35.839  0.00  0.00     0.027 H 
ENDBRANCH 122 125
ENDBRANCH 116 122
ENDBRANCH   7 116
ENDBRANCH   4   7
ENDBRANCH   1   3
BRANCH   1 129
ATOM    129  CB  ARG d   1       7.396 -11.661  35.326  0.00  0.00    -0.036 C 
ATOM    130  H70 ARG d   1       7.761 -10.624  35.301  0.00  0.00     0.036 H 
ATOM    131  H71 ARG d   1       7.726 -12.143  36.258  0.00  0.00     0.036 H 
BRANCH 129 132
ATOM    132  CG  ARG d   1       5.988 -11.668  35.263  0.00  0.00    -0.048 C 
ATOM    133  H72 ARG d   1       5.644 -12.711  35.323  0.00  0.00     0.035 H 
ATOM    134  H73 ARG d   1       5.682 -11.236  34.299  0.00  0.00     0.035 H 
BRANCH 132 135
ATOM    135  CD  ARG d   1       5.355 -10.920  36.316  0.00  0.00     0.009 C 
ATOM    136  H74 ARG d   1       4.516 -10.337  35.908  0.00  0.00     0.064 H 
ATOM    137  H75 ARG d   1       6.083 -10.239  36.780  0.00  0.00     0.064 H 
BRANCH 135 138
ATOM    138  NE  ARG d   1       4.869 -11.855  37.294  0.00  0.00    -0.227 N 
ATOM    139  CZ  ARG d   1       3.652 -11.882  37.786  0.00  0.00     0.665 C 
ATOM    140  NH2 ARG d   1       3.342 -12.796  38.675  0.00  0.00    -0.235 N 
ATOM    141  NH1 ARG d   1       2.764 -11.003  37.424  0.00  0.00    -0.235 N 
ATOM    142  H79 ARG d   1       4.043 -13.493  38.963  0.00  0.00     0.174 HD
ATOM    143  H80 ARG d   1       2.397 -12.816  39.085  0.00  0.00     0.174 HD
ATOM    144  H77 ARG d   1       1.814 -11.038  37.819  0.00  0.00     0.174 HD
ATOM    145  H78 ARG d   1       3.011 -10.272  36.742  0.00  0.00     0.174 HD
ATOM    146  H76 ARG d   1       5.532 -12.564  37.638  0.00  0.00     0.177 HD
ENDBRANCH 135 138
ENDBRANCH 132 135
ENDBRANCH 129 132
ENDBRANCH   1 129
BRANCH   1 147
ATOM    147  C   ARG d   1       9.167 -11.778  33.587  0.00  0.00     0.241 C 
ATOM    148  O   ARG d   1       9.089 -10.932  32.756  0.00  0.00    -0.271 OA
ATOM    149  N   ARG d   1      10.307 -12.251  34.020  0.00  0.00    -0.346 N 
ATOM    150  H81 ARG d   1      10.275 -12.971  34.713  0.00  0.00     0.163 HD
BRANCH 149 151
ATOM    151  CA  ARG d   1      11.607 -11.813  33.574  0.00  0.00     0.089 C 
ATOM    152  H82 ARG d   1      11.598 -10.721  33.439  0.00  0.00     0.087 H 
BRANCH 151 153
ATOM    153  CB  ARG d   1      12.604 -12.175  34.646  0.00  0.00    -0.036 C 
ATOM    154  H83 ARG d   1      12.723 -13.268  34.617  0.00  0.00     0.036 H 
ATOM    155  H84 ARG d   1      12.161 -11.880  35.608  0.00  0.00     0.036 H 
BRANCH 153 156
ATOM    156  CG  ARG d   1      13.938 -11.604  34.602  0.00  0.00    -0.048 C 
ATOM    157  H85 ARG d   1      13.934 -10.592  35.033  0.00  0.00     0.035 H 
ATOM    158  H86 ARG d   1      14.300 -11.559  33.564  0.00  0.00     0.035 H 
BRANCH 156 159
ATOM    159  CD  ARG d   1      14.827 -12.533  35.435  0.00  0.00     0.009 C 
ATOM    160  H87 ARG d   1      15.297 -13.245  34.741  0.00  0.00     0.064 H 
ATOM    161  H88 ARG d   1      14.171 -13.077  36.130  0.00  0.00     0.064 H 
BRANCH 159 162
ATOM    162  NE  ARG d   1      15.884 -11.935  36.220  0.00  0.00    -0.227 N 
ATOM    163  CZ  ARG d   1      15.817 -11.710  37.536  0.00  0.00     0.665 C 
ATOM    164  NH2 ARG d   1      16.437 -12.520  38.383  0.00  0.00    -0.235 N 
ATOM    165  NH1 ARG d   1      15.128 -10.668  38.009  0.00  0.00    -0.235 N 
ATOM    166  H92 ARG d   1      16.971 -13.326  38.028  0.00  0.00     0.174 HD
ATOM    167  H93 ARG d   1      16.385 -12.343  39.396  0.00  0.00     0.174 HD
ATOM    168  H90 ARG d   1      15.080 -10.500  39.024  0.00  0.00     0.174 HD
ATOM    169  H91 ARG d   1      14.644 -10.032  37.359  0.00  0.00     0.174 HD
ATOM    170  H89 ARG d   1      16.749 -11.664  35.731  0.00  0.00     0.177 HD
ENDBRANCH 159 162
ENDBRANCH 156 159
ENDBRANCH 153 156
ENDBRANCH 151 153
BRANCH 151 171
ATOM    171  C   ARG d   1      11.966 -12.460  32.260  0.00  0.00     0.241 C 
ATOM    172  O   ARG d   1      12.612 -11.864  31.466  0.00  0.00    -0.271 OA
ATOM    173  N   LEU d   1      11.521 -13.684  32.056  0.00  0.00    -0.346 N 
ATOM    174  H94 LEU d   1      11.074 -14.167  32.809  0.00  0.00     0.163 HD
BRANCH 173 175
ATOM    175  CA  LEU d   1      11.657 -14.358  30.772  0.00  0.00     0.089 C 
ATOM    176  H95 LEU d   1      12.717 -14.360  30.477  0.00  0.00     0.087 H 
BRANCH 175 177
ATOM    177  CB  LEU d   1      11.165 -15.805  30.875  0.00  0.00    -0.035 C 
ATOM    178  H96 LEU d   1      10.150 -15.830  30.452  0.00  0.00     0.037 H 
ATOM    179  H97 LEU d   1      11.123 -16.055  31.945  0.00  0.00     0.037 H 
BRANCH 177 180
ATOM    180  CG  LEU d   1      11.965 -16.918  30.186  0.00  0.00    -0.059 C 
ATOM    181  H98 LEU d   1      12.710 -17.291  30.905  0.00  0.00     0.038 H 
BRANCH 180 182
ATOM    182  CD1 LEU d   1      11.043 -18.071  29.815  0.00  0.00    -0.073 C 
ATOM    183  H99 LEU d   1      11.626 -18.863  29.322  0.00  0.00     0.028 H 
ATOM    184 0H10 LEU d   1      10.262 -17.710  29.130  0.00  0.00     0.028 H 
ATOM    185 1H10 LEU d   1      10.575 -18.473  30.725  0.00  0.00     0.028 H 
ENDBRANCH 180 182
BRANCH 180 186
ATOM    186  CD2 LEU d   1      12.714 -16.421  28.960  0.00  0.00    -0.073 C 
ATOM    187 2H10 LEU d   1      13.374 -15.589  29.246  0.00  0.00     0.028 H 
ATOM    188 3H10 LEU d   1      11.993 -16.074  28.206  0.00  0.00     0.028 H 
ATOM    189 4H10 LEU d   1      13.317 -17.240  28.541  0.00  0.00     0.028 H 
ENDBRANCH 180 186
ENDBRANCH 177 180
ENDBRANCH 175 177
BRANCH 175 190
ATOM    190  C   LEU d   1      10.843 -13.611  29.720  0.00  0.00     0.241 C 
ATOM    191  O   LEU d   1      11.298 -13.409  28.595  0.00  0.00    -0.271 OA
ATOM    192  N   ALA d   1       9.640 -13.192  30.101  0.00  0.00    -0.346 N 
ATOM    193 5H10 ALA d   1       9.338 -13.373  31.037  0.00  0.00     0.163 HD
BRANCH 192 194
ATOM    194  CA  ALA d   1       8.747 -12.476  29.194  0.00  0.00     0.086 C 
ATOM    195 6H10 ALA d   1       8.534 -13.135  28.339  0.00  0.00     0.086 H 
BRANCH 194 196
ATOM    196  CB  ALA d   1       7.435 -12.160  29.889  0.00  0.00    -0.049 C 
ATOM    197 7H10 ALA d   1       6.773 -11.621  29.195  0.00  0.00     0.030 H 
ATOM    198 8H10 ALA d   1       7.629 -11.533  30.772  0.00  0.00     0.030 H 
ATOM    199 9H10 ALA d   1       6.952 -13.097  30.204  0.00  0.00     0.030 H 
ENDBRANCH 194 196
BRANCH 194 200
ATOM    200  C   ALA d   1       9.383 -11.200  28.654  0.00  0.00     0.240 C 
ATOM    201  O   ALA d   1       9.269 -10.897  27.465  0.00  0.00    -0.271 OA
ATOM    202  N   ARG d   1      10.052 -10.456  29.532  0.00  0.00    -0.346 N 
ATOM    203 0H11 ARG d   1      10.130 -10.773  30.477  0.00  0.00     0.163 HD
BRANCH 202 204
ATOM    204  CA  ARG d   1      10.675  -9.191  29.156  0.00  0.00     0.089 C 
ATOM    205 1H11 ARG d   1       9.951  -8.619  28.558  0.00  0.00     0.087 H 
BRANCH 204 206
ATOM    206  CB  ARG d   1      11.021  -8.371  30.401  0.00  0.00    -0.036 C 
ATOM    207 2H11 ARG d   1      11.361  -7.375  30.079  0.00  0.00     0.036 H 
ATOM    208 3H11 ARG d   1      11.835  -8.880  30.939  0.00  0.00     0.036 H 
BRANCH 206 209
ATOM    209  CG  ARG d   1       9.851  -8.196  31.353  0.00  0.00    -0.048 C 
ATOM    210 4H11 ARG d   1       9.409  -9.182  31.556  0.00  0.00     0.035 H 
ATOM    211 5H11 ARG d   1       9.100  -7.549  30.876  0.00  0.00     0.035 H 
BRANCH 209 212
ATOM    212  CD  ARG d   1      10.273  -7.568  32.670  0.00  0.00     0.009 C 
ATOM    213 6H11 ARG d   1      11.299  -7.887  32.904  0.00  0.00     0.064 H 
ATOM    214 7H11 ARG d   1       9.592  -7.912  33.463  0.00  0.00     0.064 H 
BRANCH 212 215
ATOM    215  NE  ARG d   1      10.233  -6.111  32.613  0.00  0.00    -0.227 N 
ATOM    216  CZ  ARG d   1      11.307  -5.332  32.579  0.00  0.00     0.665 C 
ATOM    217  NH2 ARG d   1      11.168  -4.016  32.523  0.00  0.00    -0.235 N 
ATOM    218  NH1 ARG d   1      12.519  -5.865  32.608  0.00  0.00    -0.235 N 
ATOM    219 1H12 ARG d   1      10.227  -3.598  32.500  0.00  0.00     0.174 HD
ATOM    220 2H12 ARG d   1      12.001  -3.411  32.502  0.00  0.00     0.174 HD
ATOM    221 9H11 ARG d   1      13.350  -5.257  32.581  0.00  0.00     0.174 HD
ATOM    222 0H12 ARG d   1      12.631  -6.888  32.657  0.00  0.00     0.174 HD
ATOM    223 8H11 ARG d   1       9.309  -5.656  32.598  0.00  0.00     0.177 HD
ENDBRANCH 212 215
ENDBRANCH 209 212
ENDBRANCH 206 209
ENDBRANCH 204 206
BRANCH 204 224
ATOM    224  C   ARG d   1      11.919  -9.416  28.304  0.00  0.00     0.241 C 
ATOM    225  O   ARG d   1      12.311  -8.552  27.521  0.00  0.00    -0.271 OA
ATOM    226  N   ARG d   1      12.535 -10.582  28.463  0.00  0.00    -0.346 N 
ATOM    227 3H12 ARG d   1      12.200 -11.218  29.158  0.00  0.00     0.163 HD
BRANCH 226 228
ATOM    228  CA  ARG d   1      13.686 -10.961  27.652  0.00  0.00     0.089 C 
ATOM    229 4H12 ARG d   1      14.265 -10.052  27.430  0.00  0.00     0.087 H 
BRANCH 228 230
ATOM    230  CB  ARG d   1      14.586 -11.930  28.422  0.00  0.00    -0.036 C 
ATOM    231 5H12 ARG d   1      15.173 -12.511  27.695  0.00  0.00     0.036 H 
ATOM    232 6H12 ARG d   1      13.947 -12.610  29.005  0.00  0.00     0.036 H 
BRANCH 230 233
ATOM    233  CG  ARG d   1      15.548 -11.241  29.375  0.00  0.00    -0.048 C 
ATOM    234 7H12 ARG d   1      15.028 -10.402  29.861  0.00  0.00     0.035 H 
ATOM    235 8H12 ARG d   1      16.404 -10.858  28.801  0.00  0.00     0.035 H 
BRANCH 233 236
ATOM    236  CD  ARG d   1      16.060 -12.189  30.447  0.00  0.00     0.009 C 
ATOM    237 9H12 ARG d   1      16.363 -13.134  29.973  0.00  0.00     0.064 H 
ATOM    238 0H13 ARG d   1      15.252 -12.383  31.168  0.00  0.00     0.064 H 
BRANCH 236 239
ATOM    239  NE  ARG d   1      17.205 -11.628  31.159  0.00  0.00    -0.227 N 
ATOM    240  CZ  ARG d   1      17.630 -12.048  32.347  0.00  0.00     0.665 C 
ATOM    241  NH2 ARG d   1      18.684 -11.477  32.915  0.00  0.00    -0.235 N 
ATOM    242  NH1 ARG d   1      17.000 -13.035  32.971  0.00  0.00    -0.235 N 
ATOM    243 4H13 ARG d   1      19.176 -10.710  32.434  0.00  0.00     0.174 HD
ATOM    244 5H13 ARG d   1      19.010 -11.800  33.837  0.00  0.00     0.174 HD
ATOM    245 2H13 ARG d   1      17.332 -13.358  33.891  0.00  0.00     0.174 HD
ATOM    246 3H13 ARG d   1      16.179 -13.479  32.535  0.00  0.00     0.174 HD
ATOM    247 1H13 ARG d   1      17.718 -10.855  30.711  0.00  0.00     0.177 HD
ENDBRANCH 236 239
ENDBRANCH 233 236
ENDBRANCH 230 233
ENDBRANCH 228 230
BRANCH 228 248
ATOM    248  C   ARG d   1      13.245 -11.581  26.328  0.00  0.00     0.240 C 
ATOM    249  O   ARG d   1      14.045 -11.729  25.405  0.00  0.00    -0.271 OA
ATOM    250  N   GLY d   1      11.968 -11.939  26.245  0.00  0.00    -0.349 N 
ATOM    251 6H13 GLY d   1      11.373 -11.800  27.036  0.00  0.00     0.163 HD
BRANCH 250 252
ATOM    252  CA  GLY d   1      11.410 -12.528  25.034  0.00  0.00     0.072 C 
ATOM    253 7H13 GLY d   1      11.821 -11.996  24.163  0.00  0.00     0.080 H 
ATOM    254 8H13 GLY d   1      10.317 -12.406  25.056  0.00  0.00     0.080 H 
BRANCH 252 255
ATOM    255  C   GLY d   1      11.729 -14.004  24.894  0.00  0.00     0.158 C 
ATOM    256  O   GLY d   1      11.633 -14.566  23.803  0.00  0.00    -0.649 OA
BRANCH 255 257
ATOM    257  O1  GLY d   1      12.116 -14.698  25.960  0.00  0.00    -0.775 OA
ATOM    258 9H13 GLY d   1      12.140 -14.125  26.718  0.00  0.00     0.167 HD
ENDBRANCH 255 257
ENDBRANCH 252 255
ENDBRANCH 250 252
ENDBRANCH 228 248
ENDBRANCH 226 228
ENDBRANCH 204 224
ENDBRANCH 202 204
ENDBRANCH 194 200
ENDBRANCH 192 194
ENDBRANCH 175 190
ENDBRANCH 173 175
ENDBRANCH 151 171
ENDBRANCH 149 151
ENDBRANCH   1 147
TORSDOF 71
