REMARK WARNING: 32 MAX_TORS EXCEEDED!!!
REMARK  85 active torsions:
REMARK  status: ('A' for Active; 'I' for Inactive)
REMARK    1  A    between atoms: CA_2  and  N_1 
REMARK    2  A    between atoms: CA_2  and  CB_5 
REMARK    3  A    between atoms: C_3  and  CA_2 
REMARK       I    between atoms: N_9  and  C_3 
REMARK    4  A    between atoms: CB_5  and  CG_6 
REMARK    5  A    between atoms: CA_10  and  N_9 
REMARK    6  A    between atoms: CA_10  and  CB_13 
REMARK    7  A    between atoms: C_11  and  CA_10 
REMARK       I    between atoms: N_17  and  C_11 
REMARK    8  A    between atoms: CB_13  and  CG_14 
REMARK       I    between atoms: CG_14  and  ND2_16 
REMARK    9  A    between atoms: CA_18  and  N_17 
REMARK   10  A    between atoms: CA_18  and  CB_21 
REMARK   11  A    between atoms: C_19  and  CA_18 
REMARK       I    between atoms: N_25  and  C_19 
REMARK   12  A    between atoms: CB_21  and  CG2_23 
REMARK   13  A    between atoms: CB_21  and  CG1_22 
REMARK   14  A    between atoms: CG1_22  and  CD1_24 
REMARK   15  A    between atoms: CA_26  and  N_25 
REMARK   16  A    between atoms: CA_26  and  CB_29 
REMARK   17  A    between atoms: C_27  and  CA_26 
REMARK       I    between atoms: N_34  and  C_27 
REMARK   18  A    between atoms: CB_29  and  CG_30 
REMARK   19  A    between atoms: CG_30  and  CD_31 
REMARK       I    between atoms: CD_31  and  NE2_33 
REMARK   20  A    between atoms: CA_35  and  N_34 
REMARK   21  A    between atoms: C_36  and  CA_35 
REMARK       I    between atoms: N_38  and  C_36 
REMARK   22  A    between atoms: CA_39  and  N_38 
REMARK   23  A    between atoms: CA_39  and  CB_42 
REMARK   24  A    between atoms: C_40  and  CA_39 
REMARK       I    between atoms: N_46  and  C_40 
REMARK   25  A    between atoms: CB_42  and  CG2_44 
REMARK   26  A    between atoms: CB_42  and  CG1_43 
REMARK   27  A    between atoms: CG1_43  and  CD1_45 
REMARK   28  A    between atoms: CA_47  and  N_46 
REMARK   29  A    between atoms: CA_47  and  CB_50 
REMARK   30  A    between atoms: C_48  and  CA_47 
REMARK       I    between atoms: N_53  and  C_48 
REMARK   31  A    between atoms: CB_50  and  CG2_52 
REMARK   32  A    between atoms: CB_50  and  OG1_51 
REMARK   33  A    between atoms: CA_54  and  N_53 
REMARK   34  A    between atoms: CA_54  and  CB_57 
REMARK   35  A    between atoms: C_55  and  CA_54 
REMARK       I    between atoms: N_62  and  C_55 
REMARK   36  A    between atoms: CB_57  and  CG_58 
REMARK   37  A    between atoms: CG_58  and  CD_59 
REMARK   38  A    between atoms: CD_59  and  CE_60 
REMARK   39  A    between atoms: CE_60  and  NZ_61 
REMARK   40  A    between atoms: C_64  and  CA_63 
REMARK       I    between atoms: N_69  and  C_64 
REMARK   41  A    between atoms: CA_70  and  N_69 
REMARK   42  A    between atoms: CA_70  and  CB_73 
REMARK   43  A    between atoms: C_71  and  CA_70 
REMARK       I    between atoms: N_74  and  C_71 
REMARK   44  A    between atoms: CA_75  and  N_74 
REMARK   45  A    between atoms: CA_75  and  CB_78 
REMARK   46  A    between atoms: C_76  and  CA_75 
REMARK       I    between atoms: N_82  and  C_76 
REMARK   47  A    between atoms: CB_78  and  CG2_80 
REMARK   48  A    between atoms: CB_78  and  CG1_79 
REMARK   49  A    between atoms: CG1_79  and  CD1_81 
REMARK   50  A    between atoms: CA_83  and  N_82 
REMARK   51  A    between atoms: CA_83  and  CB_86 
REMARK   52  A    between atoms: C_84  and  CA_83 
REMARK       I    between atoms: N_93  and  C_84 
REMARK   53  A    between atoms: CB_86  and  CG_87 
REMARK   54  A    between atoms: CG_87  and  CD_88 
REMARK   55  A    between atoms: CD_88  and  NE_89 
REMARK       I    between atoms: NE_89  and  CZ_90 
REMARK       I    between atoms: CZ_90  and  NH2_92 
REMARK       I    between atoms: CZ_90  and  NH1_91 
REMARK   56  A    between atoms: CA_94  and  N_93 
REMARK   57  A    between atoms: CA_94  and  CB_97 
REMARK   58  A    between atoms: C_95  and  CA_94 
REMARK       I    between atoms: N_104  and  C_95 
REMARK   59  A    between atoms: CB_97  and  CG_98 
REMARK   60  A    between atoms: CG_98  and  CD_99 
REMARK   61  A    between atoms: CD_99  and  NE_100 
REMARK       I    between atoms: NE_100  and  CZ_101 
REMARK       I    between atoms: CZ_101  and  NH2_103 
REMARK       I    between atoms: CZ_101  and  NH1_102 
REMARK   62  A    between atoms: CA_105  and  N_104 
REMARK   63  A    between atoms: CA_105  and  CB_108 
REMARK   64  A    between atoms: C_106  and  CA_105 
REMARK       I    between atoms: N_112  and  C_106 
REMARK   65  A    between atoms: CB_108  and  CG_109 
REMARK   66  A    between atoms: CG_109  and  CD1_110 
REMARK   67  A    between atoms: CG_109  and  CD2_111 
REMARK   68  A    between atoms: CA_113  and  N_112 
REMARK   69  A    between atoms: CA_113  and  CB_116 
REMARK   70  A    between atoms: C_114  and  CA_113 
REMARK       I    between atoms: N_117  and  C_114 
REMARK   71  A    between atoms: CA_118  and  N_117 
REMARK   72  A    between atoms: CA_118  and  CB_121 
REMARK   73  A    between atoms: C_119  and  CA_118 
REMARK       I    between atoms: N_128  and  C_119 
REMARK   74  A    between atoms: CB_121  and  CG_122 
REMARK   75  A    between atoms: CG_122  and  CD_123 
REMARK   76  A    between atoms: CD_123  and  NE_124 
REMARK       I    between atoms: NE_124  and  CZ_125 
REMARK       I    between atoms: CZ_125  and  NH2_127 
REMARK       I    between atoms: CZ_125  and  NH1_126 
REMARK   77  A    between atoms: CA_129  and  N_128 
REMARK   78  A    between atoms: CA_129  and  CB_132 
REMARK   79  A    between atoms: C_130  and  CA_129 
REMARK       I    between atoms: C_130  and  N_139 
REMARK   80  A    between atoms: CB_132  and  CG_133 
REMARK   81  A    between atoms: CG_133  and  CD_134 
REMARK   82  A    between atoms: CD_134  and  NE_135 
REMARK       I    between atoms: NE_135  and  CZ_136 
REMARK       I    between atoms: CZ_136  and  NH1_137 
REMARK   83  A    between atoms: N_139  and  CA_140 
REMARK   84  A    between atoms: CA_140  and  C_141 
REMARK   85  A    between atoms: C_141  and  O1_143 
ROOT
ATOM      1  N   ILE d   1      34.336  -9.525  61.531  0.00  0.00    -0.346 N 
ATOM      2  H78 ILE d   1      35.060  -9.030  62.011  0.00  0.00     0.163 HD
ATOM      3  C   ALA d   1      34.494 -10.824  61.292  0.00  0.00     0.240 C 
ATOM      4  O   ALA d   1      33.640 -11.516  60.738  0.00  0.00    -0.271 OA
ENDROOT
BRANCH   1   5
ATOM      5  CA  ILE d   1      33.140  -8.800  61.116  0.00  0.00     0.092 C 
ATOM      6  H79 ILE d   1      32.263  -9.364  61.466  0.00  0.00     0.088 H 
BRANCH   5   7
ATOM      7  CB  ILE d   1      33.084  -7.384  61.740  0.00  0.00    -0.030 C 
ATOM      8  H80 ILE d   1      33.952  -6.814  61.376  0.00  0.00     0.043 H 
BRANCH   7   9
ATOM      9  CG2 ILE d   1      31.818  -6.651  61.313  0.00  0.00    -0.071 C 
ATOM     10  H83 ILE d   1      31.774  -6.605  60.215  0.00  0.00     0.028 H 
ATOM     11  H84 ILE d   1      31.829  -5.630  61.722  0.00  0.00     0.028 H 
ATOM     12  H85 ILE d   1      30.937  -7.189  61.693  0.00  0.00     0.028 H 
ENDBRANCH   7   9
BRANCH   7  13
ATOM     13  CG1 ILE d   1      33.165  -7.459  63.268  0.00  0.00    -0.063 C 
ATOM     14  H81 ILE d   1      33.108  -6.435  63.666  0.00  0.00     0.033 H 
ATOM     15  H82 ILE d   1      34.133  -7.905  63.540  0.00  0.00     0.033 H 
BRANCH  13  16
ATOM     16  CD1 ILE d   1      32.068  -8.279  63.913  0.00  0.00    -0.076 C 
ATOM     17  H86 ILE d   1      32.203  -8.278  65.005  0.00  0.00     0.027 H 
ATOM     18  H87 ILE d   1      32.114  -9.312  63.538  0.00  0.00     0.027 H 
ATOM     19  H88 ILE d   1      31.090  -7.842  63.665  0.00  0.00     0.027 H 
ENDBRANCH  13  16
ENDBRANCH   7  13
ENDBRANCH   5   7
BRANCH   5  20
ATOM     20  C   ILE d   1      33.067  -8.693  59.592  0.00  0.00     0.241 C 
ATOM     21  O   ILE d   1      32.002  -8.876  59.001  0.00  0.00    -0.271 OA
ATOM     22  N   ARG d   1      34.203  -8.403  58.963  0.00  0.00    -0.346 N 
ATOM     23  H89 ARG d   1      35.035  -8.264  59.499  0.00  0.00     0.163 HD
BRANCH  22  24
ATOM     24  CA  ARG d   1      34.265  -8.282  57.508  0.00  0.00     0.089 C 
ATOM     25  H90 ARG d   1      33.490  -7.564  57.203  0.00  0.00     0.087 H 
BRANCH  24  26
ATOM     26  CB  ARG d   1      35.620  -7.727  57.052  0.00  0.00    -0.036 C 
ATOM     27  H91 ARG d   1      35.717  -7.895  55.969  0.00  0.00     0.036 H 
ATOM     28  H92 ARG d   1      36.415  -8.274  57.581  0.00  0.00     0.036 H 
BRANCH  26  29
ATOM     29  CG  ARG d   1      35.796  -6.238  57.326  0.00  0.00    -0.048 C 
ATOM     30  H93 ARG d   1      35.724  -6.067  58.410  0.00  0.00     0.035 H 
ATOM     31  H94 ARG d   1      34.994  -5.687  56.814  0.00  0.00     0.035 H 
BRANCH  29  32
ATOM     32  CD  ARG d   1      37.140  -5.714  56.836  0.00  0.00     0.009 C 
ATOM     33  H95 ARG d   1      37.163  -5.763  55.737  0.00  0.00     0.064 H 
ATOM     34  H96 ARG d   1      37.941  -6.345  57.248  0.00  0.00     0.064 H 
BRANCH  32  35
ATOM     35  NE  ARG d   1      37.362  -4.331  57.255  0.00  0.00    -0.227 N 
ATOM     36  CZ  ARG d   1      38.349  -3.557  56.811  0.00  0.00     0.665 C 
ATOM     37  NH2 ARG d   1      38.465  -2.311  57.254  0.00  0.00    -0.235 N 
ATOM     38  NH1 ARG d   1      39.217  -4.023  55.922  0.00  0.00    -0.235 N 
ATOM     39 0H10 ARG d   1      37.794  -1.945  57.944  0.00  0.00     0.174 HD
ATOM     40 1H10 ARG d   1      39.227  -1.710  56.908  0.00  0.00     0.174 HD
ATOM     41  H98 ARG d   1      39.979  -3.420  55.581  0.00  0.00     0.174 HD
ATOM     42  H99 ARG d   1      39.128  -4.988  55.573  0.00  0.00     0.174 HD
ATOM     43  H97 ARG d   1      36.709  -3.928  57.942  0.00  0.00     0.177 HD
ENDBRANCH  32  35
ENDBRANCH  29  32
ENDBRANCH  26  29
ENDBRANCH  24  26
BRANCH  24  44
ATOM     44  C   ARG d   1      33.963  -9.607  56.816  0.00  0.00     0.241 C 
ATOM     45  O   ARG d   1      33.451  -9.625  55.698  0.00  0.00    -0.271 OA
ATOM     46  N   ARG d   1      34.279 -10.714  57.480  0.00  0.00    -0.346 N 
ATOM     47 2H10 ARG d   1      34.777 -10.646  58.345  0.00  0.00     0.163 HD
BRANCH  46  48
ATOM     48  CA  ARG d   1      33.909 -12.027  56.963  0.00  0.00     0.089 C 
ATOM     49 3H10 ARG d   1      34.132 -12.045  55.886  0.00  0.00     0.087 H 
BRANCH  48  50
ATOM     50  CB  ARG d   1      34.718 -13.141  57.633  0.00  0.00    -0.036 C 
ATOM     51 4H10 ARG d   1      34.099 -14.050  57.664  0.00  0.00     0.036 H 
ATOM     52 5H10 ARG d   1      34.960 -12.826  58.659  0.00  0.00     0.036 H 
BRANCH  50  53
ATOM     53  CG  ARG d   1      36.017 -13.470  56.913  0.00  0.00    -0.048 C 
ATOM     54 6H10 ARG d   1      36.795 -12.765  57.242  0.00  0.00     0.035 H 
ATOM     55 7H10 ARG d   1      35.860 -13.364  55.829  0.00  0.00     0.035 H 
BRANCH  53  56
ATOM     56  CD  ARG d   1      36.483 -14.891  57.207  0.00  0.00     0.009 C 
ATOM     57 8H10 ARG d   1      37.023 -15.273  56.328  0.00  0.00     0.064 H 
ATOM     58 9H10 ARG d   1      35.600 -15.519  57.396  0.00  0.00     0.064 H 
BRANCH  56  59
ATOM     59  NE  ARG d   1      37.366 -14.967  58.367  0.00  0.00    -0.227 N 
ATOM     60  CZ  ARG d   1      36.983 -15.356  59.580  0.00  0.00     0.665 C 
ATOM     61  NH2 ARG d   1      37.862 -15.393  60.572  0.00  0.00    -0.235 N 
ATOM     62  NH1 ARG d   1      35.723 -15.707  59.803  0.00  0.00    -0.235 N 
ATOM     63 3H11 ARG d   1      38.841 -15.121  60.403  0.00  0.00     0.174 HD
ATOM     64 4H11 ARG d   1      37.566 -15.693  61.512  0.00  0.00     0.174 HD
ATOM     65 1H11 ARG d   1      35.431 -16.008  60.744  0.00  0.00     0.174 HD
ATOM     66 2H11 ARG d   1      35.037 -15.679  59.035  0.00  0.00     0.174 HD
ATOM     67 0H11 ARG d   1      38.353 -14.701  58.237  0.00  0.00     0.177 HD
ENDBRANCH  56  59
ENDBRANCH  53  56
ENDBRANCH  50  53
ENDBRANCH  48  50
BRANCH  48  68
ATOM     68  C   ARG d   1      32.416 -12.267  57.145  0.00  0.00     0.241 C 
ATOM     69  O   ARG d   1      31.751 -12.797  56.255  0.00  0.00    -0.271 OA
ATOM     70  N   LEU d   1      31.896 -11.865  58.302  0.00  0.00    -0.346 N 
ATOM     71 5H11 LEU d   1      32.501 -11.469  58.993  0.00  0.00     0.163 HD
BRANCH  70  72
ATOM     72  CA  LEU d   1      30.473 -11.983  58.595  0.00  0.00     0.089 C 
ATOM     73 6H11 LEU d   1      30.180 -13.038  58.488  0.00  0.00     0.087 H 
BRANCH  72  74
ATOM     74  CB  LEU d   1      30.192 -11.540  60.033  0.00  0.00    -0.035 C 
ATOM     75 7H11 LEU d   1      30.434 -10.469  60.101  0.00  0.00     0.037 H 
ATOM     76 8H11 LEU d   1      30.865 -12.110  60.690  0.00  0.00     0.037 H 
BRANCH  74  77
ATOM     77  CG  LEU d   1      28.769 -11.722  60.566  0.00  0.00    -0.059 C 
ATOM     78 9H11 LEU d   1      28.073 -11.265  59.848  0.00  0.00     0.038 H 
BRANCH  77  79
ATOM     79  CD1 LEU d   1      28.420 -13.200  60.690  0.00  0.00    -0.073 C 
ATOM     80 0H12 LEU d   1      27.395 -13.304  61.074  0.00  0.00     0.028 H 
ATOM     81 1H12 LEU d   1      29.122 -13.686  61.384  0.00  0.00     0.028 H 
ATOM     82 2H12 LEU d   1      28.491 -13.678  59.702  0.00  0.00     0.028 H 
ENDBRANCH  77  79
BRANCH  77  83
ATOM     83  CD2 LEU d   1      28.604 -11.016  61.904  0.00  0.00    -0.073 C 
ATOM     84 3H12 LEU d   1      28.861  -9.952  61.791  0.00  0.00     0.028 H 
ATOM     85 4H12 LEU d   1      29.271 -11.477  62.647  0.00  0.00     0.028 H 
ATOM     86 5H12 LEU d   1      27.561 -11.108  62.241  0.00  0.00     0.028 H 
ENDBRANCH  77  83
ENDBRANCH  74  77
ENDBRANCH  72  74
BRANCH  72  87
ATOM     87  C   LEU d   1      29.648 -11.148  57.618  0.00  0.00     0.241 C 
ATOM     88  O   LEU d   1      28.525 -11.510  57.265  0.00  0.00    -0.271 OA
ATOM     89  N   ALA d   1      30.221 -10.031  57.180  0.00  0.00    -0.346 N 
ATOM     90 6H12 ALA d   1      31.143  -9.806  57.495  0.00  0.00     0.163 HD
BRANCH  89  91
ATOM     91  CA  ALA d   1      29.551  -9.124  56.257  0.00  0.00     0.086 C 
ATOM     92 7H12 ALA d   1      28.543  -8.924  56.648  0.00  0.00     0.086 H 
BRANCH  91  93
ATOM     93  CB  ALA d   1      30.306  -7.806  56.182  0.00  0.00    -0.049 C 
ATOM     94 8H12 ALA d   1      29.793  -7.129  55.483  0.00  0.00     0.030 H 
ATOM     95 9H12 ALA d   1      31.331  -7.990  55.828  0.00  0.00     0.030 H 
ATOM     96 0H13 ALA d   1      30.340  -7.346  57.180  0.00  0.00     0.030 H 
ENDBRANCH  91  93
BRANCH  91  97
ATOM     97  C   ALA d   1      29.404  -9.731  54.865  0.00  0.00     0.240 C 
ATOM     98  O   ALA d   1      28.432  -9.463  54.159  0.00  0.00    -0.271 OA
ATOM     99  N   ARG d   1      30.376 -10.550  54.478  0.00  0.00    -0.346 N 
ATOM    100 1H13 ARG d   1      31.108 -10.775  55.121  0.00  0.00     0.163 HD
BRANCH  99 101
ATOM    101  CA  ARG d   1      30.404 -11.130  53.140  0.00  0.00     0.089 C 
ATOM    102 2H13 ARG d   1      29.884 -10.438  52.462  0.00  0.00     0.087 H 
BRANCH 101 103
ATOM    103  CB  ARG d   1      31.849 -11.269  52.655  0.00  0.00    -0.036 C 
ATOM    104 3H13 ARG d   1      31.838 -11.651  51.624  0.00  0.00     0.036 H 
ATOM    105 4H13 ARG d   1      32.370 -11.986  53.306  0.00  0.00     0.036 H 
BRANCH 103 106
ATOM    106  CG  ARG d   1      32.611  -9.951  52.676  0.00  0.00    -0.048 C 
ATOM    107 5H13 ARG d   1      32.447  -9.464  53.649  0.00  0.00     0.035 H 
ATOM    108 6H13 ARG d   1      32.223  -9.306  51.873  0.00  0.00     0.035 H 
BRANCH 106 109
ATOM    109  CD  ARG d   1      34.103 -10.139  52.471  0.00  0.00     0.009 C 
ATOM    110 7H13 ARG d   1      34.449 -10.966  53.109  0.00  0.00     0.064 H 
ATOM    111 8H13 ARG d   1      34.622  -9.213  52.758  0.00  0.00     0.064 H 
BRANCH 109 112
ATOM    112  NE  ARG d   1      34.423 -10.448  51.082  0.00  0.00    -0.227 N 
ATOM    113  CZ  ARG d   1      34.819 -11.641  50.655  0.00  0.00     0.665 C 
ATOM    114  NH2 ARG d   1      35.084 -11.830  49.370  0.00  0.00    -0.235 N 
ATOM    115  NH1 ARG d   1      34.956 -12.642  51.514  0.00  0.00    -0.235 N 
ATOM    116 2H14 ARG d   1      34.978 -11.053  48.703  0.00  0.00     0.174 HD
ATOM    117 3H14 ARG d   1      35.396 -12.754  49.039  0.00  0.00     0.174 HD
ATOM    118 0H14 ARG d   1      35.263 -13.567  51.182  0.00  0.00     0.174 HD
ATOM    119 1H14 ARG d   1      34.755 -12.494  52.513  0.00  0.00     0.174 HD
ATOM    120 9H13 ARG d   1      34.336  -9.692  50.388  0.00  0.00     0.177 HD
ENDBRANCH 109 112
ENDBRANCH 106 109
ENDBRANCH 103 106
ENDBRANCH 101 103
BRANCH 101 121
ATOM    121  C   ARG d   1      29.670 -12.467  53.087  0.00  0.00     0.241 C 
ATOM    122  O   ARG d   1      29.462 -13.031  52.011  0.00  0.00    -0.271 OA
ATOM    123  N   ARG d   1      29.280 -12.967  54.255  0.00  0.00    -0.346 N 
ATOM    124 4H14 ARG d   1      29.567 -12.514  55.099  0.00  0.00     0.163 HD
BRANCH 123 125
ATOM    125  CA  ARG d   1      28.446 -14.158  54.337  0.00  0.00     0.089 C 
ATOM    126 5H14 ARG d   1      28.498 -14.695  53.379  0.00  0.00     0.087 H 
BRANCH 125 127
ATOM    127  CB  ARG d   1      28.930 -15.086  55.449  0.00  0.00    -0.036 C 
ATOM    128 6H14 ARG d   1      28.256 -15.955  55.488  0.00  0.00     0.036 H 
ATOM    129 7H14 ARG d   1      28.876 -14.537  56.401  0.00  0.00     0.036 H 
BRANCH 127 130
ATOM    130  CG  ARG d   1      30.348 -15.595  55.277  0.00  0.00    -0.048 C 
ATOM    131 8H14 ARG d   1      31.042 -14.742  55.271  0.00  0.00     0.035 H 
ATOM    132 9H14 ARG d   1      30.426 -16.138  54.323  0.00  0.00     0.035 H 
BRANCH 130 133
ATOM    133  CD  ARG d   1      30.712 -16.529  56.416  0.00  0.00     0.009 C 
ATOM    134 0H15 ARG d   1      30.260 -17.514  56.225  0.00  0.00     0.064 H 
ATOM    135 1H15 ARG d   1      30.310 -16.117  57.354  0.00  0.00     0.064 H 
BRANCH 133 136
ATOM    136  NE  ARG d   1      32.156 -16.694  56.556  0.00  0.00    -0.227 N 
ATOM    137  CZ  ARG d   1      32.743 -17.255  57.609  0.00  0.00     0.665 C 
ATOM    138  NH2 ARG d   1      34.064 -17.364  57.653  0.00  0.00    -0.235 N 
ATOM    139  NH1 ARG d   1      32.010 -17.704  58.619  0.00  0.00    -0.235 N 
ATOM    140 5H15 ARG d   1      34.636 -17.016  56.870  0.00  0.00     0.174 HD
ATOM    141 6H15 ARG d   1      34.518 -17.797  58.470  0.00  0.00     0.174 HD
ATOM    142 3H15 ARG d   1      32.467 -18.138  59.434  0.00  0.00     0.174 HD
ATOM    143 4H15 ARG d   1      30.984 -17.619  58.589  0.00  0.00     0.174 HD
ATOM    144 2H15 ARG d   1      32.757 -16.355  55.792  0.00  0.00     0.177 HD
ENDBRANCH 133 136
ENDBRANCH 130 133
ENDBRANCH 127 130
ENDBRANCH 125 127
BRANCH 125 145
ATOM    145  C   ARG d   1      27.003 -13.750  54.603  0.00  0.00     0.240 C 
ATOM    146  O   ARG d   1      26.108 -14.594  54.659  0.00  0.00    -0.271 OA
ATOM    147  N   GLY d   1      26.787 -12.448  54.774  0.00  0.00    -0.349 N 
ATOM    148 7H15 GLY d   1      27.563 -11.819  54.730  0.00  0.00     0.163 HD
BRANCH 147 149
ATOM    149  CA  GLY d   1      25.456 -11.908  55.024  0.00  0.00     0.072 C 
ATOM    150 8H15 GLY d   1      24.717 -12.540  54.509  0.00  0.00     0.080 H 
ATOM    151 9H15 GLY d   1      25.409 -10.886  54.620  0.00  0.00     0.080 H 
BRANCH 149 152
ATOM    152  C   GLY d   1      25.112 -11.863  56.500  0.00  0.00     0.158 C 
ATOM    153  O   GLY d   1      23.941 -11.927  56.875  0.00  0.00    -0.649 OA
BRANCH 152 154
ATOM    154  O1  GLY d   1      26.086 -11.753  57.399  0.00  0.00    -0.775 OA
ATOM    155 0H16 GLY d   1      26.924 -11.716  56.954  0.00  0.00     0.167 HD
ENDBRANCH 152 154
ENDBRANCH 149 152
ENDBRANCH 147 149
ENDBRANCH 125 145
ENDBRANCH 123 125
ENDBRANCH 101 121
ENDBRANCH  99 101
ENDBRANCH  91  97
ENDBRANCH  89  91
ENDBRANCH  72  87
ENDBRANCH  70  72
ENDBRANCH  48  68
ENDBRANCH  46  48
ENDBRANCH  24  44
ENDBRANCH  22  24
ENDBRANCH   5  20
ENDBRANCH   1   5
BRANCH   3 156
ATOM    156  CA  ALA d   1      35.815 -11.435  61.749  0.00  0.00     0.086 C 
ATOM    157  H74 ALA d   1      35.941 -12.400  61.236  0.00  0.00     0.086 H 
BRANCH 156 158
ATOM    158  N   ALA d   1      36.942 -10.579  61.393  0.00  0.00    -0.346 N 
ATOM    159  C   PRO d   1      37.373 -10.469  60.140  0.00  0.00     0.241 C 
ATOM    160  O   PRO d   1      36.861 -11.068  59.194  0.00  0.00    -0.271 OA
ATOM    161  H73 ALA d   1      37.404 -10.060  62.112  0.00  0.00     0.163 HD
BRANCH 159 162
ATOM    162  CA  PRO d   1      38.567  -9.545  59.908  0.00  0.00     0.091 C 
ATOM    163  CB  PRO d   1      39.880 -10.314  60.121  0.00  0.00    -0.036 C 
ATOM    164  CG  PRO d   1      40.744  -9.414  60.960  0.00  0.00    -0.048 C 
ATOM    165  H67 PRO d   1      40.365 -10.521  59.156  0.00  0.00     0.036 H 
ATOM    166  H68 PRO d   1      39.689 -11.262  60.646  0.00  0.00     0.036 H 
ATOM    167  CD  PRO d   1      39.791  -8.640  61.800  0.00  0.00    -0.001 C 
ATOM    168  H69 PRO d   1      41.422 -10.007  61.591  0.00  0.00     0.035 H 
ATOM    169  H70 PRO d   1      41.333  -8.739  60.322  0.00  0.00     0.035 H 
ATOM    170  N   PRO d   1      38.634  -8.477  60.904  0.00  0.00    -0.337 N 
ATOM    171  H71 PRO d   1      39.516  -9.199  62.706  0.00  0.00     0.064 H 
ATOM    172  H72 PRO d   1      40.214  -7.665  62.085  0.00  0.00     0.064 H 
ATOM    173  C   LYS d   1      37.710  -7.500  60.906  0.00  0.00     0.243 C 
ATOM    174  O   LYS d   1      36.807  -7.444  60.074  0.00  0.00    -0.271 OA
ATOM    175  H66 PRO d   1      38.513  -9.127  58.892  0.00  0.00     0.087 H 
BRANCH 173 176
ATOM    176  CA  LYS d   1      37.817  -6.431  61.993  0.00  0.00     0.089 C 
ATOM    177  H54 LYS d   1      36.859  -5.890  62.015  0.00  0.00     0.087 H 
BRANCH 176 178
ATOM    178  N   LYS d   1      38.021  -6.998  63.327  0.00  0.00    -0.346 N 
ATOM    179  C   THR d   1      37.068  -7.712  63.919  0.00  0.00     0.243 C 
ATOM    180  O   THR d   1      35.964  -7.895  63.411  0.00  0.00    -0.271 OA
ATOM    181  H53 LYS d   1      38.889  -6.846  63.800  0.00  0.00     0.163 HD
BRANCH 179 182
ATOM    182  CA  THR d   1      37.398  -8.318  65.282  0.00  0.00     0.113 C 
ATOM    183  H47 THR d   1      37.334  -9.411  65.178  0.00  0.00     0.091 H 
BRANCH 182 184
ATOM    184  N   THR d   1      38.750  -8.014  65.743  0.00  0.00    -0.344 N 
ATOM    185  C   ILE d   1      39.756  -8.860  65.540  0.00  0.00     0.241 C 
ATOM    186  O   ILE d   1      39.634  -9.901  64.892  0.00  0.00    -0.271 OA
ATOM    187  H46 THR d   1      38.923  -7.153  66.221  0.00  0.00     0.163 HD
BRANCH 185 188
ATOM    188  CA  ILE d   1      41.104  -8.472  66.144  0.00  0.00     0.092 C 
ATOM    189  H36 ILE d   1      41.889  -9.013  65.596  0.00  0.00     0.088 H 
BRANCH 188 190
ATOM    190  N   ILE d   1      41.364  -7.043  65.992  0.00  0.00    -0.346 N 
ATOM    191  C   GLY d   1      41.806  -6.529  64.848  0.00  0.00     0.236 C 
ATOM    192  O   GLY d   1      42.064  -7.214  63.859  0.00  0.00    -0.272 OA
ATOM    193  H35 ILE d   1      41.205  -6.434  66.769  0.00  0.00     0.163 HD
BRANCH 191 194
ATOM    194  CA  GLY d   1      41.983  -5.022  64.813  0.00  0.00     0.069 C 
ATOM    195  H33 GLY d   1      43.044  -4.786  64.984  0.00  0.00     0.078 H 
ATOM    196  H34 GLY d   1      41.681  -4.653  63.822  0.00  0.00     0.078 H 
BRANCH 194 197
ATOM    197  N   GLY d   1      41.182  -4.347  65.829  0.00  0.00    -0.351 N 
ATOM    198  C   GLN d   1      39.854  -4.398  65.827  0.00  0.00     0.240 C 
ATOM    199  O   GLN d   1      39.204  -4.983  64.961  0.00  0.00    -0.271 OA
ATOM    200  H32 GLY d   1      41.646  -3.830  66.548  0.00  0.00     0.163 HD
BRANCH 198 201
ATOM    201  CA  GLN d   1      39.154  -3.699  66.987  0.00  0.00     0.090 C 
ATOM    202  H25 GLN d   1      38.142  -4.118  67.085  0.00  0.00     0.087 H 
BRANCH 201 203
ATOM    203  N   GLN d   1      39.876  -3.958  68.226  0.00  0.00    -0.346 N 
ATOM    204  C   ILE d   1      39.953  -5.192  68.717  0.00  0.00     0.241 C 
ATOM    205  O   ILE d   1      39.379  -6.149  68.198  0.00  0.00    -0.271 OA
ATOM    206  H24 GLN d   1      40.317  -3.203  68.711  0.00  0.00     0.163 HD
BRANCH 204 207
ATOM    207  CA  ILE d   1      40.789  -5.389  69.979  0.00  0.00     0.092 C 
ATOM    208  H14 ILE d   1      41.230  -6.395  69.923  0.00  0.00     0.088 H 
BRANCH 207 209
ATOM    209  N   ILE d   1      41.899  -4.447  70.115  0.00  0.00    -0.346 N 
ATOM    210  C   ASN d   1      42.964  -4.489  69.320  0.00  0.00     0.241 C 
ATOM    211  O   ASN d   1      43.061  -5.260  68.367  0.00  0.00    -0.271 OA
ATOM    212  H13 ILE d   1      41.856  -3.748  70.829  0.00  0.00     0.163 HD
BRANCH 210 213
ATOM    213  CA  ASN d   1      44.086  -3.508  69.649  0.00  0.00     0.097 C 
ATOM    214  H8  ASN d   1      44.270  -3.562  70.732  0.00  0.00     0.088 H 
BRANCH 213 215
ATOM    215  N   ASN d   1      45.331  -3.854  68.973  0.00  0.00    -0.346 N 
ATOM    216  C   ASP d   1      46.389  -4.312  69.635  0.00  0.00     0.249 C 
ATOM    217  O   ASP d   1      46.413  -4.446  70.860  0.00  0.00    -0.271 OA
ATOM    218  H7  ASN d   1      45.391  -3.743  67.981  0.00  0.00     0.163 HD
BRANCH 216 219
ATOM    219  CA  ASP d   1      47.600  -4.676  68.783  0.00  0.00     0.185 C 
ATOM    220  H4  ASP d   1      47.688  -3.925  67.984  0.00  0.00     0.100 H 
BRANCH 219 221
ATOM    221  N   ASP d   1      48.869  -4.656  69.567  0.00  0.00    -0.066 N 
ATOM    222  H1  ASP d   1      49.639  -4.902  68.965  0.00  0.00     0.275 HD
ATOM    223  H2  ASP d   1      48.808  -5.320  70.323  0.00  0.00     0.275 HD
ATOM    224  H3  ASP d   1      49.017  -3.732  69.943  0.00  0.00     0.275 HD
ENDBRANCH 219 221
BRANCH 219 225
ATOM    225  CB  ASP d   1      47.387  -6.045  68.131  0.00  0.00     0.050 C 
ATOM    226  H5  ASP d   1      46.310  -6.191  67.962  0.00  0.00     0.052 H 
ATOM    227  H6  ASP d   1      47.759  -6.822  68.814  0.00  0.00     0.052 H 
BRANCH 225 228
ATOM    228  CG  ASP d   1      48.109  -6.177  66.806  0.00  0.00     0.175 C 
ATOM    229  OD1 ASP d   1      47.834  -7.150  66.073  0.00  0.00    -0.648 OA
ATOM    230  OD2 ASP d   1      48.947  -5.304  66.493  0.00  0.00    -0.648 OA
ENDBRANCH 225 228
ENDBRANCH 219 225
ENDBRANCH 216 219
ENDBRANCH 213 215
BRANCH 213 231
ATOM    231  CB  ASN d   1      43.663  -2.074  69.314  0.00  0.00     0.036 C 
ATOM    232  H9  ASN d   1      44.511  -1.402  69.512  0.00  0.00     0.051 H 
ATOM    233  H10 ASN d   1      42.817  -1.797  69.960  0.00  0.00     0.051 H 
BRANCH 231 234
ATOM    234  CG  ASN d   1      43.242  -1.910  67.868  0.00  0.00     0.217 C 
ATOM    235  ND2 ASN d   1      44.093  -2.345  66.946  0.00  0.00    -0.370 N 
ATOM    236  H11 ASN d   1      43.865  -2.261  65.976  0.00  0.00     0.159 HD
ATOM    237  H12 ASN d   1      44.962  -2.756  67.222  0.00  0.00     0.159 HD
ATOM    238  OD1 ASN d   1      42.161  -1.396  67.582  0.00  0.00    -0.274 OA
ENDBRANCH 231 234
ENDBRANCH 213 231
ENDBRANCH 210 213
ENDBRANCH 207 209
BRANCH 207 239
ATOM    239  CB  ILE d   1      39.869  -5.348  71.208  0.00  0.00    -0.030 C 
ATOM    240  H15 ILE d   1      38.836  -5.537  70.882  0.00  0.00     0.043 H 
BRANCH 239 241
ATOM    241  CG2 ILE d   1      40.268  -6.425  72.203  0.00  0.00    -0.071 C 
ATOM    242  H18 ILE d   1      40.216  -7.410  71.717  0.00  0.00     0.028 H 
ATOM    243  H19 ILE d   1      39.582  -6.403  73.062  0.00  0.00     0.028 H 
ATOM    244  H20 ILE d   1      41.296  -6.241  72.550  0.00  0.00     0.028 H 
ENDBRANCH 239 241
BRANCH 239 245
ATOM    245  CG1 ILE d   1      39.933  -3.965  71.858  0.00  0.00    -0.063 C 
ATOM    246  H16 ILE d   1      39.212  -3.309  71.348  0.00  0.00     0.033 H 
ATOM    247  H17 ILE d   1      40.950  -3.566  71.725  0.00  0.00     0.033 H 
BRANCH 245 248
ATOM    248  CD1 ILE d   1      39.614  -3.969  73.325  0.00  0.00    -0.076 C 
ATOM    249  H21 ILE d   1      39.681  -2.944  73.718  0.00  0.00     0.027 H 
ATOM    250  H22 ILE d   1      40.332  -4.612  73.855  0.00  0.00     0.027 H 
ATOM    251  H23 ILE d   1      38.595  -4.354  73.478  0.00  0.00     0.027 H 
ENDBRANCH 245 248
ENDBRANCH 239 245
ENDBRANCH 207 239
ENDBRANCH 204 207
ENDBRANCH 201 203
BRANCH 201 252
ATOM    252  CB  GLN d   1      39.022  -2.198  66.714  0.00  0.00    -0.030 C 
ATOM    253  H26 GLN d   1      40.031  -1.773  66.610  0.00  0.00     0.037 H 
ATOM    254  H27 GLN d   1      38.514  -1.732  67.571  0.00  0.00     0.037 H 
BRANCH 252 255
ATOM    255  CG  GLN d   1      38.229  -1.875  65.449  0.00  0.00     0.011 C 
ATOM    256  H28 GLN d   1      37.359  -2.546  65.400  0.00  0.00     0.047 H 
ATOM    257  H29 GLN d   1      38.876  -2.049  64.576  0.00  0.00     0.047 H 
BRANCH 255 258
ATOM    258  CD  GLN d   1      37.735  -0.440  65.405  0.00  0.00     0.215 C 
ATOM    259  NE2 GLN d   1      36.707  -0.193  64.600  0.00  0.00    -0.370 N 
ATOM    260  H30 GLN d   1      36.338   0.734  64.530  0.00  0.00     0.159 HD
ATOM    261  H31 GLN d   1      36.302  -0.934  64.064  0.00  0.00     0.159 HD
ATOM    262  OE1 GLN d   1      38.271   0.438  66.083  0.00  0.00    -0.274 OA
ENDBRANCH 255 258
ENDBRANCH 252 255
ENDBRANCH 201 252
ENDBRANCH 198 201
ENDBRANCH 194 197
ENDBRANCH 191 194
ENDBRANCH 188 190
BRANCH 188 263
ATOM    263  CB  ILE d   1      41.171  -8.913  67.630  0.00  0.00    -0.030 C 
ATOM    264  H37 ILE d   1      40.888  -8.059  68.263  0.00  0.00     0.043 H 
BRANCH 263 265
ATOM    265  CG2 ILE d   1      40.215 -10.070  67.900  0.00  0.00    -0.071 C 
ATOM    266  H40 ILE d   1      39.190  -9.766  67.643  0.00  0.00     0.028 H 
ATOM    267  H41 ILE d   1      40.260 -10.342  68.965  0.00  0.00     0.028 H 
ATOM    268  H42 ILE d   1      40.505 -10.936  67.287  0.00  0.00     0.028 H 
ENDBRANCH 263 265
BRANCH 263 269
ATOM    269  CG1 ILE d   1      42.589  -9.359  67.995  0.00  0.00    -0.063 C 
ATOM    270  H38 ILE d   1      42.856 -10.212  67.353  0.00  0.00     0.033 H 
ATOM    271  H39 ILE d   1      42.588  -9.678  69.048  0.00  0.00     0.033 H 
BRANCH 269 272
ATOM    272  CD1 ILE d   1      43.649  -8.292  67.827  0.00  0.00    -0.076 C 
ATOM    273  H43 ILE d   1      44.630  -8.701  68.111  0.00  0.00     0.027 H 
ATOM    274  H44 ILE d   1      43.410  -7.433  68.471  0.00  0.00     0.027 H 
ATOM    275  H45 ILE d   1      43.678  -7.966  66.777  0.00  0.00     0.027 H 
ENDBRANCH 269 272
ENDBRANCH 263 269
ENDBRANCH 188 263
ENDBRANCH 185 188
ENDBRANCH 182 184
BRANCH 182 276
ATOM    276  CB  THR d   1      36.331  -7.882  66.309  0.00  0.00     0.060 C 
ATOM    277  H48 THR d   1      35.337  -7.947  65.843  0.00  0.00     0.086 H 
BRANCH 276 278
ATOM    278  CG2 THR d   1      36.367  -8.788  67.533  0.00  0.00    -0.050 C 
ATOM    279  H50 THR d   1      35.601  -8.463  68.253  0.00  0.00     0.031 H 
ATOM    280  H51 THR d   1      37.360  -8.730  68.003  0.00  0.00     0.031 H 
ATOM    281  H52 THR d   1      36.166  -9.825  67.227  0.00  0.00     0.031 H 
ENDBRANCH 276 278
BRANCH 276 282
ATOM    282  OG1 THR d   1      36.577  -6.530  66.712  0.00  0.00    -0.393 OA
ATOM    283  H49 THR d   1      37.431  -6.474  67.124  0.00  0.00     0.210 HD
ENDBRANCH 276 282
ENDBRANCH 182 276
ENDBRANCH 179 182
ENDBRANCH 176 178
BRANCH 176 284
ATOM    284  CB  LYS d   1      38.911  -5.419  61.640  0.00  0.00    -0.038 C 
ATOM    285  H55 LYS d   1      39.103  -5.480  60.559  0.00  0.00     0.036 H 
ATOM    286  H56 LYS d   1      39.824  -5.691  62.190  0.00  0.00     0.036 H 
BRANCH 284 287
ATOM    287  CG  LYS d   1      38.558  -3.984  61.981  0.00  0.00    -0.061 C 
ATOM    288  H57 LYS d   1      38.522  -3.873  63.075  0.00  0.00     0.033 H 
ATOM    289  H58 LYS d   1      37.572  -3.746  61.556  0.00  0.00     0.033 H 
BRANCH 287 290
ATOM    290  CD  LYS d   1      39.585  -3.019  61.419  0.00  0.00    -0.043 C 
ATOM    291  H59 LYS d   1      39.659  -3.166  60.331  0.00  0.00     0.035 H 
ATOM    292  H60 LYS d   1      40.561  -3.223  61.884  0.00  0.00     0.035 H 
BRANCH 290 293
ATOM    293  CE  LYS d   1      39.195  -1.580  61.698  0.00  0.00     0.080 C 
ATOM    294  H61 LYS d   1      39.016  -1.460  62.777  0.00  0.00     0.075 H 
ATOM    295  H62 LYS d   1      38.274  -1.344  61.145  0.00  0.00     0.075 H 
BRANCH 293 296
ATOM    296  NZ  LYS d   1      40.267  -0.640  61.277  0.00  0.00    -0.079 N 
ATOM    297  H63 LYS d   1      39.981   0.306  61.474  0.00  0.00     0.274 HD
ATOM    298  H64 LYS d   1      40.434  -0.742  60.288  0.00  0.00     0.274 HD
ATOM    299  H65 LYS d   1      41.114  -0.847  61.783  0.00  0.00     0.274 HD
ENDBRANCH 293 296
ENDBRANCH 290 293
ENDBRANCH 287 290
ENDBRANCH 284 287
ENDBRANCH 176 284
ENDBRANCH 173 176
ENDBRANCH 159 162
ENDBRANCH 156 158
BRANCH 156 300
ATOM    300  CB  ALA d   1      35.796 -11.691  63.250  0.00  0.00    -0.049 C 
ATOM    301  H75 ALA d   1      34.942 -12.337  63.501  0.00  0.00     0.030 H 
ATOM    302  H76 ALA d   1      35.702 -10.734  63.784  0.00  0.00     0.030 H 
ATOM    303  H77 ALA d   1      36.731 -12.187  63.549  0.00  0.00     0.030 H 
ENDBRANCH 156 300
ENDBRANCH   3 156
TORSDOF 85
