REMARK  4 active torsions:
REMARK  status: ('A' for Active; 'I' for Inactive)
REMARK    1  A    between atoms: C01_1  and  N02_2 
REMARK    2  A    between atoms: N02_2  and  C03_3 
REMARK    3  A    between atoms: N02_2  and  C18_18 
REMARK    4  A    between atoms: C05_5  and  C06_6 
ROOT
ATOM      1  C03 JNF d   1      22.203  12.342  31.920  0.00  0.00     0.204 A 
ATOM      2  N04 JNF d   1      22.020  10.945  31.939  0.00  0.00    -0.216 NA
ATOM      3  C05 JNF d   1      20.810  10.441  32.423  0.00  0.00     0.090 A 
ATOM      4  C15 JNF d   1      19.779  11.250  32.893  0.00  0.00    -0.036 A 
ATOM      5  C16 JNF d   1      20.037  12.623  32.849  0.00  0.00     0.008 A 
ATOM      6  N17 JNF d   1      21.206  13.187  32.376  0.00  0.00    -0.231 NA
ATOM      7  H9  JNF d   1      18.845  10.845  33.266  0.00  0.00     0.089 H 
ATOM      8  H10 JNF d   1      19.265  13.293  33.212  0.00  0.00     0.115 H 
ENDROOT
BRANCH   1   9
ATOM      9  N02 JNF d   1      23.460  12.940  31.458  0.00  0.00    -0.251 NA
BRANCH   9  10
ATOM     10  C01 JNF d   1      23.398  14.412  31.435  0.00  0.00    -0.026 C 
ATOM     11  H1  JNF d   1      22.934  14.774  32.364  0.00  0.00     0.049 H 
ATOM     12  H2  JNF d   1      22.798  14.740  30.573  0.00  0.00     0.049 H 
ATOM     13  H3  JNF d   1      24.416  14.821  31.351  0.00  0.00     0.049 H 
ENDBRANCH   9  10
BRANCH   9  14
ATOM     14  C18 JNF d   1      24.081  12.355  30.226  0.00  0.00     0.001 C 
ATOM     15  C19 JNF d   1      23.153  12.186  28.994  0.00  0.00    -0.050 C 
ATOM     16  C20 JNF d   1      23.910  11.585  27.790  0.00  0.00    -0.064 C 
ATOM     17  H12 JNF d   1      22.755  13.171  28.709  0.00  0.00     0.035 H 
ATOM     18  H13 JNF d   1      22.322  11.518  29.262  0.00  0.00     0.035 H 
ATOM     19  C21 JNF d   1      24.521  10.209  28.120  0.00  0.00    -0.065 C 
ATOM     20  H14 JNF d   1      24.718  12.272  27.500  0.00  0.00     0.033 H 
ATOM     21  H15 JNF d   1      23.208  11.470  26.951  0.00  0.00     0.033 H 
ATOM     22  C22 JNF d   1      25.419  10.260  29.364  0.00  0.00    -0.064 C 
ATOM     23  H16 JNF d   1      25.122   9.873  27.262  0.00  0.00     0.033 H 
ATOM     24  H17 JNF d   1      23.706   9.493  28.300  0.00  0.00     0.033 H 
ATOM     25  C23 JNF d   1      24.743  10.979  30.565  0.00  0.00    -0.050 C 
ATOM     26  H18 JNF d   1      26.344  10.797  29.108  0.00  0.00     0.033 H 
ATOM     27  H19 JNF d   1      25.664   9.230  29.663  0.00  0.00     0.033 H 
ATOM     28  H20 JNF d   1      23.963  10.315  30.965  0.00  0.00     0.035 H 
ATOM     29  H21 JNF d   1      25.509  11.150  31.335  0.00  0.00     0.035 H 
ATOM     30  H11 JNF d   1      24.880  13.048  29.923  0.00  0.00     0.064 H 
ENDBRANCH   9  14
ENDBRANCH   1   9
BRANCH   3  31
ATOM     31  C06 JNF d   1      20.637   8.973  32.402  0.00  0.00     0.087 A 
ATOM     32  N07 JNF d   1      21.554   8.026  31.958  0.00  0.00    -0.303 N 
ATOM     33  C08 JNF d   1      20.947   6.750  32.140  0.00  0.00     0.134 A 
ATOM     34  C12 JNF d   1      22.854   8.182  31.413  0.00  0.00    -0.013 A 
ATOM     35  C09 JNF d   1      21.712   5.594  31.742  0.00  0.00    -0.038 A 
ATOM     36  N13 JNF d   1      19.750   6.843  32.651  0.00  0.00    -0.240 NA
ATOM     37  C10 JNF d   1      22.968   5.759  31.218  0.00  0.00    -0.078 A 
ATOM     38  H4  JNF d   1      21.294   4.595  31.857  0.00  0.00     0.089 H 
ATOM     39  C11 JNF d   1      23.568   7.092  31.040  0.00  0.00    -0.067 A 
ATOM     40  H5  JNF d   1      23.538   4.879  30.925  0.00  0.00     0.083 H 
ATOM     41  H6  JNF d   1      24.566   7.200  30.617  0.00  0.00     0.085 H 
ATOM     42  C14 JNF d   1      19.546   8.198  32.821  0.00  0.00     0.033 A 
ATOM     43  H8  JNF d   1      18.633   8.621  33.237  0.00  0.00     0.118 H 
ATOM     44  H7  JNF d   1      23.279   9.178  31.294  0.00  0.00     0.112 H 
ENDBRANCH   3  31
TORSDOF 4
