REMARK  6 active torsions:
REMARK  status: ('A' for Active; 'I' for Inactive)
REMARK    1  A    between atoms: C01_1  and  N02_2 
REMARK       I    between atoms: N02_2  and  C03_3 
REMARK    2  A    between atoms: C03_3  and  C05_5 
REMARK    3  A    between atoms: C05_5  and  N06_6 
REMARK    4  A    between atoms: C09_9  and  N12_12 
REMARK    5  A    between atoms: N12_12  and  C13_13 
REMARK    6  A    between atoms: C15_15  and  C19_19 
ROOT
ATOM      1  N06 JNO d   1      25.402   5.907  29.508  0.00  0.00    -0.063 N 
ATOM      2  C07 JNO d   1      24.460   7.047  29.338  0.00  0.00     0.086 C 
ATOM      3  C08 JNO d   1      23.124   6.775  30.041  0.00  0.00    -0.023 C 
ATOM      4  C09 JNO d   1      23.385   6.496  31.539  0.00  0.00     0.029 C 
ATOM      5  C10 JNO d   1      24.318   5.286  31.675  0.00  0.00    -0.023 C 
ATOM      6  C11 JNO d   1      25.641   5.573  30.950  0.00  0.00     0.086 C 
ATOM      7  H7  JNO d   1      24.987   5.101  29.068  0.00  0.00     0.280 HD
ATOM      8  H8  JNO d   1      24.275   7.202  28.265  0.00  0.00     0.076 H 
ATOM      9  H9  JNO d   1      24.913   7.953  29.767  0.00  0.00     0.076 H 
ATOM     10  H10 JNO d   1      22.639   5.901  29.583  0.00  0.00     0.038 H 
ATOM     11  H11 JNO d   1      22.469   7.653  29.939  0.00  0.00     0.038 H 
ATOM     12  H12 JNO d   1      23.867   7.374  31.994  0.00  0.00     0.073 H 
ATOM     13  H13 JNO d   1      23.839   4.402  31.228  0.00  0.00     0.038 H 
ATOM     14  H14 JNO d   1      24.518   5.095  32.740  0.00  0.00     0.038 H 
ATOM     15  H15 JNO d   1      26.142   6.422  31.438  0.00  0.00     0.076 H 
ATOM     16  H16 JNO d   1      26.285   4.683  31.011  0.00  0.00     0.076 H 
ENDROOT
BRANCH   4  17
ATOM     17  N12 JNO d   1      22.123   6.246  32.213  0.00  0.00    -0.218 N 
ATOM     18  H17 JNO d   1      21.879   5.271  32.439  0.00  0.00     0.178 HD
BRANCH  17  19
ATOM     19  C13 JNO d   1      21.225   7.246  32.571  0.00  0.00     0.723 A 
ATOM     20  N14 JNO d   1      21.635   8.536  32.420  0.00  0.00    -0.061 NA
ATOM     21  C15 JNO d   1      20.752   9.541  32.769  0.00  0.00     0.106 A 
ATOM     22  C16 JNO d   1      19.460   9.276  33.263  0.00  0.00    -0.035 A 
ATOM     23  C17 JNO d   1      19.147   7.936  33.373  0.00  0.00     0.023 A 
ATOM     24  H18 JNO d   1      18.766  10.063  33.535  0.00  0.00     0.089 H 
ATOM     25  N18 JNO d   1      19.993   6.920  33.036  0.00  0.00    -0.075 NA
ATOM     26  H19 JNO d   1      18.166   7.674  33.752  0.00  0.00     0.115 H 
BRANCH  21  27
ATOM     27  C19 JNO d   1      21.227  10.932  32.567  0.00  0.00     0.087 A 
ATOM     28  N20 JNO d   1      22.453  11.345  32.050  0.00  0.00    -0.303 N 
ATOM     29  C21 JNO d   1      23.578  10.609  31.575  0.00  0.00    -0.013 A 
ATOM     30  C25 JNO d   1      22.432  12.767  32.057  0.00  0.00     0.134 A 
ATOM     31  C22 JNO d   1      24.671  11.268  31.105  0.00  0.00    -0.067 A 
ATOM     32  H20 JNO d   1      23.562   9.520  31.588  0.00  0.00     0.112 H 
ATOM     33  C23 JNO d   1      24.665  12.734  31.103  0.00  0.00    -0.078 A 
ATOM     34  H21 JNO d   1      25.535  10.717  30.737  0.00  0.00     0.085 H 
ATOM     35  C24 JNO d   1      23.594  13.455  31.557  0.00  0.00    -0.038 A 
ATOM     36  H22 JNO d   1      25.539  13.265  30.729  0.00  0.00     0.083 H 
ATOM     37  H23 JNO d   1      23.620  14.544  31.540  0.00  0.00     0.089 H 
ATOM     38  N26 JNO d   1      21.317  13.235  32.532  0.00  0.00    -0.240 NA
ATOM     39  C27 JNO d   1      20.576  12.127  32.845  0.00  0.00     0.033 A 
ATOM     40  H24 JNO d   1      19.575  12.178  33.270  0.00  0.00     0.118 H 
ENDBRANCH  21  27
ENDBRANCH  17  19
ENDBRANCH   4  17
BRANCH   1  41
ATOM     41  C05 JNO d   1      26.688   6.178  28.849  0.00  0.00     0.156 C 
ATOM     42  H5  JNO d   1      26.535   6.916  28.048  0.00  0.00     0.090 H 
ATOM     43  H6  JNO d   1      27.395   6.581  29.589  0.00  0.00     0.090 H 
BRANCH  41  44
ATOM     44  C03 JNO d   1      27.264   4.906  28.251  0.00  0.00     0.243 C 
ATOM     45  N02 JNO d   1      26.368   3.836  28.246  0.00  0.00    -0.364 N 
ATOM     46  H4  JNO d   1      25.400   4.010  28.063  0.00  0.00     0.161 HD
ATOM     47  O04 JNO d   1      28.416   4.849  27.817  0.00  0.00    -0.272 OA
BRANCH  45  48
ATOM     48  C01 JNO d   1      26.805   2.486  28.498  0.00  0.00    -0.018 C 
ATOM     49  H1  JNO d   1      25.942   1.806  28.447  0.00  0.00     0.056 H 
ATOM     50  H2  JNO d   1      27.258   2.428  29.498  0.00  0.00     0.056 H 
ATOM     51  H3  JNO d   1      27.548   2.194  27.741  0.00  0.00     0.056 H 
ENDBRANCH  45  48
ENDBRANCH  41  44
ENDBRANCH   1  41
TORSDOF 6
