REMARK  3 active torsions:
REMARK  status: ('A' for Active; 'I' for Inactive)
REMARK    1  A    between atoms: C3_3  and  O3_21 
REMARK    2  A    between atoms: C5_5  and  O4_22 
REMARK    3  A    between atoms: C17_17  and  C18_18 
ROOT
ATOM      1  C1  RDC d   1      61.524   6.336  21.563  0.00  0.00     0.297 C 
ATOM      2  C2  RDC d   1      62.882   6.909  21.156  0.00  0.00     0.081 A 
ATOM      3  C3  RDC d   1      63.460   6.550  19.874  0.00  0.00     0.085 A 
ATOM      4  C4  RDC d   1      64.694   7.072  19.501  0.00  0.00    -0.016 A 
ATOM      5  C5  RDC d   1      65.406   7.955  20.315  0.00  0.00     0.090 A 
ATOM      6  C6  RDC d   1      64.894   8.349  21.591  0.00  0.00     0.075 A 
ATOM      7  C7  RDC d   1      63.636   7.849  22.026  0.00  0.00    -0.007 A 
ATOM      8  C8  RDC d   1      63.080   8.278  23.419  0.00  0.00     0.021 C 
ATOM      9  C9  RDC d   1      63.752   7.661  24.605  0.00  0.00     0.153 C 
ATOM     10  C10 RDC d   1      63.580   6.248  25.028  0.00  0.00    -0.038 C 
ATOM     11  C11 RDC d   1      62.809   5.246  24.413  0.00  0.00    -0.080 C 
ATOM     12  C12 RDC d   1      62.802   3.916  25.088  0.00  0.00    -0.084 C 
ATOM     13  C13 RDC d   1      62.182   2.723  24.739  0.00  0.00    -0.073 C 
ATOM     14  C14 RDC d   1      61.286   2.183  23.562  0.00  0.00     0.080 A 
ATOM     15  C15 RDC d   1      59.976   2.907  23.028  0.00  0.00     0.070 A 
ATOM     16  C16 RDC d   1      60.188   3.335  21.553  0.00  0.00    -0.014 C 
ATOM     17  C17 RDC d   1      59.563   4.722  21.098  0.00  0.00     0.047 C 
ATOM     18  O1  RDC d   1      60.834   5.434  20.753  0.00  0.00    -0.312 OA
ATOM     19  O2  RDC d   1      61.058   6.658  22.685  0.00  0.00    -0.259 OA
ATOM     20 CL1  RDC d   1      65.836   9.468  22.576  0.00  0.00    -0.081 Cl
ATOM     21  O5  RDC d   1      64.500   8.411  25.295  0.00  0.00    -0.293 OA
ATOM     22  O6  RDC d   1      60.043   1.559  23.594  0.00  0.00    -0.371 OA
ATOM     23  H1  RDC d   1      65.117   6.783  18.546  0.00  0.00     0.092 H 
ATOM     24  H2  RDC d   1      62.015   8.007  23.456  0.00  0.00     0.052 H 
ATOM     25  H3  RDC d   1      63.184   9.370  23.502  0.00  0.00     0.052 H 
ATOM     26  H4  RDC d   1      64.118   5.951  25.927  0.00  0.00     0.089 H 
ATOM     27  H5  RDC d   1      62.249   5.430  23.497  0.00  0.00     0.083 H 
ATOM     28  H6  RDC d   1      63.380   3.873  26.010  0.00  0.00     0.083 H 
ATOM     29  H7  RDC d   1      62.366   1.949  25.483  0.00  0.00     0.081 H 
ATOM     30  H8  RDC d   1      61.996   1.798  22.815  0.00  0.00     0.093 H 
ATOM     31  H9  RDC d   1      59.413   3.679  23.573  0.00  0.00     0.087 H 
ATOM     32  H10 RDC d   1      59.752   2.552  20.916  0.00  0.00     0.040 H 
ATOM     33  H11 RDC d   1      61.273   3.388  21.377  0.00  0.00     0.040 H 
ATOM     34  H12 RDC d   1      58.932   4.593  20.207  0.00  0.00     0.083 H 
ENDROOT
BRANCH  17  35
ATOM     35  C18 RDC d   1      58.708   5.432  22.188  0.00  0.00    -0.051 C 
ATOM     36  H13 RDC d   1      58.317   6.379  21.788  0.00  0.00     0.030 H 
ATOM     37  H14 RDC d   1      59.334   5.636  23.069  0.00  0.00     0.030 H 
ATOM     38  H15 RDC d   1      57.869   4.782  22.477  0.00  0.00     0.030 H 
ENDBRANCH  17  35
BRANCH   3  39
ATOM     39  O3  RDC d   1      62.852   5.698  19.048  0.00  0.00    -0.360 OA
ATOM     40  H16 RDC d   1      62.025   5.425  19.428  0.00  0.00     0.217 HD
ENDBRANCH   3  39
BRANCH   5  41
ATOM     41  O4  RDC d   1      66.583   8.417  19.871  0.00  0.00    -0.359 OA
ATOM     42  H17 RDC d   1      66.761   8.052  19.012  0.00  0.00     0.217 HD
ENDBRANCH   5  41
TORSDOF 3
