REMARK  4 active torsions:
REMARK  status: ('A' for Active; 'I' for Inactive)
REMARK    1  A    between atoms: C2_2  and  C4_4 
REMARK    2  A    between atoms: C4_4  and  S5_5 
REMARK    3  A    between atoms: S5_5  and  C7_6 
REMARK    4  A    between atoms: S5_5  and  C6_7 
ROOT
ATOM      1  S5  313 d   1      12.545 -19.251  22.496  0.00  0.00    -0.218 SA
ENDROOT
BRANCH   1   2
ATOM      2  C4  313 d   1      13.550 -18.427  21.464  0.00  0.00     0.048 C 
ATOM      3  H1  313 d   1      14.398 -19.068  21.181  0.00  0.00     0.064 H 
ATOM      4  H2  313 d   1      12.995 -18.134  20.561  0.00  0.00     0.064 H 
BRANCH   2   5
ATOM      5  C2  313 d   1      14.057 -17.197  22.171  0.00  0.00     0.181 C 
ATOM      6  O3  313 d   1      13.244 -16.519  22.838  0.00  0.00    -0.647 OA
ATOM      7  O1  313 d   1      15.269 -16.915  22.062  0.00  0.00    -0.647 OA
ENDBRANCH   2   5
ENDBRANCH   1   2
BRANCH   1   8
ATOM      8  C7  313 d   1      11.591 -20.299  21.635  0.00  0.00    -0.042 C 
ATOM      9  H3  313 d   1      10.928 -20.842  22.325  0.00  0.00     0.040 H 
ATOM     10  H4  313 d   1      12.228 -21.017  21.097  0.00  0.00     0.040 H 
ATOM     11  H5  313 d   1      10.985 -19.733  20.912  0.00  0.00     0.040 H 
ENDBRANCH   1   8
BRANCH   1  12
ATOM     12  C6  313 d   1      13.493 -20.102  23.558  0.00  0.00    -0.042 C 
ATOM     13  H6  313 d   1      14.124 -19.403  24.127  0.00  0.00     0.040 H 
ATOM     14  H7  313 d   1      14.132 -20.802  23.000  0.00  0.00     0.040 H 
ATOM     15  H8  313 d   1      12.852 -20.665  24.252  0.00  0.00     0.040 H 
ENDBRANCH   1  12
TORSDOF 4
