REMARK  8 active torsions:
REMARK  status: ('A' for Active; 'I' for Inactive)
REMARK    1  A    between atoms: N1_1  and  C2_2 
REMARK    2  A    between atoms: C2_2  and  C3_3 
REMARK    3  A    between atoms: C3_3  and  C4_4 
REMARK    4  A    between atoms: C4_4  and  C5_5 
REMARK       I    between atoms: C5_5  and  N7_7 
REMARK    5  A    between atoms: N7_7  and  C9_8 
REMARK    6  A    between atoms: C12_11  and  O15_14 
REMARK    7  A    between atoms: O15_14  and  C16_15 
REMARK    8  A    between atoms: C16_15  and  C17_16 
ROOT
ATOM      1  C9  4BS d   1       9.334  41.165  66.584  0.00  0.00     0.034 A 
ATOM      2  C10 4BS d   1       9.588  39.784  66.670  0.00  0.00    -0.054 A 
ATOM      3  C11 4BS d   1       8.801  38.975  67.485  0.00  0.00    -0.049 A 
ATOM      4  C12 4BS d   1       7.747  39.543  68.183  0.00  0.00     0.069 A 
ATOM      5  C13 4BS d   1       7.506  40.906  68.096  0.00  0.00    -0.049 A 
ATOM      6  C14 4BS d   1       8.277  41.709  67.287  0.00  0.00    -0.054 A 
ATOM      7  H11 4BS d   1      10.400  39.348  66.099  0.00  0.00     0.087 H 
ATOM      8  H12 4BS d   1       9.010  37.915  67.573  0.00  0.00     0.087 H 
ATOM      9  H13 4BS d   1       6.700  41.344  68.673  0.00  0.00     0.087 H 
ATOM     10  H14 4BS d   1       8.055  42.767  67.202  0.00  0.00     0.087 H 
ENDROOT
BRANCH   1  11
ATOM     11  N7  4BS d   1      10.089  42.037  65.882  0.00  0.00    -0.327 N 
ATOM     12  C5  4BS d   1      11.295  41.749  65.424  0.00  0.00     0.222 C 
ATOM     13  O6  4BS d   1      11.840  40.674  65.591  0.00  0.00    -0.273 OA
ATOM     14  H10 4BS d   1       9.717  42.947  65.699  0.00  0.00     0.169 HD
BRANCH  12  15
ATOM     15  C4  4BS d   1      11.948  42.878  64.680  0.00  0.00     0.011 C 
ATOM     16  H8  4BS d   1      11.433  42.997  63.715  0.00  0.00     0.047 H 
ATOM     17  H9  4BS d   1      11.829  43.796  65.275  0.00  0.00     0.047 H 
BRANCH  15  18
ATOM     18  C3  4BS d   1      13.432  42.679  64.406  0.00  0.00    -0.035 C 
ATOM     19  H6  4BS d   1      13.897  43.668  64.285  0.00  0.00     0.036 H 
ATOM     20  H7  4BS d   1      13.878  42.168  65.272  0.00  0.00     0.036 H 
BRANCH  18  21
ATOM     21  C2  4BS d   1      13.726  41.857  63.162  0.00  0.00     0.080 C 
ATOM     22  H4  4BS d   1      13.104  42.215  62.329  0.00  0.00     0.075 H 
ATOM     23  H5  4BS d   1      14.789  41.959  62.897  0.00  0.00     0.075 H 
BRANCH  21  24
ATOM     24  N1  4BS d   1      13.423  40.457  63.429  0.00  0.00    -0.079 N 
ATOM     25  H1  4BS d   1      13.617  39.908  62.606  0.00  0.00     0.274 HD
ATOM     26  H2  4BS d   1      12.449  40.364  63.673  0.00  0.00     0.274 HD
ATOM     27  H3  4BS d   1      13.993  40.130  64.193  0.00  0.00     0.274 HD
ENDBRANCH  21  24
ENDBRANCH  18  21
ENDBRANCH  15  18
ENDBRANCH  12  15
ENDBRANCH   1  11
BRANCH   4  28
ATOM     28  O15 4BS d   1       6.896  38.852  69.001  0.00  0.00    -0.347 OA
BRANCH  28  29
ATOM     29  C16 4BS d   1       6.917  37.470  69.358  0.00  0.00     0.050 C 
ATOM     30  H15 4BS d   1       7.194  36.912  68.452  0.00  0.00     0.082 H 
ATOM     31  H16 4BS d   1       5.892  37.203  69.654  0.00  0.00     0.082 H 
BRANCH  29  32
ATOM     32  C17 4BS d   1       7.842  36.983  70.478  0.00  0.00    -0.034 A 
ATOM     33  C18 4BS d   1       8.439  37.770  71.479  0.00  0.00    -0.075 A 
ATOM     34  C19 4BS d   1       9.248  37.187  72.451  0.00  0.00    -0.082 A 
ATOM     35  H17 4BS d   1       8.268  38.840  71.494  0.00  0.00     0.084 H 
ATOM     36  C20 4BS d   1       9.465  35.805  72.443  0.00  0.00    -0.083 A 
ATOM     37  H18 4BS d   1       9.710  37.804  73.214  0.00  0.00     0.083 H 
ATOM     38  C21 4BS d   1       8.876  35.022  71.464  0.00  0.00    -0.082 A 
ATOM     39  H19 4BS d   1      10.092  35.349  73.200  0.00  0.00     0.083 H 
ATOM     40  C22 4BS d   1       8.085  35.618  70.501  0.00  0.00    -0.075 A 
ATOM     41  H20 4BS d   1       9.034  33.950  71.454  0.00  0.00     0.083 H 
ATOM     42  H21 4BS d   1       7.638  34.995  69.735  0.00  0.00     0.084 H 
ENDBRANCH  29  32
ENDBRANCH  28  29
ENDBRANCH   4  28
TORSDOF 8
