REMARK  11 active torsions:
REMARK  status: ('A' for Active; 'I' for Inactive)
REMARK    1  A    between atoms: C8_2  and  C7_3 
REMARK       I    between atoms: C8_2  and  N10_10 
REMARK    2  A    between atoms: C7_3  and  C6_4 
REMARK    3  A    between atoms: C6_4  and  C4_5 
REMARK    4  A    between atoms: C4_5  and  N5_6 
REMARK    5  A    between atoms: C4_5  and  C2_7 
REMARK    6  A    between atoms: N10_10  and  C12_11 
REMARK    7  A    between atoms: C15_14  and  O18_17 
REMARK    8  A    between atoms: O18_17  and  C19_18 
REMARK    9  A    between atoms: C19_18  and  C20_19 
REMARK   10  A    between atoms: C20_19  and  O21_20 
REMARK   11  A    between atoms: C20_19  and  C23_21 
ROOT
ATOM      1  C12 4BU d   1       9.549  41.328  66.897  0.00  0.00     0.034 A 
ATOM      2  C13 4BU d   1       8.628  41.902  67.813  0.00  0.00    -0.054 A 
ATOM      3  C14 4BU d   1       7.895  41.073  68.698  0.00  0.00    -0.049 A 
ATOM      4  C15 4BU d   1       8.071  39.669  68.693  0.00  0.00     0.069 A 
ATOM      5  C16 4BU d   1       8.980  39.095  67.783  0.00  0.00    -0.049 A 
ATOM      6  C17 4BU d   1       9.706  39.914  66.898  0.00  0.00    -0.054 A 
ATOM      7  H10 4BU d   1       8.486  42.976  67.835  0.00  0.00     0.087 H 
ATOM      8  H11 4BU d   1       7.189  41.521  69.389  0.00  0.00     0.087 H 
ATOM      9  H12 4BU d   1       9.121  38.020  67.764  0.00  0.00     0.087 H 
ATOM     10  H13 4BU d   1      10.400  39.457  66.202  0.00  0.00     0.087 H 
ENDROOT
BRANCH   1  11
ATOM     11  N10 4BU d   1      10.243  42.160  66.062  0.00  0.00    -0.327 N 
ATOM     12  C8  4BU d   1      11.565  42.071  65.719  0.00  0.00     0.222 C 
ATOM     13  O9  4BU d   1      12.187  40.989  65.876  0.00  0.00    -0.273 OA
ATOM     14  H9  4BU d   1       9.728  42.916  65.658  0.00  0.00     0.169 HD
BRANCH  12  15
ATOM     15  C7  4BU d   1      12.227  43.283  65.148  0.00  0.00     0.012 C 
ATOM     16  H1  4BU d   1      12.050  44.166  65.779  0.00  0.00     0.047 H 
ATOM     17  H2  4BU d   1      11.873  43.485  64.126  0.00  0.00     0.047 H 
BRANCH  15  18
ATOM     18  C6  4BU d   1      13.745  42.879  65.152  0.00  0.00    -0.021 C 
ATOM     19  H3  4BU d   1      13.894  42.273  66.058  0.00  0.00     0.037 H 
ATOM     20  H4  4BU d   1      14.308  43.820  65.243  0.00  0.00     0.037 H 
BRANCH  18  21
ATOM     21  C4  4BU d   1      14.424  42.082  63.984  0.00  0.00     0.183 C 
ATOM     22  H5  4BU d   1      14.391  42.727  63.093  0.00  0.00     0.101 H 
BRANCH  21  23
ATOM     23  N5  4BU d   1      13.719  40.821  63.687  0.00  0.00    -0.065 N 
ATOM     24  H6  4BU d   1      14.188  40.343  62.933  0.00  0.00     0.275 HD
ATOM     25  H7  4BU d   1      12.769  41.023  63.418  0.00  0.00     0.275 HD
ATOM     26  H8  4BU d   1      13.719  40.235  64.507  0.00  0.00     0.275 HD
ENDBRANCH  21  23
BRANCH  21  27
ATOM     27  C2  4BU d   1      15.827  41.697  64.224  0.00  0.00     0.204 C 
ATOM     28  O3  4BU d   1      16.799  42.389  63.872  0.00  0.00    -0.646 OA
ATOM     29  O1  4BU d   1      16.081  40.618  64.799  0.00  0.00    -0.646 OA
ENDBRANCH  21  27
ENDBRANCH  18  21
ENDBRANCH  15  18
ENDBRANCH  12  15
ENDBRANCH   1  11
BRANCH   4  30
ATOM     30  O18 4BU d   1       7.342  38.936  69.582  0.00  0.00    -0.348 OA
BRANCH  30  31
ATOM     31  C19 4BU d   1       7.413  37.558  70.011  0.00  0.00     0.054 C 
ATOM     32  H14 4BU d   1       7.912  36.925  69.263  0.00  0.00     0.079 H 
ATOM     33  H15 4BU d   1       6.416  37.149  70.231  0.00  0.00     0.079 H 
BRANCH  31  34
ATOM     34  C20 4BU d   1       8.274  37.709  71.307  0.00  0.00     0.082 C 
ATOM     35  H16 4BU d   1       9.155  38.309  71.033  0.00  0.00     0.093 H 
BRANCH  34  36
ATOM     36  O21 4BU d   1       7.476  38.490  72.207  0.00  0.00    -0.389 OA
ATOM     37  H17 4BU d   1       7.290  39.334  71.813  0.00  0.00     0.210 HD
ENDBRANCH  34  36
BRANCH  34  38
ATOM     38  C23 4BU d   1       8.825  36.464  71.942  0.00  0.00    -0.028 A 
ATOM     39  C24 4BU d   1       8.658  35.159  71.403  0.00  0.00    -0.074 A 
ATOM     40  C25 4BU d   1       9.226  34.032  72.032  0.00  0.00    -0.082 A 
ATOM     41  H18 4BU d   1       8.084  35.028  70.493  0.00  0.00     0.084 H 
ATOM     42  C26 4BU d   1       9.967  34.196  73.217  0.00  0.00    -0.083 A 
ATOM     43  H19 4BU d   1       9.092  33.045  71.605  0.00  0.00     0.083 H 
ATOM     44  C27 4BU d   1      10.139  35.476  73.782  0.00  0.00    -0.082 A 
ATOM     45  H20 4BU d   1      10.409  33.331  73.699  0.00  0.00     0.083 H 
ATOM     46  C28 4BU d   1       9.578  36.599  73.145  0.00  0.00    -0.074 A 
ATOM     47  H21 4BU d   1      10.700  35.595  74.702  0.00  0.00     0.083 H 
ATOM     48  H22 4BU d   1       9.721  37.583  73.576  0.00  0.00     0.084 H 
ENDBRANCH  34  38
ENDBRANCH  31  34
ENDBRANCH  30  31
ENDBRANCH   4  30
TORSDOF 11
