REMARK  17 active torsions:
REMARK  status: ('A' for Active; 'I' for Inactive)
REMARK    1  A    between atoms: C2_4  and  C7_9 
REMARK    2  A    between atoms: C15_19  and  C4_6 
REMARK    3  A    between atoms: C6_8  and  C14_18 
REMARK       I    between atoms: C7_9  and  N1_10 
REMARK    4  A    between atoms: N1_10  and  C8_12 
REMARK    5  A    between atoms: N1_10  and  C9_13 
REMARK    6  A    between atoms: C8_12  and  C12_16 
REMARK    7  A    between atoms: C9_13  and  C10_14 
REMARK    8  A    between atoms: C10_14  and  C11_15 
REMARK    9  A    between atoms: C12_16  and  C13_17 
REMARK       I    between atoms: N2_21  and  C15_19 
REMARK   10  A    between atoms: C16_22  and  N2_21 
REMARK   11  A    between atoms: C16_22  and  C17_23 
REMARK   12  A    between atoms: C18_25  and  C16_22 
REMARK   13  A    between atoms: C17_23  and  O3_24 
REMARK   14  A    between atoms: C17_23  and  C25_32 
REMARK   15  A    between atoms: C19_26  and  C18_25 
REMARK   16  A    between atoms: C27_34  and  C30_38 
REMARK   17  A    between atoms: C30_38  and  C31_39 
ROOT
ATOM      1  C16 314 d   1      22.652  10.831  23.142  0.00  0.00     0.043 C 
ATOM      2  H22 314 d   1      21.817  11.432  22.752  0.00  0.00     0.077 H 
ENDROOT
BRANCH   1   3
ATOM      3  N2  314 d   1      23.751  11.752  23.481  0.00  0.00    -0.349 N 
ATOM      4  C15 314 d   1      23.500  13.077  23.616  0.00  0.00     0.252 C 
ATOM      5  O2  314 d   1      22.379  13.551  23.484  0.00  0.00    -0.268 OA
ATOM      6  H21 314 d   1      24.678  11.401  23.611  0.00  0.00     0.163 HD
BRANCH   4   7
ATOM      7  C4  314 d   1      24.677  13.893  23.929  0.00  0.00     0.033 A 
ATOM      8  C3  314 d   1      25.971  13.480  23.499  0.00  0.00    -0.052 A 
ATOM      9  C2  314 d   1      27.119  14.285  23.790  0.00  0.00     0.033 A 
ATOM     10  H2  314 d   1      26.087  12.553  22.949  0.00  0.00     0.086 H 
ATOM     11  C1  314 d   1      26.967  15.497  24.522  0.00  0.00    -0.062 A 
ATOM     12  C6  314 d   1      25.676  15.911  24.952  0.00  0.00    -0.060 A 
ATOM     13  H1  314 d   1      27.835  16.104  24.752  0.00  0.00     0.085 H 
ATOM     14  C5  314 d   1      24.528  15.113  24.656  0.00  0.00    -0.062 A 
ATOM     15  H3  314 d   1      23.545  15.433  24.983  0.00  0.00     0.085 H 
BRANCH   9  16
ATOM     16  C7  314 d   1      28.454  13.848  23.373  0.00  0.00     0.253 C 
ATOM     17  N1  314 d   1      28.700  13.642  22.044  0.00  0.00    -0.348 N 
ATOM     18  O1  314 d   1      29.331  13.656  24.209  0.00  0.00    -0.267 OA
BRANCH  17  19
ATOM     19  C8  314 d   1      30.044  13.190  21.700  0.00  0.00    -0.002 C 
ATOM     20  H4  314 d   1      30.688  13.260  22.589  0.00  0.00     0.064 H 
ATOM     21  H5  314 d   1      30.448  13.830  20.902  0.00  0.00     0.064 H 
BRANCH  19  22
ATOM     22  C12 314 d   1      30.012  11.718  21.207  0.00  0.00    -0.053 C 
ATOM     23  H13 314 d   1      31.046  11.345  21.164  0.00  0.00     0.034 H 
ATOM     24  H14 314 d   1      29.573  11.700  20.199  0.00  0.00     0.034 H 
BRANCH  22  25
ATOM     25  C13 314 d   1      29.193  10.776  22.110  0.00  0.00    -0.075 C 
ATOM     26  H15 314 d   1      29.219   9.757  21.696  0.00  0.00     0.027 H 
ATOM     27  H16 314 d   1      28.151  11.127  22.157  0.00  0.00     0.027 H 
ATOM     28  H17 314 d   1      29.624  10.771  23.122  0.00  0.00     0.027 H 
ENDBRANCH  22  25
ENDBRANCH  19  22
ENDBRANCH  17  19
BRANCH  17  29
ATOM     29  C9  314 d   1      27.722  13.851  20.975  0.00  0.00    -0.002 C 
ATOM     30  H6  314 d   1      26.765  14.173  21.412  0.00  0.00     0.064 H 
ATOM     31  H7  314 d   1      27.575  12.910  20.425  0.00  0.00     0.064 H 
BRANCH  29  32
ATOM     32  C10 314 d   1      28.229  14.926  20.016  0.00  0.00    -0.053 C 
ATOM     33  H8  314 d   1      27.394  15.255  19.380  0.00  0.00     0.034 H 
ATOM     34  H9  314 d   1      29.021  14.494  19.387  0.00  0.00     0.034 H 
BRANCH  32  35
ATOM     35  C11 314 d   1      28.794  16.139  20.752  0.00  0.00    -0.075 C 
ATOM     36  H10 314 d   1      29.145  16.881  20.020  0.00  0.00     0.027 H 
ATOM     37  H11 314 d   1      29.636  15.824  21.386  0.00  0.00     0.027 H 
ATOM     38  H12 314 d   1      28.009  16.585  21.380  0.00  0.00     0.027 H 
ENDBRANCH  32  35
ENDBRANCH  29  32
ENDBRANCH  17  29
ENDBRANCH   9  16
BRANCH  12  39
ATOM     39  C14 314 d   1      25.526  17.170  25.704  0.00  0.00    -0.051 C 
ATOM     40  H18 314 d   1      26.512  17.640  25.833  0.00  0.00     0.033 H 
ATOM     41  H19 314 d   1      25.089  16.958  26.691  0.00  0.00     0.033 H 
ATOM     42  H20 314 d   1      24.865  17.852  25.149  0.00  0.00     0.033 H 
ENDBRANCH  12  39
ENDBRANCH   4   7
ENDBRANCH   1   3
BRANCH   1  43
ATOM     43  C17 314 d   1      22.125  10.029  24.354  0.00  0.00     0.083 C 
ATOM     44  H23 314 d   1      22.980   9.540  24.844  0.00  0.00     0.089 H 
BRANCH  43  45
ATOM     45  O3  314 d   1      21.203   9.031  23.891  0.00  0.00    -0.391 OA
ATOM     46  H24 314 d   1      21.647   8.446  23.289  0.00  0.00     0.210 HD
ENDBRANCH  43  45
BRANCH  43  47
ATOM     47  C25 314 d   1      21.397  10.894  25.390  0.00  0.00     0.128 C 
ATOM     48  C26 314 d   1      20.098  11.499  24.821  0.00  0.00    -0.032 C 
ATOM     49  C27 314 d   1      19.270  12.192  25.906  0.00  0.00    -0.047 C 
ATOM     50  H31 314 d   1      19.496  10.694  24.374  0.00  0.00     0.036 H 
ATOM     51  H32 314 d   1      20.358  12.236  24.047  0.00  0.00     0.036 H 
ATOM     52  C28 314 d   1      19.135  11.315  27.153  0.00  0.00    -0.039 C 
ATOM     53  H33 314 d   1      19.844  13.078  26.215  0.00  0.00     0.040 H 
ATOM     54  C29 314 d   1      20.475  10.801  27.643  0.00  0.00     0.083 C 
ATOM     55  H34 314 d   1      18.493  10.455  26.913  0.00  0.00     0.035 H 
ATOM     56  H35 314 d   1      18.669  11.908  27.954  0.00  0.00     0.035 H 
ATOM     57  N3  314 d   1      21.101  10.031  26.556  0.00  0.00    -0.068 N 
ATOM     58  H36 314 d   1      20.327  10.153  28.520  0.00  0.00     0.075 H 
ATOM     59  H37 314 d   1      21.120  11.648  27.918  0.00  0.00     0.075 H 
ATOM     60  H38 314 d   1      21.961   9.627  26.892  0.00  0.00     0.277 HD
ATOM     61  H39 314 d   1      20.473   9.296  26.270  0.00  0.00     0.277 HD
ATOM     62  H30 314 d   1      22.058  11.716  25.702  0.00  0.00     0.088 H 
BRANCH  49  63
ATOM     63  C30 314 d   1      17.918  12.726  25.374  0.00  0.00    -0.037 C 
ATOM     64  H40 314 d   1      18.094  13.284  24.442  0.00  0.00     0.040 H 
ATOM     65  H41 314 d   1      17.476  13.397  26.125  0.00  0.00     0.040 H 
BRANCH  63  66
ATOM     66  C31 314 d   1      16.952  11.590  25.096  0.00  0.00    -0.058 A 
ATOM     67  C32 314 d   1      16.049  11.157  26.112  0.00  0.00    -0.077 A 
ATOM     68  C33 314 d   1      15.137  10.088  25.854  0.00  0.00    -0.082 A 
ATOM     69  H42 314 d   1      16.055  11.640  27.082  0.00  0.00     0.084 H 
ATOM     70  C34 314 d   1      15.131   9.454  24.578  0.00  0.00    -0.083 A 
ATOM     71  H43 314 d   1      14.451   9.760  26.627  0.00  0.00     0.083 H 
ATOM     72  C35 314 d   1      16.033   9.890  23.565  0.00  0.00    -0.082 A 
ATOM     73  H44 314 d   1      14.442   8.642  24.378  0.00  0.00     0.083 H 
ATOM     74  C36 314 d   1      16.942  10.956  23.821  0.00  0.00    -0.077 A 
ATOM     75  H45 314 d   1      16.027   9.408  22.594  0.00  0.00     0.083 H 
ATOM     76  H46 314 d   1      17.625  11.284  23.046  0.00  0.00     0.084 H 
ENDBRANCH  63  66
ENDBRANCH  49  63
ENDBRANCH  43  47
ENDBRANCH   1  43
BRANCH   1  77
ATOM     77  C18 314 d   1      23.123   9.871  22.033  0.00  0.00    -0.020 C 
ATOM     78  H25 314 d   1      22.254   9.333  21.626  0.00  0.00     0.043 H 
ATOM     79  H26 314 d   1      23.835   9.148  22.458  0.00  0.00     0.043 H 
BRANCH  77  80
ATOM     80  C19 314 d   1      23.800  10.642  20.917  0.00  0.00    -0.050 A 
ATOM     81  C20 314 d   1      25.144  10.341  20.550  0.00  0.00    -0.039 A 
ATOM     82  C21 314 d   1      25.774  11.072  19.494  0.00  0.00     0.119 A 
ATOM     83  H27 314 d   1      25.687   9.560  21.070  0.00  0.00     0.089 H 
ATOM     84  F1  314 d   1      27.026  10.808  19.137  0.00  0.00    -0.206 F 
ATOM     85  C22 314 d   1      25.068  12.095  18.812  0.00  0.00    -0.009 A 
ATOM     86  C23 314 d   1      23.733  12.395  19.177  0.00  0.00     0.119 A 
ATOM     87  H28 314 d   1      25.549  12.647  18.012  0.00  0.00     0.092 H 
ATOM     88  F2  314 d   1      23.083  13.359  18.530  0.00  0.00    -0.206 F 
ATOM     89  C24 314 d   1      23.094  11.675  20.224  0.00  0.00    -0.039 A 
ATOM     90  H29 314 d   1      22.071  11.909  20.497  0.00  0.00     0.089 H 
ENDBRANCH  77  80
ENDBRANCH   1  77
TORSDOF 17
