REMARK  17 active torsions:
REMARK  status: ('A' for Active; 'I' for Inactive)
REMARK    1  A    between atoms: C2_2  and  C7_7 
REMARK    2  A    between atoms: C4_4  and  C15_17 
REMARK    3  A    between atoms: C6_6  and  C14_16 
REMARK       I    between atoms: C7_7  and  N1_8 
REMARK    4  A    between atoms: N1_8  and  C8_10 
REMARK    5  A    between atoms: N1_8  and  C9_11 
REMARK    6  A    between atoms: C8_10  and  C12_14 
REMARK    7  A    between atoms: C9_11  and  C10_12 
REMARK    8  A    between atoms: C10_12  and  C11_13 
REMARK    9  A    between atoms: C12_14  and  C13_15 
REMARK       I    between atoms: C15_17  and  N2_19 
REMARK   10  A    between atoms: N2_19  and  C16_20 
REMARK   11  A    between atoms: C16_20  and  C17_21 
REMARK   12  A    between atoms: C16_20  and  C18_23 
REMARK   13  A    between atoms: C17_21  and  O3_22 
REMARK   14  A    between atoms: C17_21  and  C25_32 
REMARK   15  A    between atoms: C18_23  and  C19_24 
REMARK   16  A    between atoms: N4_34  and  C27_39 
REMARK   17  A    between atoms: C27_39  and  C31_40 
ROOT
ATOM      1  C16 316 d   1      22.568  11.022  23.004  0.00  0.00     0.043 C 
ATOM      2  H22 316 d   1      21.747  11.666  22.656  0.00  0.00     0.077 H 
ENDROOT
BRANCH   1   3
ATOM      3  N2  316 d   1      23.707  11.888  23.354  0.00  0.00    -0.349 N 
ATOM      4  C15 316 d   1      23.537  13.236  23.349  0.00  0.00     0.252 C 
ATOM      5  O2  316 d   1      22.467  13.761  23.078  0.00  0.00    -0.268 OA
ATOM      6  H21 316 d   1      24.593  11.489  23.592  0.00  0.00     0.163 HD
BRANCH   4   7
ATOM      7  C4  316 d   1      24.730  14.016  23.684  0.00  0.00     0.033 A 
ATOM      8  C3  316 d   1      26.017  13.565  23.274  0.00  0.00    -0.052 A 
ATOM      9  C2  316 d   1      27.180  14.339  23.583  0.00  0.00     0.033 A 
ATOM     10  H2  316 d   1      26.116  12.634  22.727  0.00  0.00     0.086 H 
ATOM     11  C1  316 d   1      27.046  15.556  24.308  0.00  0.00    -0.062 A 
ATOM     12  C6  316 d   1      25.763  16.010  24.716  0.00  0.00    -0.060 A 
ATOM     13  H1  316 d   1      27.927  16.140  24.550  0.00  0.00     0.085 H 
ATOM     14  C5  316 d   1      24.601  15.242  24.403  0.00  0.00    -0.062 A 
ATOM     15  H3  316 d   1      23.622  15.590  24.711  0.00  0.00     0.085 H 
BRANCH   9  16
ATOM     16  C7  316 d   1      28.515  13.871  23.184  0.00  0.00     0.253 C 
ATOM     17  N1  316 d   1      28.756  13.649  21.854  0.00  0.00    -0.348 N 
ATOM     18  O1  316 d   1      29.393  13.674  24.020  0.00  0.00    -0.267 OA
BRANCH  17  19
ATOM     19  C8  316 d   1      30.087  13.176  21.497  0.00  0.00    -0.002 C 
ATOM     20  H4  316 d   1      30.746  13.258  22.374  0.00  0.00     0.064 H 
ATOM     21  H5  316 d   1      30.483  13.798  20.681  0.00  0.00     0.064 H 
BRANCH  19  22
ATOM     22  C12 316 d   1      30.043  11.703  21.034  0.00  0.00    -0.053 C 
ATOM     23  H13 316 d   1      31.073  11.319  20.997  0.00  0.00     0.034 H 
ATOM     24  H14 316 d   1      29.602  11.668  20.027  0.00  0.00     0.034 H 
BRANCH  22  25
ATOM     25  C13 316 d   1      29.220  10.797  21.956  0.00  0.00    -0.075 C 
ATOM     26  H15 316 d   1      29.233   9.768  21.566  0.00  0.00     0.027 H 
ATOM     27  H16 316 d   1      28.183  11.161  21.997  0.00  0.00     0.027 H 
ATOM     28  H17 316 d   1      29.654  10.812  22.967  0.00  0.00     0.027 H 
ENDBRANCH  22  25
ENDBRANCH  19  22
ENDBRANCH  17  19
BRANCH  17  29
ATOM     29  C9  316 d   1      27.774  13.865  20.789  0.00  0.00    -0.002 C 
ATOM     30  H6  316 d   1      26.841  14.252  21.224  0.00  0.00     0.064 H 
ATOM     31  H7  316 d   1      27.572  12.912  20.278  0.00  0.00     0.064 H 
BRANCH  29  32
ATOM     32  C10 316 d   1      28.322  14.873  19.784  0.00  0.00    -0.053 C 
ATOM     33  H8  316 d   1      27.508  15.182  19.112  0.00  0.00     0.034 H 
ATOM     34  H9  316 d   1      29.119  14.393  19.198  0.00  0.00     0.034 H 
BRANCH  32  35
ATOM     35  C11 316 d   1      28.895  16.117  20.472  0.00  0.00    -0.075 C 
ATOM     36  H10 316 d   1      29.277  16.814  19.711  0.00  0.00     0.027 H 
ATOM     37  H11 316 d   1      29.715  15.820  21.142  0.00  0.00     0.027 H 
ATOM     38  H12 316 d   1      28.104  16.610  21.056  0.00  0.00     0.027 H 
ENDBRANCH  32  35
ENDBRANCH  29  32
ENDBRANCH  17  29
ENDBRANCH   9  16
BRANCH  12  39
ATOM     39  C14 316 d   1      25.636  17.273  25.462  0.00  0.00    -0.051 C 
ATOM     40  H18 316 d   1      26.633  17.716  25.605  0.00  0.00     0.033 H 
ATOM     41  H19 316 d   1      25.178  17.075  26.442  0.00  0.00     0.033 H 
ATOM     42  H20 316 d   1      25.003  17.971  24.895  0.00  0.00     0.033 H 
ENDBRANCH  12  39
ENDBRANCH   4   7
ENDBRANCH   1   3
BRANCH   1  43
ATOM     43  C17 316 d   1      22.043  10.176  24.204  0.00  0.00     0.091 C 
ATOM     44  H23 316 d   1      22.890   9.598  24.603  0.00  0.00     0.090 H 
BRANCH  43  45
ATOM     45  O3  316 d   1      21.035   9.269  23.736  0.00  0.00    -0.391 OA
ATOM     46  H24 316 d   1      21.409   8.694  23.079  0.00  0.00     0.210 HD
ENDBRANCH  43  45
BRANCH  43  47
ATOM     47  C25 316 d   1      21.445  10.997  25.354  0.00  0.00     0.204 C 
ATOM     48  C26 316 d   1      20.143  11.717  24.936  0.00  0.00     0.253 C 
ATOM     49  N4  316 d   1      19.101  11.642  25.812  0.00  0.00    -0.344 N 
ATOM     50  O4  316 d   1      20.078  12.317  23.870  0.00  0.00    -0.271 OA
ATOM     51  C28 316 d   1      19.091  10.939  27.104  0.00  0.00     0.020 C 
ATOM     52  C29 316 d   1      20.461  10.580  27.599  0.00  0.00     0.097 C 
ATOM     53  H31 316 d   1      18.507  10.013  26.993  0.00  0.00     0.067 H 
ATOM     54  H32 316 d   1      18.610  11.588  27.850  0.00  0.00     0.067 H 
ATOM     55  N3  316 d   1      21.278  10.118  26.499  0.00  0.00    -0.058 N 
ATOM     56  H33 316 d   1      20.379   9.782  28.352  0.00  0.00     0.078 H 
ATOM     57  H34 316 d   1      20.928  11.466  28.053  0.00  0.00     0.078 H 
ATOM     58  H35 316 d   1      22.197   9.929  26.868  0.00  0.00     0.278 HD
ATOM     59  H36 316 d   1      20.868   9.261  26.161  0.00  0.00     0.278 HD
ATOM     60  H30 316 d   1      22.170  11.776  25.631  0.00  0.00     0.103 H 
BRANCH  49  61
ATOM     61  C27 316 d   1      17.842  12.304  25.463  0.00  0.00     0.021 C 
ATOM     62  H37 316 d   1      18.009  12.969  24.603  0.00  0.00     0.071 H 
ATOM     63  H38 316 d   1      17.495  12.896  26.322  0.00  0.00     0.071 H 
BRANCH  61  64
ATOM     64  C31 316 d   1      16.786  11.283  25.104  0.00  0.00    -0.040 A 
ATOM     65  C32 316 d   1      16.947  10.467  23.947  0.00  0.00    -0.075 A 
ATOM     66  C33 316 d   1      15.954   9.503  23.612  0.00  0.00    -0.082 A 
ATOM     67  H39 316 d   1      17.825  10.580  23.322  0.00  0.00     0.084 H 
ATOM     68  C34 316 d   1      14.800   9.356  24.434  0.00  0.00    -0.083 A 
ATOM     69  H40 316 d   1      16.076   8.882  22.732  0.00  0.00     0.083 H 
ATOM     70  C35 316 d   1      14.638  10.173  25.594  0.00  0.00    -0.082 A 
ATOM     71  H41 316 d   1      14.043   8.623  24.179  0.00  0.00     0.083 H 
ATOM     72  C36 316 d   1      15.632  11.137  25.927  0.00  0.00    -0.075 A 
ATOM     73  H42 316 d   1      13.760  10.060  26.220  0.00  0.00     0.083 H 
ATOM     74  H43 316 d   1      15.511  11.759  26.806  0.00  0.00     0.084 H 
ENDBRANCH  61  64
ENDBRANCH  49  61
ENDBRANCH  43  47
ENDBRANCH   1  43
BRANCH   1  75
ATOM     75  C18 316 d   1      22.974  10.080  21.866  0.00  0.00    -0.020 C 
ATOM     76  H25 316 d   1      22.072   9.594  21.466  0.00  0.00     0.043 H 
ATOM     77  H26 316 d   1      23.657   9.315  22.263  0.00  0.00     0.043 H 
BRANCH  75  78
ATOM     78  C19 316 d   1      23.668  10.825  20.747  0.00  0.00    -0.050 A 
ATOM     79  C20 316 d   1      22.977  11.845  20.028  0.00  0.00    -0.039 A 
ATOM     80  C21 316 d   1      23.638  12.539  18.974  0.00  0.00     0.119 A 
ATOM     81  H27 316 d   1      21.953  12.091  20.283  0.00  0.00     0.089 H 
ATOM     82  C22 316 d   1      24.980  12.218  18.635  0.00  0.00    -0.009 A 
ATOM     83  F1  316 d   1      23.006  13.493  18.295  0.00  0.00    -0.206 F 
ATOM     84  C23 316 d   1      25.669  11.205  19.347  0.00  0.00     0.119 A 
ATOM     85  H28 316 d   1      25.477  12.748  17.831  0.00  0.00     0.092 H 
ATOM     86  C24 316 d   1      25.018  10.504  20.406  0.00  0.00    -0.039 A 
ATOM     87  F2  316 d   1      26.927  10.915  19.019  0.00  0.00    -0.206 F 
ATOM     88  H29 316 d   1      25.546   9.730  20.951  0.00  0.00     0.089 H 
ENDBRANCH  75  78
ENDBRANCH   1  75
TORSDOF 17
