REMARK  17 active torsions:
REMARK  status: ('A' for Active; 'I' for Inactive)
REMARK    1  A    between atoms: C1_4  and  N1_3 
REMARK       I    between atoms: N1_3  and  C7_13 
REMARK    2  A    between atoms: C1_4  and  C2_5 
REMARK    3  A    between atoms: C6_12  and  C1_4 
REMARK    4  A    between atoms: C2_5  and  O1_6 
REMARK    5  A    between atoms: C2_5  and  C3_7 
REMARK    6  A    between atoms: N3_10  and  C8_15 
REMARK    7  A    between atoms: C15_22  and  C6_12 
REMARK    8  A    between atoms: C7_13  and  C21_29 
REMARK    9  A    between atoms: C8_15  and  C9_16 
REMARK   10  A    between atoms: C23_31  and  C28_36 
REMARK   11  A    between atoms: C25_33  and  C27_35 
REMARK       I    between atoms: C28_36  and  N4_38 
REMARK   12  A    between atoms: N4_38  and  C29_39 
REMARK   13  A    between atoms: N4_38  and  C32_42 
REMARK   14  A    between atoms: C29_39  and  C30_40 
REMARK   15  A    between atoms: C30_40  and  C31_41 
REMARK   16  A    between atoms: C32_42  and  C33_43 
REMARK   17  A    between atoms: C33_43  and  C34_44 
ROOT
ATOM      1  C1  318 d   1      22.446  11.020  23.013  0.00  0.00     0.043 C 
ATOM      2  H2  318 d   1      21.603  11.664  22.723  0.00  0.00     0.077 H 
ENDROOT
BRANCH   1   3
ATOM      3  N1  318 d   1      23.591  11.897  23.332  0.00  0.00    -0.349 N 
ATOM      4  C7  318 d   1      23.353  13.224  23.445  0.00  0.00     0.252 C 
ATOM      5  O3  318 d   1      22.230  13.697  23.294  0.00  0.00    -0.268 OA
ATOM      6  H1  318 d   1      24.510  11.523  23.460  0.00  0.00     0.163 HD
BRANCH   4   7
ATOM      7  C21 318 d   1      24.528  14.047  23.752  0.00  0.00     0.033 A 
ATOM      8  C22 318 d   1      25.821  13.618  23.341  0.00  0.00    -0.052 A 
ATOM      9  C23 318 d   1      26.966  14.426  23.626  0.00  0.00     0.033 A 
ATOM     10  H22 318 d   1      25.938  12.679  22.812  0.00  0.00     0.086 H 
ATOM     11  C24 318 d   1      26.806  15.663  24.332  0.00  0.00    -0.062 A 
ATOM     12  C25 318 d   1      25.509  16.094  24.743  0.00  0.00    -0.060 A 
ATOM     13  H23 318 d   1      27.674  16.274  24.555  0.00  0.00     0.085 H 
ATOM     14  C26 318 d   1      24.368  15.289  24.453  0.00  0.00    -0.062 A 
ATOM     15  H24 318 d   1      23.381  15.615  24.762  0.00  0.00     0.085 H 
BRANCH   9  16
ATOM     16  C28 318 d   1      28.312  13.981  23.214  0.00  0.00     0.253 C 
ATOM     17  O4  318 d   1      29.197  13.776  24.039  0.00  0.00    -0.267 OA
ATOM     18  N4  318 d   1      28.549  13.795  21.873  0.00  0.00    -0.348 N 
BRANCH  18  19
ATOM     19  C29 318 d   1      29.882  13.351  21.502  0.00  0.00    -0.002 C 
ATOM     20  H28 318 d   1      30.550  13.457  22.369  0.00  0.00     0.064 H 
ATOM     21  H29 318 d   1      30.252  13.976  20.676  0.00  0.00     0.064 H 
BRANCH  19  22
ATOM     22  C30 318 d   1      29.870  11.879  21.053  0.00  0.00    -0.053 C 
ATOM     23  H30 318 d   1      30.912  11.543  20.942  0.00  0.00     0.034 H 
ATOM     24  H31 318 d   1      29.360  11.818  20.080  0.00  0.00     0.034 H 
BRANCH  22  25
ATOM     25  C31 318 d   1      29.149  10.920  22.044  0.00  0.00    -0.075 C 
ATOM     26  H32 318 d   1      29.184   9.893  21.652  0.00  0.00     0.027 H 
ATOM     27  H33 318 d   1      28.101  11.232  22.159  0.00  0.00     0.027 H 
ATOM     28  H34 318 d   1      29.652  10.957  23.021  0.00  0.00     0.027 H 
ENDBRANCH  22  25
ENDBRANCH  19  22
ENDBRANCH  18  19
BRANCH  18  29
ATOM     29  C32 318 d   1      27.568  14.020  20.818  0.00  0.00    -0.002 C 
ATOM     30  H35 318 d   1      26.658  14.461  21.250  0.00  0.00     0.064 H 
ATOM     31  H36 318 d   1      27.319  13.062  20.337  0.00  0.00     0.064 H 
BRANCH  29  32
ATOM     32  C33 318 d   1      28.152  14.972  19.784  0.00  0.00    -0.053 C 
ATOM     33  H37 318 d   1      27.364  15.248  19.068  0.00  0.00     0.034 H 
ATOM     34  H38 318 d   1      28.969  14.463  19.252  0.00  0.00     0.034 H 
BRANCH  32  35
ATOM     35  C34 318 d   1      28.706  16.258  20.442  0.00  0.00    -0.075 C 
ATOM     36  H39 318 d   1      29.118  16.919  19.665  0.00  0.00     0.027 H 
ATOM     37  H40 318 d   1      29.499  15.992  21.156  0.00  0.00     0.027 H 
ATOM     38  H41 318 d   1      27.894  16.777  20.973  0.00  0.00     0.027 H 
ENDBRANCH  32  35
ENDBRANCH  29  32
ENDBRANCH  18  29
ENDBRANCH   9  16
BRANCH  12  39
ATOM     39  C27 318 d   1      25.346  17.368  25.464  0.00  0.00    -0.051 C 
ATOM     40  H25 318 d   1      26.329  17.844  25.594  0.00  0.00     0.033 H 
ATOM     41  H26 318 d   1      24.898  17.177  26.450  0.00  0.00     0.033 H 
ATOM     42  H27 318 d   1      24.689  18.035  24.886  0.00  0.00     0.033 H 
ENDBRANCH  12  39
ENDBRANCH   4   7
ENDBRANCH   1   3
BRANCH   1  43
ATOM     43  C2  318 d   1      21.988  10.161  24.236  0.00  0.00     0.091 C 
ATOM     44  H3  318 d   1      22.852   9.595  24.614  0.00  0.00     0.090 H 
BRANCH  43  45
ATOM     45  O1  318 d   1      20.967   9.244  23.811  0.00  0.00    -0.391 OA
ATOM     46  H4  318 d   1      21.315   8.676  23.134  0.00  0.00     0.210 HD
ENDBRANCH  43  45
BRANCH  43  47
ATOM     47  C3  318 d   1      21.430  11.040  25.378  0.00  0.00     0.206 C 
ATOM     48  N2  318 d   1      21.199  10.200  26.580  0.00  0.00    -0.044 N 
ATOM     49  C4  318 d   1      19.895  10.662  27.128  0.00  0.00     0.144 C 
ATOM     50  H6  318 d   1      21.935  10.337  27.255  0.00  0.00     0.280 HD
ATOM     51  H7  318 d   1      21.152   9.225  26.327  0.00  0.00     0.280 HD
ATOM     52  N3  318 d   1      19.283  11.457  26.069  0.00  0.00    -0.322 N 
ATOM     53  H8  318 d   1      20.052  11.276  28.027  0.00  0.00     0.108 H 
ATOM     54  H9  318 d   1      19.258   9.801  27.379  0.00  0.00     0.108 H 
ATOM     55  C5  318 d   1      20.101  11.702  25.045  0.00  0.00     0.255 C 
ATOM     56  O2  318 d   1      19.856  12.342  24.023  0.00  0.00    -0.271 OA
ATOM     57  H5  318 d   1      22.170  11.821  25.607  0.00  0.00     0.103 H 
BRANCH  52  58
ATOM     58  C8  318 d   1      17.894  11.902  26.205  0.00  0.00     0.023 C 
ATOM     59  H12 318 d   1      17.866  12.996  26.091  0.00  0.00     0.071 H 
ATOM     60  H13 318 d   1      17.537  11.629  27.209  0.00  0.00     0.071 H 
BRANCH  58  61
ATOM     61  C9  318 d   1      16.964  11.290  25.184  0.00  0.00    -0.040 A 
ATOM     62  C10 318 d   1      16.209  12.136  24.319  0.00  0.00    -0.075 A 
ATOM     63  C11 318 d   1      15.326  11.566  23.353  0.00  0.00    -0.082 A 
ATOM     64  H14 318 d   1      16.306  13.213  24.395  0.00  0.00     0.084 H 
ATOM     65  C12 318 d   1      15.197  10.150  23.254  0.00  0.00    -0.083 A 
ATOM     66  H15 318 d   1      14.754  12.210  22.695  0.00  0.00     0.083 H 
ATOM     67  C13 318 d   1      15.951   9.302  24.119  0.00  0.00    -0.082 A 
ATOM     68  H16 318 d   1      14.526   9.717  22.521  0.00  0.00     0.083 H 
ATOM     69  C14 318 d   1      16.835   9.873  25.084  0.00  0.00    -0.075 A 
ATOM     70  H17 318 d   1      15.853   8.225  24.044  0.00  0.00     0.083 H 
ATOM     71  H18 318 d   1      17.409   9.229  25.741  0.00  0.00     0.084 H 
ENDBRANCH  58  61
ENDBRANCH  52  58
ENDBRANCH  43  47
ENDBRANCH   1  43
BRANCH   1  72
ATOM     72  C6  318 d   1      22.783  10.115  21.829  0.00  0.00    -0.020 C 
ATOM     73  H10 318 d   1      21.853   9.680  21.435  0.00  0.00     0.043 H 
ATOM     74  H11 318 d   1      23.448   9.309  22.172  0.00  0.00     0.043 H 
BRANCH  72  75
ATOM     75  C15 318 d   1      23.473  10.886  20.725  0.00  0.00    -0.050 A 
ATOM     76  C16 318 d   1      22.779  11.918  20.030  0.00  0.00    -0.039 A 
ATOM     77  C17 318 d   1      23.436  12.633  18.990  0.00  0.00     0.119 A 
ATOM     78  H19 318 d   1      21.755  12.158  20.292  0.00  0.00     0.089 H 
ATOM     79  F2  318 d   1      22.801  13.599  18.332  0.00  0.00    -0.206 F 
ATOM     80  C18 318 d   1      24.777  12.322  18.643  0.00  0.00    -0.009 A 
ATOM     81  C19 318 d   1      25.467  11.294  19.334  0.00  0.00     0.119 A 
ATOM     82  H20 318 d   1      25.273  12.870  17.850  0.00  0.00     0.092 H 
ATOM     83  F1  318 d   1      26.727  11.010  18.999  0.00  0.00    -0.206 F 
ATOM     84  C20 318 d   1      24.820  10.573  20.378  0.00  0.00    -0.039 A 
ATOM     85  H21 318 d   1      25.350   9.789  20.907  0.00  0.00     0.089 H 
ENDBRANCH  72  75
ENDBRANCH   1  72
TORSDOF 17
