REMARK WARNING: 32 MAX_TORS EXCEEDED!!!
REMARK  42 active torsions:
REMARK  status: ('A' for Active; 'I' for Inactive)
REMARK    1  A    between atoms: N_1  and  CA_2 
REMARK    2  A    between atoms: CA_2  and  C_3 
REMARK    3  A    between atoms: CA_2  and  CB_5 
REMARK       I    between atoms: C_3  and  N_8 
REMARK    4  A    between atoms: CB_5  and  CG1_6 
REMARK    5  A    between atoms: CB_5  and  CG2_7 
REMARK    6  A    between atoms: N_8  and  CA_9 
REMARK    7  A    between atoms: CA_9  and  C_10 
REMARK    8  A    between atoms: CA_9  and  CB_12 
REMARK       I    between atoms: C_10  and  N_16 
REMARK    9  A    between atoms: CB_12  and  CG_13 
REMARK   10  A    between atoms: CG_13  and  SD_14 
REMARK   11  A    between atoms: SD_14  and  CE_15 
REMARK   12  A    between atoms: N_16  and  CA_17 
REMARK   13  A    between atoms: CA_17  and  C_18 
REMARK   14  A    between atoms: CA_17  and  CB_20 
REMARK       I    between atoms: C_18  and  N_21 
REMARK   15  A    between atoms: CA_22  and  C_23 
REMARK       I    between atoms: C_23  and  N_28 
REMARK   16  A    between atoms: N_28  and  CA_29 
REMARK   17  A    between atoms: CA_29  and  C_30 
REMARK   18  A    between atoms: CA_29  and  CB_32 
REMARK       I    between atoms: C_30  and  N_39 
REMARK   19  A    between atoms: CB_32  and  CG_33 
REMARK   20  A    between atoms: CG_33  and  CD_34 
REMARK   21  A    between atoms: CD_34  and  NE_35 
REMARK       I    between atoms: NE_35  and  CZ_36 
REMARK       I    between atoms: CZ_36  and  NH1_37 
REMARK   22  A    between atoms: N_39  and  CA_40 
REMARK   23  A    between atoms: CA_40  and  C_41 
REMARK   24  A    between atoms: CA_40  and  CB_43 
REMARK       I    between atoms: C_41  and  N_46 
REMARK   25  A    between atoms: CB_43  and  OG1_44 
REMARK   26  A    between atoms: CB_43  and  CG2_45 
REMARK   27  A    between atoms: N_46  and  CA_47 
REMARK   28  A    between atoms: CA_47  and  C_48 
REMARK   29  A    between atoms: CA_47  and  CB_50 
REMARK       I    between atoms: C_48  and  N_54 
REMARK   30  A    between atoms: CB_50  and  CG_51 
REMARK   31  A    between atoms: CG_51  and  CD1_52 
REMARK   32  A    between atoms: CG_51  and  CD2_53 
REMARK   33  A    between atoms: N_54  and  CA_55 
REMARK   34  A    between atoms: CA_55  and  C_56 
REMARK   35  A    between atoms: CA_55  and  CB_58 
REMARK       I    between atoms: C_56  and  N_65 
REMARK   36  A    between atoms: CB_58  and  CG_59 
REMARK   37  A    between atoms: N_65  and  CA_66 
REMARK   38  A    between atoms: CA_66  and  C_67 
REMARK   39  A    between atoms: CA_66  and  CB_69 
REMARK   40  A    between atoms: CB_69  and  CG_70 
REMARK   41  A    between atoms: CG_70  and  CD1_71 
REMARK   42  A    between atoms: CG_70  and  CD2_72 
ROOT
ATOM      1  CA  ARG d   1    -133.995 157.531-149.334  0.00  0.00     0.089 C 
ATOM      2  H34 ARG d   1    -134.014 158.516-149.822  0.00  0.00     0.087 H 
ENDROOT
BRANCH   1   3
ATOM      3  N   ARG d   1    -133.214 157.627-148.103  0.00  0.00    -0.346 N 
ATOM      4  C   PRO d   1    -132.028 158.244-148.072  0.00  0.00     0.241 C 
ATOM      5  O   PRO d   1    -131.637 158.992-148.976  0.00  0.00    -0.271 OA
ATOM      6  H33 ARG d   1    -133.575 157.221-147.263  0.00  0.00     0.163 HD
BRANCH   4   7
ATOM      7  CA  PRO d   1    -131.136 158.021-146.836  0.00  0.00     0.091 C 
ATOM      8  N   PRO d   1    -131.681 157.078-145.863  0.00  0.00    -0.337 N 
ATOM      9  C   ALA d   1    -132.695 157.454-145.061  0.00  0.00     0.243 C 
ATOM     10  CD  PRO d   1    -131.001 155.765-145.919  0.00  0.00    -0.001 C 
ATOM     11  O   ALA d   1    -133.241 158.555-145.146  0.00  0.00    -0.271 OA
ATOM     12  CG  PRO d   1    -130.018 155.900-147.046  0.00  0.00    -0.048 C 
ATOM     13  H31 PRO d   1    -131.723 154.962-146.127  0.00  0.00     0.064 H 
ATOM     14  H32 PRO d   1    -130.481 155.555-144.972  0.00  0.00     0.064 H 
ATOM     15  CB  PRO d   1    -129.804 157.367-147.239  0.00  0.00    -0.036 C 
ATOM     16  H29 PRO d   1    -129.070 155.407-146.786  0.00  0.00     0.035 H 
ATOM     17  H30 PRO d   1    -130.425 155.450-147.963  0.00  0.00     0.035 H 
ATOM     18  H27 PRO d   1    -128.987 157.726-146.596  0.00  0.00     0.036 H 
ATOM     19  H28 PRO d   1    -129.567 157.588-148.290  0.00  0.00     0.036 H 
ATOM     20  H26 PRO d   1    -130.960 158.995-146.355  0.00  0.00     0.087 H 
BRANCH   9  21
ATOM     21  CA  ALA d   1    -133.172 156.446-144.022  0.00  0.00     0.086 C 
ATOM     22  H22 ALA d   1    -132.445 155.622-143.977  0.00  0.00     0.086 H 
BRANCH  21  23
ATOM     23  N   ALA d   1    -133.255 157.060-142.703  0.00  0.00    -0.346 N 
ATOM     24  C   MET d   1    -132.292 157.819-142.179  0.00  0.00     0.241 C 
ATOM     25  O   MET d   1    -131.210 158.063-142.737  0.00  0.00    -0.271 OA
ATOM     26  H21 ALA d   1    -134.080 156.903-142.161  0.00  0.00     0.163 HD
BRANCH  24  27
ATOM     27  CA  MET d   1    -132.616 158.380-140.799  0.00  0.00     0.090 C 
ATOM     28  H13 MET d   1    -133.072 157.575-140.204  0.00  0.00     0.087 H 
BRANCH  27  29
ATOM     29  N   MET d   1    -131.388 158.783-140.124  0.00  0.00    -0.346 N 
ATOM     30  C   VAL d   1    -130.770 157.975-139.274  0.00  0.00     0.249 C 
ATOM     31  O   VAL d   1    -131.217 156.886-138.935  0.00  0.00    -0.271 OA
ATOM     32  H12 MET d   1    -131.004 159.688-140.306  0.00  0.00     0.163 HD
BRANCH  30  33
ATOM     33  CA  VAL d   1    -129.448 158.469-138.740  0.00  0.00     0.178 C 
ATOM     34  H4  VAL d   1    -129.445 159.569-138.747  0.00  0.00     0.099 H 
BRANCH  33  35
ATOM     35  N   VAL d   1    -129.232 158.015-137.342  0.00  0.00    -0.066 N 
ATOM     36  H1  VAL d   1    -129.971 158.371-136.755  0.00  0.00     0.275 HD
ATOM     37  H2  VAL d   1    -128.344 158.359-137.010  0.00  0.00     0.275 HD
ATOM     38  H3  VAL d   1    -129.234 157.007-137.312  0.00  0.00     0.275 HD
ENDBRANCH  33  35
BRANCH  33  39
ATOM     39  CB  VAL d   1    -128.353 157.961-139.696  0.00  0.00    -0.025 C 
ATOM     40  H5  VAL d   1    -128.620 158.267-140.719  0.00  0.00     0.042 H 
BRANCH  39  41
ATOM     41  CG1 VAL d   1    -127.009 158.584-139.350  0.00  0.00    -0.071 C 
ATOM     42  H6  VAL d   1    -126.242 158.209-140.043  0.00  0.00     0.028 H 
ATOM     43  H7  VAL d   1    -126.735 158.315-138.319  0.00  0.00     0.028 H 
ATOM     44  H8  VAL d   1    -127.079 159.678-139.438  0.00  0.00     0.028 H 
ENDBRANCH  39  41
BRANCH  39  45
ATOM     45  CG2 VAL d   1    -128.273 156.439-139.660  0.00  0.00    -0.071 C 
ATOM     46  H9  VAL d   1    -129.256 156.014-139.913  0.00  0.00     0.028 H 
ATOM     47  H10 VAL d   1    -127.981 156.111-138.652  0.00  0.00     0.028 H 
ATOM     48  H11 VAL d   1    -127.525 156.094-140.389  0.00  0.00     0.028 H 
ENDBRANCH  39  45
ENDBRANCH  33  39
ENDBRANCH  30  33
ENDBRANCH  27  29
BRANCH  27  49
ATOM     49  CB  MET d   1    -133.655 159.527-140.899  0.00  0.00    -0.030 C 
ATOM     50  H14 MET d   1    -134.058 159.697-139.890  0.00  0.00     0.037 H 
ATOM     51  H15 MET d   1    -134.462 159.185-141.564  0.00  0.00     0.037 H 
BRANCH  49  52
ATOM     52  CG  MET d   1    -133.157 160.883-141.434  0.00  0.00    -0.021 C 
ATOM     53  H16 MET d   1    -132.661 160.709-142.400  0.00  0.00     0.049 H 
ATOM     54  H17 MET d   1    -132.429 161.288-140.716  0.00  0.00     0.049 H 
BRANCH  52  55
ATOM     55  SD  MET d   1    -134.464 162.130-141.682  0.00  0.00    -0.173 SA
BRANCH  55  56
ATOM     56  CE  MET d   1    -135.320 161.467-143.105  0.00  0.00    -0.035 C 
ATOM     57  H18 MET d   1    -136.154 162.132-143.374  0.00  0.00     0.041 H 
ATOM     58  H19 MET d   1    -135.711 160.468-142.865  0.00  0.00     0.041 H 
ATOM     59  H20 MET d   1    -134.622 161.393-143.952  0.00  0.00     0.041 H 
ENDBRANCH  55  56
ENDBRANCH  52  55
ENDBRANCH  49  52
ENDBRANCH  27  49
ENDBRANCH  24  27
ENDBRANCH  21  23
BRANCH  21  60
ATOM     60  CB  ALA d   1    -134.531 155.874-144.423  0.00  0.00    -0.049 C 
ATOM     61  H23 ALA d   1    -134.456 155.414-145.419  0.00  0.00     0.030 H 
ATOM     62  H24 ALA d   1    -135.276 156.683-144.448  0.00  0.00     0.030 H 
ATOM     63  H25 ALA d   1    -134.839 155.114-143.690  0.00  0.00     0.030 H 
ENDBRANCH  21  60
ENDBRANCH   9  21
ENDBRANCH   4   7
ENDBRANCH   1   3
BRANCH   1  64
ATOM     64  C   ARG d   1    -135.421 157.095-149.056  0.00  0.00     0.241 C 
ATOM     65  O   ARG d   1    -135.638 156.150-148.302  0.00  0.00    -0.271 OA
ATOM     66  N   THR d   1    -136.377 157.773-149.689  0.00  0.00    -0.344 N 
ATOM     67  H46 THR d   1    -136.111 158.510-150.310  0.00  0.00     0.163 HD
BRANCH  66  68
ATOM     68  CA  THR d   1    -137.801 157.483-149.513  0.00  0.00     0.113 C 
ATOM     69  H47 THR d   1    -137.899 156.718-148.729  0.00  0.00     0.091 H 
BRANCH  68  70
ATOM     70  C   THR d   1    -138.428 156.945-150.799  0.00  0.00     0.243 C 
ATOM     71  O   THR d   1    -137.724 156.500-151.707  0.00  0.00    -0.271 OA
ATOM     72  N   LEU d   1    -139.758 156.965-150.847  0.00  0.00    -0.346 N 
ATOM     73  H53 LEU d   1    -140.262 157.259-150.035  0.00  0.00     0.163 HD
BRANCH  72  74
ATOM     74  CA  LEU d   1    -140.508 156.579-152.027  0.00  0.00     0.089 C 
ATOM     75  H54 LEU d   1    -139.824 156.125-152.759  0.00  0.00     0.087 H 
BRANCH  74  76
ATOM     76  C   LEU d   1    -141.180 157.776-152.632  0.00  0.00     0.241 C 
ATOM     77  O   LEU d   1    -141.638 158.656-151.907  0.00  0.00    -0.271 OA
ATOM     78  N   PHE d   1    -141.232 157.806-153.963  0.00  0.00    -0.346 N 
ATOM     79  H64 PHE d   1    -140.620 157.211-154.484  0.00  0.00     0.163 HD
BRANCH  78  80
ATOM     80  CA  PHE d   1    -142.157 158.684-154.690  0.00  0.00     0.093 C 
ATOM     81  H65 PHE d   1    -142.342 159.601-154.112  0.00  0.00     0.088 H 
BRANCH  80  82
ATOM     82  C   PHE d   1    -143.430 157.881-154.854  0.00  0.00     0.241 C 
ATOM     83  O   PHE d   1    -143.436 156.900-155.595  0.00  0.00    -0.271 OA
ATOM     84  N   LEU d   1    -144.496 158.265-154.161  0.00  0.00    -0.345 N 
ATOM     85  H73 LEU d   1    -144.447 159.079-153.582  0.00  0.00     0.163 HD
BRANCH  84  86
ATOM     86  CA  LEU d   1    -145.737 157.504-154.241  0.00  0.00     0.096 C 
ATOM     87  H74 LEU d   1    -145.495 156.432-154.190  0.00  0.00     0.089 H 
BRANCH  86  88
ATOM     88  C   LEU d   1    -146.396 157.788-155.582  0.00  0.00     0.196 C 
ATOM     89  O   LEU d   1    -147.224 157.002-156.045  0.00  0.00    -0.646 OA
ATOM     90  OXT LEU d   1    -146.079 158.796-156.231  0.00  0.00    -0.646 OA
ENDBRANCH  86  88
BRANCH  86  91
ATOM     91  CB  LEU d   1    -146.670 157.836-153.073  0.00  0.00    -0.034 C 
ATOM     92  H75 LEU d   1    -147.605 157.273-153.214  0.00  0.00     0.037 H 
ATOM     93  H76 LEU d   1    -146.883 158.915-153.105  0.00  0.00     0.037 H 
BRANCH  91  94
ATOM     94  CG  LEU d   1    -146.123 157.503-151.683  0.00  0.00    -0.059 C 
ATOM     95  H77 LEU d   1    -145.115 157.935-151.600  0.00  0.00     0.038 H 
BRANCH  94  96
ATOM     96  CD1 LEU d   1    -146.991 158.112-150.603  0.00  0.00    -0.073 C 
ATOM     97  H78 LEU d   1    -146.578 157.859-149.615  0.00  0.00     0.028 H 
ATOM     98  H79 LEU d   1    -148.013 157.714-150.686  0.00  0.00     0.028 H 
ATOM     99  H80 LEU d   1    -147.012 159.205-150.723  0.00  0.00     0.028 H 
ENDBRANCH  94  96
BRANCH  94 100
ATOM    100  CD2 LEU d   1    -146.013 156.003-151.485  0.00  0.00    -0.073 C 
ATOM    101  H81 LEU d   1    -145.380 155.574-152.276  0.00  0.00     0.028 H 
ATOM    102  H82 LEU d   1    -147.015 155.552-151.533  0.00  0.00     0.028 H 
ATOM    103  H83 LEU d   1    -145.564 155.795-150.503  0.00  0.00     0.028 H 
ENDBRANCH  94 100
ENDBRANCH  91  94
ENDBRANCH  86  91
ENDBRANCH  84  86
ENDBRANCH  80  82
BRANCH  80 104
ATOM    104  CB  PHE d   1    -141.633 159.053-156.088  0.00  0.00    -0.014 C 
ATOM    105  H66 PHE d   1    -142.498 159.205-156.750  0.00  0.00     0.043 H 
ATOM    106  H67 PHE d   1    -141.029 158.213-156.462  0.00  0.00     0.043 H 
BRANCH 104 107
ATOM    107  CG  PHE d   1    -140.784 160.299-156.127  0.00  0.00    -0.056 A 
ATOM    108  CD1 PHE d   1    -139.489 160.258-156.629  0.00  0.00    -0.077 A 
ATOM    109  CE1 PHE d   1    -138.708 161.401-156.677  0.00  0.00    -0.082 A 
ATOM    110  H68 PHE d   1    -139.084 159.319-156.988  0.00  0.00     0.084 H 
ATOM    111  CZ  PHE d   1    -139.216 162.598-156.228  0.00  0.00    -0.083 A 
ATOM    112  H70 PHE d   1    -137.698 161.352-157.068  0.00  0.00     0.083 H 
ATOM    113  CE2 PHE d   1    -140.502 162.655-155.729  0.00  0.00    -0.082 A 
ATOM    114  H72 PHE d   1    -138.608 163.494-156.266  0.00  0.00     0.083 H 
ATOM    115  CD2 PHE d   1    -141.283 161.513-155.685  0.00  0.00    -0.077 A 
ATOM    116  H71 PHE d   1    -140.901 163.597-155.371  0.00  0.00     0.083 H 
ATOM    117  H69 PHE d   1    -142.295 161.569-155.301  0.00  0.00     0.084 H 
ENDBRANCH 104 107
ENDBRANCH  80 104
ENDBRANCH  78  80
ENDBRANCH  74  76
BRANCH  74 118
ATOM    118  CB  LEU d   1    -141.602 155.588-151.658  0.00  0.00    -0.035 C 
ATOM    119  H55 LEU d   1    -142.366 155.616-152.449  0.00  0.00     0.037 H 
ATOM    120  H56 LEU d   1    -142.047 155.913-150.706  0.00  0.00     0.037 H 
BRANCH 118 121
ATOM    121  CG  LEU d   1    -141.147 154.147-151.496  0.00  0.00    -0.059 C 
ATOM    122  H57 LEU d   1    -140.522 154.074-150.594  0.00  0.00     0.038 H 
BRANCH 121 123
ATOM    123  CD1 LEU d   1    -142.360 153.250-151.318  0.00  0.00    -0.073 C 
ATOM    124  H58 LEU d   1    -142.031 152.207-151.201  0.00  0.00     0.028 H 
ATOM    125  H59 LEU d   1    -143.010 153.332-152.202  0.00  0.00     0.028 H 
ATOM    126  H60 LEU d   1    -142.918 153.561-150.423  0.00  0.00     0.028 H 
ENDBRANCH 121 123
BRANCH 121 127
ATOM    127  CD2 LEU d   1    -140.316 153.711-152.691  0.00  0.00    -0.073 C 
ATOM    128  H61 LEU d   1    -139.446 154.377-152.795  0.00  0.00     0.028 H 
ATOM    129  H62 LEU d   1    -140.929 153.763-153.603  0.00  0.00     0.028 H 
ATOM    130  H63 LEU d   1    -139.971 152.678-152.540  0.00  0.00     0.028 H 
ENDBRANCH 121 127
ENDBRANCH 118 121
ENDBRANCH  74 118
ENDBRANCH  72  74
ENDBRANCH  68  70
BRANCH  68 131
ATOM    131  CB  THR d   1    -138.579 158.740-149.074  0.00  0.00     0.060 C 
ATOM    132  H48 THR d   1    -138.915 159.281-149.971  0.00  0.00     0.086 H 
BRANCH 131 133
ATOM    133  OG1 THR d   1    -137.719 159.588-148.311  0.00  0.00    -0.393 OA
ATOM    134  H49 THR d   1    -138.198 160.362-148.041  0.00  0.00     0.210 HD
ENDBRANCH 131 133
BRANCH 131 135
ATOM    135  CG2 THR d   1    -139.804 158.361-148.238  0.00  0.00    -0.050 C 
ATOM    136  H50 THR d   1    -140.340 159.274-147.938  0.00  0.00     0.031 H 
ATOM    137  H51 THR d   1    -139.480 157.814-147.340  0.00  0.00     0.031 H 
ATOM    138  H52 THR d   1    -140.472 157.723-148.835  0.00  0.00     0.031 H 
ENDBRANCH 131 135
ENDBRANCH  68 131
ENDBRANCH  66  68
ENDBRANCH   1  64
BRANCH   1 139
ATOM    139  CB  ARG d   1    -133.323 156.514-150.266  0.00  0.00    -0.036 C 
ATOM    140  H35 ARG d   1    -133.299 155.546-149.744  0.00  0.00     0.036 H 
ATOM    141  H36 ARG d   1    -132.294 156.857-150.451  0.00  0.00     0.036 H 
BRANCH 139 142
ATOM    142  CG  ARG d   1    -133.992 156.296-151.623  0.00  0.00    -0.048 C 
ATOM    143  H37 ARG d   1    -134.228 157.274-152.068  0.00  0.00     0.035 H 
ATOM    144  H38 ARG d   1    -134.921 155.725-151.478  0.00  0.00     0.035 H 
BRANCH 142 145
ATOM    145  CD  ARG d   1    -133.072 155.521-152.576  0.00  0.00     0.009 C 
ATOM    146  H39 ARG d   1    -133.691 154.985-153.311  0.00  0.00     0.064 H 
ATOM    147  H40 ARG d   1    -132.485 154.797-151.993  0.00  0.00     0.064 H 
BRANCH 145 148
ATOM    148  NE  ARG d   1    -132.153 156.411-153.290  0.00  0.00    -0.227 N 
ATOM    149  CZ  ARG d   1    -132.289 156.804-154.557  0.00  0.00     0.665 C 
ATOM    150  NH1 ARG d   1    -133.309 156.385-155.301  0.00  0.00    -0.235 N 
ATOM    151  NH2 ARG d   1    -131.383 157.618-155.088  0.00  0.00    -0.235 N 
ATOM    152  H42 ARG d   1    -133.397 156.700-156.278  0.00  0.00     0.174 HD
ATOM    153  H43 ARG d   1    -134.011 155.746-154.900  0.00  0.00     0.174 HD
ATOM    154  H44 ARG d   1    -130.590 157.947-154.519  0.00  0.00     0.174 HD
ATOM    155  H45 ARG d   1    -131.474 157.920-156.069  0.00  0.00     0.174 HD
ATOM    156  H41 ARG d   1    -131.335 156.762-152.771  0.00  0.00     0.177 HD
ENDBRANCH 145 148
ENDBRANCH 142 145
ENDBRANCH 139 142
ENDBRANCH   1 139
TORSDOF 42
