REMARK  4 active torsions:
REMARK  status: ('A' for Active; 'I' for Inactive)
REMARK    1  A    between atoms: C13_7  and  C12_8 
REMARK    2  A    between atoms: C12_8  and  C11_9 
REMARK       I    between atoms: N2_13  and  C7_14 
REMARK    3  A    between atoms: C7_14  and  C6_16 
REMARK    4  A    between atoms: C1_17  and  N1_18 
ROOT
ATOM      1  C11 SX4 d   1       9.154  33.713  75.710  0.00  0.00     0.019 C 
ATOM      2  C10 SX4 d   1      10.143  32.883  74.874  0.00  0.00    -0.044 C 
ATOM      3  C9  SX4 d   1       9.365  31.653  74.383  0.00  0.00    -0.048 C 
ATOM      4  C8  SX4 d   1       7.933  31.892  74.849  0.00  0.00    -0.002 C 
ATOM      5  N2  SX4 d   1       7.889  33.322  75.104  0.00  0.00    -0.343 N 
ATOM      6  C7  SX4 d   1       6.743  34.090  74.935  0.00  0.00     0.256 C 
ATOM      7  O1  SX4 d   1       5.717  33.624  74.405  0.00  0.00    -0.267 OA
ATOM      8  H7  SX4 d   1       9.353  34.791  75.618  0.00  0.00     0.073 H 
ATOM      9  H8  SX4 d   1      10.997  32.571  75.493  0.00  0.00     0.036 H 
ATOM     10  H9  SX4 d   1      10.506  33.471  74.018  0.00  0.00     0.036 H 
ATOM     11  H10 SX4 d   1       9.770  30.733  74.830  0.00  0.00     0.035 H 
ATOM     12  H11 SX4 d   1       9.409  31.578  73.287  0.00  0.00     0.035 H 
ATOM     13  H12 SX4 d   1       7.718  31.323  75.766  0.00  0.00     0.064 H 
ATOM     14  H13 SX4 d   1       7.213  31.611  74.066  0.00  0.00     0.064 H 
ENDROOT
BRANCH   1  15
ATOM     15  C12 SX4 d   1       9.118  33.304  77.199  0.00  0.00    -0.020 C 
ATOM     16  H5  SX4 d   1       8.375  33.929  77.716  0.00  0.00     0.043 H 
ATOM     17  H6  SX4 d   1       8.819  32.248  77.265  0.00  0.00     0.043 H 
BRANCH  15  18
ATOM     18  C13 SX4 d   1      10.443  33.470  77.885  0.00  0.00    -0.035 A 
ATOM     19  C18 SX4 d   1      10.861  34.759  78.292  0.00  0.00     0.040 A 
ATOM     20 CL1  SX4 d   1       9.904  36.210  78.057  0.00  0.00    -0.084 Cl
ATOM     21  C17 SX4 d   1      12.112  34.873  78.920  0.00  0.00    -0.061 A 
ATOM     22  C16 SX4 d   1      12.937  33.764  79.143  0.00  0.00    -0.081 A 
ATOM     23  H1  SX4 d   1      12.450  35.851  79.243  0.00  0.00     0.086 H 
ATOM     24  C15 SX4 d   1      12.531  32.500  78.727  0.00  0.00    -0.082 A 
ATOM     25  H2  SX4 d   1      13.892  33.890  79.640  0.00  0.00     0.083 H 
ATOM     26  C14 SX4 d   1      11.288  32.357  78.103  0.00  0.00    -0.075 A 
ATOM     27  H3  SX4 d   1      13.169  31.638  78.884  0.00  0.00     0.083 H 
ATOM     28  H4  SX4 d   1      10.966  31.374  77.780  0.00  0.00     0.084 H 
ENDBRANCH  15  18
ENDBRANCH   1  15
BRANCH   6  29
ATOM     29  C6  SX4 d   1       6.758  35.513  75.392  0.00  0.00     0.059 A 
ATOM     30  C1  SX4 d   1       5.949  35.949  76.473  0.00  0.00     0.041 A 
ATOM     31  C2  SX4 d   1       5.986  37.309  76.844  0.00  0.00    -0.055 A 
ATOM     32  C3  SX4 d   1       6.807  38.220  76.165  0.00  0.00    -0.064 A 
ATOM     33  H18 SX4 d   1       5.370  37.655  77.666  0.00  0.00     0.087 H 
ATOM     34  C4  SX4 d   1       7.612  37.791  75.102  0.00  0.00     0.012 A 
ATOM     35  H17 SX4 d   1       6.819  39.262  76.464  0.00  0.00     0.085 H 
ATOM     36  C5  SX4 d   1       7.585  36.438  74.716  0.00  0.00    -0.049 A 
ATOM     37 BR1  SX4 d   1       8.711  39.079  74.210  0.00  0.00    -0.051 Br
ATOM     38  H16 SX4 d   1       8.204  36.102  73.892  0.00  0.00     0.087 H 
BRANCH  30  39
ATOM     39  N1  SX4 d   1       5.084  35.103  77.177  0.00  0.00    -0.398 N 
ATOM     40  H14 SX4 d   1       4.520  35.475  77.954  0.00  0.00     0.156 HD
ATOM     41  H15 SX4 d   1       5.012  34.109  76.918  0.00  0.00     0.156 HD
ENDBRANCH  30  39
ENDBRANCH   6  29
TORSDOF 4
