REMARK  11 active torsions:
REMARK  status: ('A' for Active; 'I' for Inactive)
REMARK    1  A    between atoms: N1_1  and  C4_3 
REMARK    2  A    between atoms: C5_4  and  N1_1 
REMARK    3  A    between atoms: N3_2  and  C8_7 
REMARK    4  A    between atoms: C9_19  and  N3_2 
REMARK    5  A    between atoms: C13_9  and  C14_22 
REMARK    6  A    between atoms: C20_12  and  O3_30 
REMARK    7  A    between atoms: O3_30  and  C21_13 
REMARK    8  A    between atoms: O1_15  and  C1_14 
REMARK    9  A    between atoms: C2_16  and  O1_15 
REMARK   10  A    between atoms: C18_27  and  O2_28 
REMARK   11  A    between atoms: O2_28  and  C19_29 
ROOT
ATOM      1  C5  SAV d   1      15.522  17.699  17.186  0.00  0.00     0.728 A 
ATOM      2  C6  SAV d   1      14.595  16.257  15.725  0.00  0.00     0.025 A 
ATOM      3  C7  SAV d   1      15.747  15.517  15.670  0.00  0.00    -0.021 A 
ATOM      4  C8  SAV d   1      16.808  15.938  16.431  0.00  0.00     0.148 A 
ATOM      5  N2  SAV d   1      14.449  17.349  16.468  0.00  0.00    -0.075 NA
ATOM      6  N6  SAV d   1      16.688  17.035  17.181  0.00  0.00    -0.045 NA
ATOM      7  H3  SAV d   1      13.752  15.932  15.126  0.00  0.00     0.115 H 
ATOM      8  H4  SAV d   1      15.817  14.632  15.048  0.00  0.00     0.091 H 
ENDROOT
BRANCH   1   9
ATOM      9  N1  SAV d   1      15.379  18.848  17.985  0.00  0.00    -0.188 N 
ATOM     10  H1  SAV d   1      14.466  19.324  17.978  0.00  0.00     0.184 HD
BRANCH   9  11
ATOM     11  C4  SAV d   1      16.398  19.397  18.797  0.00  0.00     0.054 A 
ATOM     12  C17 SAV d   1      16.403  20.761  19.004  0.00  0.00    -0.022 A 
ATOM     13  C18 SAV d   1      17.371  21.362  19.786  0.00  0.00     0.106 A 
ATOM     14  H6  SAV d   1      15.634  21.372  18.545  0.00  0.00     0.091 H 
ATOM     15  C20 SAV d   1      18.363  20.601  20.379  0.00  0.00     0.135 A 
ATOM     16  C2  SAV d   1      18.353  19.235  20.176  0.00  0.00     0.106 A 
ATOM     17  C3  SAV d   1      17.384  18.637  19.398  0.00  0.00    -0.022 A 
ATOM     18  H13 SAV d   1      17.396  17.562  19.257  0.00  0.00     0.091 H 
BRANCH  13  19
ATOM     19  O2  SAV d   1      17.350  22.735  19.962  0.00  0.00    -0.353 OA
BRANCH  19  20
ATOM     20  C19 SAV d   1      16.004  23.141  20.148  0.00  0.00     0.010 C 
ATOM     21  H20 SAV d   1      15.966  24.231  20.290  0.00  0.00     0.066 H 
ATOM     22  H21 SAV d   1      15.590  22.641  21.036  0.00  0.00     0.066 H 
ATOM     23  H22 SAV d   1      15.412  22.866  19.262  0.00  0.00     0.066 H 
ENDBRANCH  19  20
ENDBRANCH  13  19
BRANCH  15  24
ATOM     24  O3  SAV d   1      19.374  21.159  21.163  0.00  0.00    -0.351 OA
BRANCH  24  25
ATOM     25  C21 SAV d   1      18.717  21.751  22.289  0.00  0.00     0.011 C 
ATOM     26  H7  SAV d   1      19.466  22.211  22.950  0.00  0.00     0.067 H 
ATOM     27  H8  SAV d   1      18.167  20.975  22.842  0.00  0.00     0.067 H 
ATOM     28  H9  SAV d   1      18.013  22.521  21.940  0.00  0.00     0.067 H 
ENDBRANCH  24  25
ENDBRANCH  15  24
BRANCH  16  29
ATOM     29  O1  SAV d   1      19.340  18.448  20.755  0.00  0.00    -0.353 OA
BRANCH  29  30
ATOM     30  C1  SAV d   1      18.669  17.666  21.750  0.00  0.00     0.010 C 
ATOM     31  H10 SAV d   1      19.396  17.012  22.254  0.00  0.00     0.066 H 
ATOM     32  H11 SAV d   1      17.893  17.051  21.271  0.00  0.00     0.066 H 
ATOM     33  H12 SAV d   1      18.203  18.334  22.489  0.00  0.00     0.066 H 
ENDBRANCH  29  30
ENDBRANCH  16  29
ENDBRANCH   9  11
ENDBRANCH   1   9
BRANCH   4  34
ATOM     34  N3  SAV d   1      17.987  15.176  16.369  0.00  0.00    -0.340 N 
ATOM     35  H2  SAV d   1      18.061  14.448  15.644  0.00  0.00     0.167 HD
BRANCH  34  36
ATOM     36  C9  SAV d   1      19.081  15.359  17.255  0.00  0.00     0.035 A 
ATOM     37  C10 SAV d   1      19.731  16.575  17.319  0.00  0.00    -0.056 A 
ATOM     38  C11 SAV d   1      20.798  16.818  18.154  0.00  0.00    -0.067 A 
ATOM     39  H5  SAV d   1      19.384  17.379  16.680  0.00  0.00     0.086 H 
ATOM     40  C12 SAV d   1      21.218  15.777  18.951  0.00  0.00     0.018 A 
ATOM     41  H14 SAV d   1      21.286  17.786  18.183  0.00  0.00     0.085 H 
ATOM     42  C13 SAV d   1      22.240  15.599  19.922  0.00  0.00     0.036 A 
ATOM     43  C15 SAV d   1      20.561  14.565  18.878  0.00  0.00     0.091 A 
ATOM     44  N4  SAV d   1      22.224  14.357  20.427  0.00  0.00    -0.281 N 
ATOM     45  N5  SAV d   1      21.202  13.755  19.778  0.00  0.00    -0.174 NA
ATOM     46  H18 SAV d   1      22.846  13.955  21.143  0.00  0.00     0.189 HD
ATOM     47  C16 SAV d   1      19.495  14.312  18.049  0.00  0.00    -0.027 A 
ATOM     48  H19 SAV d   1      19.008  13.344  18.021  0.00  0.00     0.090 H 
BRANCH  42  49
ATOM     49  C14 SAV d   1      23.235  16.584  20.394  0.00  0.00    -0.035 C 
ATOM     50  H15 SAV d   1      23.881  16.118  21.152  0.00  0.00     0.035 H 
ATOM     51  H16 SAV d   1      22.715  17.447  20.835  0.00  0.00     0.035 H 
ATOM     52  H17 SAV d   1      23.849  16.920  19.546  0.00  0.00     0.035 H 
ENDBRANCH  42  49
ENDBRANCH  34  36
ENDBRANCH   4  34
TORSDOF 11
