REMARK  7 active torsions:
REMARK  status: ('A' for Active; 'I' for Inactive)
REMARK    1  A    between atoms: N25_26  and  C28_1 
REMARK    2  A    between atoms: N11_28  and  C22_2 
REMARK    3  A    between atoms: C1_25  and  C14_16 
REMARK    4  A    between atoms: C14_16  and  O21_29 
REMARK    5  A    between atoms: C1_25  and  C15_17 
REMARK    6  A    between atoms: C3_22  and  C4_20 
REMARK    7  A    between atoms: N11_28  and  C12_21 
REMARK       I    between atoms: C10_24  and  N_27 
REMARK       I    between atoms: C10_24  and  N11_28 
ROOT
ATOM      1  C2  K30 d   1      18.925  13.849 108.932  0.00  0.00    -0.061 C 
ATOM      2  C   K30 d   1      18.448  15.977 108.159  0.00  0.00     0.025 C 
ATOM      3  C3  K30 d   1      19.360  14.826 108.114  0.00  0.00    -0.028 C 
ATOM      4  C10 K30 d   1      16.634  16.409 110.023  0.00  0.00     0.322 C 
ATOM      5  C1  K30 d   1      17.512  14.154 109.498  0.00  0.00     0.104 C 
ATOM      6  N   K30 d   1      17.552  15.640 109.282  0.00  0.00    -0.310 N 
ATOM      7  N11 K30 d   1      16.650  17.764 109.971  0.00  0.00    -0.331 N 
ATOM      8  O   K30 d   1      15.687  15.839 110.669  0.00  0.00    -0.247 OA
ATOM      9  H19 K30 d   1      19.496  12.952 109.168  0.00  0.00     0.082 H 
ATOM     10  H22 K30 d   1      17.886  16.074 107.219  0.00  0.00     0.071 H 
ATOM     11  H23 K30 d   1      18.997  16.910 108.356  0.00  0.00     0.071 H 
ENDROOT
BRANCH   5  12
ATOM     12  C14 K30 d   1      16.159  13.836 108.856  0.00  0.00     0.048 C 
ATOM     13  H24 K30 d   1      16.097  14.347 107.884  0.00  0.00     0.078 H 
ATOM     14  H25 K30 d   1      15.357  14.201 109.514  0.00  0.00     0.078 H 
BRANCH  12  15
ATOM     15  O21 K30 d   1      15.993  12.473 108.659  0.00  0.00    -0.398 OA
ATOM     16  H29 K30 d   1      15.146  12.313 108.260  0.00  0.00     0.209 HD
ENDBRANCH  12  15
ENDBRANCH   5  12
BRANCH   5  17
ATOM     17  C15 K30 d   1      17.692  13.726 111.050  0.00  0.00    -0.024 A 
ATOM     18  C16 K30 d   1      18.539  14.464 111.916  0.00  0.00    -0.074 A 
ATOM     19  C17 K30 d   1      18.783  14.193 113.309  0.00  0.00    -0.082 A 
ATOM     20  H10 K30 d   1      19.053  15.316 111.487  0.00  0.00     0.084 H 
ATOM     21  C18 K30 d   1      18.160  13.072 113.866  0.00  0.00    -0.083 A 
ATOM     22  H8  K30 d   1      19.425  14.833 113.903  0.00  0.00     0.083 H 
ATOM     23  C19 K30 d   1      17.326  12.342 113.051  0.00  0.00    -0.082 A 
ATOM     24  H7  K30 d   1      18.328  12.789 114.899  0.00  0.00     0.083 H 
ATOM     25  C20 K30 d   1      17.057  12.666 111.655  0.00  0.00    -0.074 A 
ATOM     26  H9  K30 d   1      16.838  11.471 113.473  0.00  0.00     0.083 H 
ATOM     27  H11 K30 d   1      16.352  12.068 111.090  0.00  0.00     0.084 H 
ENDBRANCH   5  17
BRANCH   3  28
ATOM     28  C4  K30 d   1      20.490  14.956 107.249  0.00  0.00     0.013 A 
ATOM     29  C9  K30 d   1      20.524  16.159 106.435  0.00  0.00    -0.032 A 
ATOM     30  C8  K30 d   1      21.531  16.325 105.506  0.00  0.00     0.117 A 
ATOM     31  H14 K30 d   1      19.763  16.921 106.557  0.00  0.00     0.089 H 
ATOM     32  C7  K30 d   1      22.573  15.384 105.370  0.00  0.00    -0.043 A 
ATOM     33  F13 K30 d   1      21.575  17.413 104.759  0.00  0.00    -0.206 F 
ATOM     34  C6  K30 d   1      22.585  14.254 106.184  0.00  0.00    -0.042 A 
ATOM     35  H12 K30 d   1      23.358  15.539 104.638  0.00  0.00     0.088 H 
ATOM     36  C5  K30 d   1      21.531  14.020 107.096  0.00  0.00     0.127 A 
ATOM     37  H13 K30 d   1      23.407  13.550 106.118  0.00  0.00     0.088 H 
ATOM     38  F   K30 d   1      21.631  12.890 107.789  0.00  0.00    -0.205 F 
ENDBRANCH   3  28
BRANCH   7  39
ATOM     39  C22 K30 d   1      17.910  18.411 110.219  0.00  0.00    -0.014 C 
ATOM     40  H4  K30 d   1      17.783  19.501 110.147  0.00  0.00     0.056 H 
ATOM     41  H5  K30 d   1      18.646  18.078 109.473  0.00  0.00     0.056 H 
ATOM     42  H6  K30 d   1      18.265  18.149 111.227  0.00  0.00     0.056 H 
ENDBRANCH   7  39
BRANCH   7  43
ATOM     43  C12 K30 d   1      15.446  18.537 109.937  0.00  0.00     0.048 C 
ATOM     44  C27 K30 d   1      15.257  19.322 111.269  0.00  0.00    -0.021 C 
ATOM     45  C26 K30 d   1      13.977  20.173 111.140  0.00  0.00     0.085 C 
ATOM     46  H15 K30 d   1      15.154  18.617 112.107  0.00  0.00     0.038 H 
ATOM     47  H16 K30 d   1      16.124  19.976 111.444  0.00  0.00     0.038 H 
ATOM     48  N25 K30 d   1      13.912  20.979 109.836  0.00  0.00    -0.072 N 
ATOM     49  H17 K30 d   1      13.938  20.875 111.986  0.00  0.00     0.076 H 
ATOM     50  H18 K30 d   1      13.106  19.502 111.179  0.00  0.00     0.076 H 
ATOM     51  C24 K30 d   1      13.978  20.064 108.633  0.00  0.00     0.113 C 
ATOM     52  H28 K30 d   1      14.713  21.591 109.812  0.00  0.00     0.279 HD
ATOM     53  C23 K30 d   1      15.377  19.455 108.707  0.00  0.00     0.122 C 
ATOM     54  H20 K30 d   1      13.207  19.282 108.694  0.00  0.00     0.080 H 
ATOM     55  H21 K30 d   1      13.849  20.634 107.701  0.00  0.00     0.080 H 
ATOM     56  F29 K30 d   1      16.240  20.485 108.908  0.00  0.00    -0.245 F 
ATOM     57  H27 K30 d   1      15.620  18.902 107.788  0.00  0.00     0.097 H 
ATOM     58  H26 K30 d   1      14.608  17.829 109.855  0.00  0.00     0.077 H 
BRANCH  48  59
ATOM     59  C28 K30 d   1      12.651  21.844 109.757  0.00  0.00     0.066 C 
ATOM     60  H1  K30 d   1      12.606  22.508 110.633  0.00  0.00     0.068 H 
ATOM     61  H2  K30 d   1      11.762  21.196 109.742  0.00  0.00     0.068 H 
ATOM     62  H3  K30 d   1      12.679  22.450 108.839  0.00  0.00     0.068 H 
ENDBRANCH  48  59
ENDBRANCH   7  43
TORSDOF 7
