REMARK  24 active torsions:
REMARK  status: ('A' for Active; 'I' for Inactive)
REMARK    1  A    between atoms: C2A_2  and  O2A_8 
REMARK    2  A    between atoms: C3A_3  and  O3A_9 
REMARK    3  A    between atoms: C5A_5  and  C6A_6 
REMARK    4  A    between atoms: C6A_6  and  O6A_11 
REMARK    5  A    between atoms: C2B_13  and  O2B_19 
REMARK    6  A    between atoms: C3B_14  and  O3B_20 
REMARK    7  A    between atoms: C5B_16  and  C6B_17 
REMARK    8  A    between atoms: C6B_17  and  O6B_22 
REMARK    9  A    between atoms: C2C_24  and  O2C_30 
REMARK   10  A    between atoms: C3C_25  and  O3C_31 
REMARK   11  A    between atoms: C5C_27  and  C6C_28 
REMARK   12  A    between atoms: C6C_28  and  O6C_33 
REMARK   13  A    between atoms: C2D_35  and  O2D_41 
REMARK   14  A    between atoms: C3D_36  and  O3D_42 
REMARK   15  A    between atoms: C5D_38  and  C6D_39 
REMARK   16  A    between atoms: C6D_39  and  O6D_44 
REMARK   17  A    between atoms: C2E_46  and  O2E_52 
REMARK   18  A    between atoms: C3E_47  and  O3E_53 
REMARK   19  A    between atoms: C5E_49  and  C6E_50 
REMARK   20  A    between atoms: C6E_50  and  O6E_55 
REMARK   21  A    between atoms: C2F_57  and  O2F_63 
REMARK   22  A    between atoms: C3F_58  and  O3F_64 
REMARK   23  A    between atoms: C5F_60  and  C6F_61 
REMARK   24  A    between atoms: C6F_61  and  O6F_66 
ROOT
ATOM      1  C1A ACX d   1       5.989 -24.303  47.429  0.00  0.00     0.159 C 
ATOM      2  C2A ACX d   1       5.027 -24.342  46.214  0.00  0.00     0.110 C 
ATOM      3  C3A ACX d   1       4.224 -23.033  46.043  0.00  0.00     0.092 C 
ATOM      4  C4A ACX d   1       3.937 -22.280  47.387  0.00  0.00     0.096 C 
ATOM      5  C5A ACX d   1       4.897 -22.552  48.581  0.00  0.00     0.089 C 
ATOM      6  O1A ACX d   1       7.120 -23.453  47.242  0.00  0.00    -0.348 OA
ATOM      7  O5A ACX d   1       5.197 -23.981  48.600  0.00  0.00    -0.348 OA
ATOM      8  C1B ACX d   1      11.292 -23.795  48.065  0.00  0.00     0.159 C 
ATOM      9  C2B ACX d   1      10.676 -24.878  47.170  0.00  0.00     0.110 C 
ATOM     10  C3B ACX d   1       9.303 -24.447  46.597  0.00  0.00     0.092 C 
ATOM     11  C4B ACX d   1       8.338 -24.032  47.744  0.00  0.00     0.096 C 
ATOM     12  C5B ACX d   1       9.009 -23.009  48.681  0.00  0.00     0.089 C 
ATOM     13  O1B ACX d   1      11.576 -22.678  47.230  0.00  0.00    -0.348 OA
ATOM     14  O5B ACX d   1      10.334 -23.461  49.112  0.00  0.00    -0.348 OA
ATOM     15  C1C ACX d   1      12.797 -18.716  47.750  0.00  0.00     0.159 C 
ATOM     16  C2C ACX d   1      13.362 -19.487  46.549  0.00  0.00     0.110 C 
ATOM     17  C3C ACX d   1      12.461 -20.713  46.328  0.00  0.00     0.092 C 
ATOM     18  C4C ACX d   1      12.476 -21.580  47.577  0.00  0.00     0.096 C 
ATOM     19  C5C ACX d   1      11.994 -20.713  48.813  0.00  0.00     0.089 C 
ATOM     20  O1C ACX d   1      11.392 -18.435  47.444  0.00  0.00    -0.348 OA
ATOM     21  O5C ACX d   1      12.873 -19.569  48.949  0.00  0.00    -0.348 OA
ATOM     22  C1D ACX d   1       8.694 -15.222  47.382  0.00  0.00     0.159 C 
ATOM     23  C2D ACX d   1       9.677 -15.335  46.213  0.00  0.00     0.110 C 
ATOM     24  C3D ACX d   1      10.263 -16.748  46.146  0.00  0.00     0.092 C 
ATOM     25  C4D ACX d   1      11.002 -17.054  47.464  0.00  0.00     0.096 C 
ATOM     26  C5D ACX d   1      10.103 -16.853  48.718  0.00  0.00     0.089 C 
ATOM     27  O1D ACX d   1       7.523 -16.023  47.221  0.00  0.00    -0.348 OA
ATOM     28  O5D ACX d   1       9.367 -15.584  48.635  0.00  0.00    -0.348 OA
ATOM     29  C1E ACX d   1       3.382 -15.771  47.906  0.00  0.00     0.159 C 
ATOM     30  C2E ACX d   1       4.002 -14.677  47.024  0.00  0.00     0.110 C 
ATOM     31  C3E ACX d   1       5.410 -15.101  46.541  0.00  0.00     0.092 C 
ATOM     32  C4E ACX d   1       6.319 -15.486  47.747  0.00  0.00     0.096 C 
ATOM     33  C5E ACX d   1       5.591 -16.495  48.656  0.00  0.00     0.089 C 
ATOM     34  O1E ACX d   1       3.188 -16.946  47.114  0.00  0.00    -0.348 OA
ATOM     35  O5E ACX d   1       4.267 -16.042  49.005  0.00  0.00    -0.348 OA
ATOM     36  C1F ACX d   1       2.077 -20.783  47.564  0.00  0.00     0.159 C 
ATOM     37  C2F ACX d   1       1.355 -20.083  46.417  0.00  0.00     0.110 C 
ATOM     38  C3F ACX d   1       1.983 -18.711  46.188  0.00  0.00     0.092 C 
ATOM     39  C4F ACX d   1       2.120 -17.848  47.482  0.00  0.00     0.096 C 
ATOM     40  C5F ACX d   1       2.542 -18.683  48.759  0.00  0.00     0.089 C 
ATOM     41  O1F ACX d   1       3.492 -20.942  47.280  0.00  0.00    -0.348 OA
ATOM     42  O5F ACX d   1       1.920 -19.997  48.755  0.00  0.00    -0.348 OA
ATOM     43  H1  ACX d   1       6.387 -25.319  47.569  0.00  0.00     0.133 H 
ATOM     44  H2  ACX d   1       4.311 -25.160  46.381  0.00  0.00     0.094 H 
ATOM     45  H3  ACX d   1       4.816 -22.362  45.403  0.00  0.00     0.091 H 
ATOM     46  H4  ACX d   1       3.022 -22.790  47.723  0.00  0.00     0.091 H 
ATOM     47  H5  ACX d   1       5.832 -22.004  48.394  0.00  0.00     0.090 H 
ATOM     48  H11 ACX d   1      12.222 -24.161  48.524  0.00  0.00     0.133 H 
ATOM     49  H12 ACX d   1      10.524 -25.786  47.772  0.00  0.00     0.094 H 
ATOM     50  H13 ACX d   1       9.436 -23.599  45.909  0.00  0.00     0.091 H 
ATOM     51  H14 ACX d   1       8.086 -24.933  48.323  0.00  0.00     0.091 H 
ATOM     52  H15 ACX d   1       9.124 -22.070  48.120  0.00  0.00     0.090 H 
ATOM     53  H21 ACX d   1      13.355 -17.782  47.912  0.00  0.00     0.133 H 
ATOM     54  H22 ACX d   1      14.397 -19.801  46.748  0.00  0.00     0.094 H 
ATOM     55  H23 ACX d   1      11.434 -20.378  46.122  0.00  0.00     0.091 H 
ATOM     56  H24 ACX d   1      13.485 -21.967  47.782  0.00  0.00     0.091 H 
ATOM     57  H25 ACX d   1      10.957 -20.384  48.648  0.00  0.00     0.090 H 
ATOM     58  H31 ACX d   1       8.375 -14.172  47.449  0.00  0.00     0.133 H 
ATOM     59  H32 ACX d   1      10.498 -14.619  46.361  0.00  0.00     0.094 H 
ATOM     60  H33 ACX d   1       9.445 -17.471  46.013  0.00  0.00     0.091 H 
ATOM     61  H34 ACX d   1      11.888 -16.407  47.541  0.00  0.00     0.091 H 
ATOM     62  H35 ACX d   1       9.374 -17.676  48.747  0.00  0.00     0.090 H 
ATOM     63  H41 ACX d   1       2.412 -15.429  48.295  0.00  0.00     0.133 H 
ATOM     64  H42 ACX d   1       4.097 -13.755  47.616  0.00  0.00     0.094 H 
ATOM     65  H43 ACX d   1       5.318 -15.966  45.868  0.00  0.00     0.091 H 
ATOM     66  H44 ACX d   1       6.551 -14.586  48.335  0.00  0.00     0.091 H 
ATOM     67  H45 ACX d   1       5.497 -17.432  48.088  0.00  0.00     0.090 H 
ATOM     68  H51 ACX d   1       1.629 -21.776  47.718  0.00  0.00     0.133 H 
ATOM     69  H52 ACX d   1       0.291 -19.962  46.668  0.00  0.00     0.094 H 
ATOM     70  H53 ACX d   1       2.993 -18.863  45.781  0.00  0.00     0.091 H 
ATOM     71  H54 ACX d   1       1.186 -17.308  47.694  0.00  0.00     0.091 H 
ATOM     72  H55 ACX d   1       3.633 -18.817  48.711  0.00  0.00     0.090 H 
ENDROOT
BRANCH   5  73
ATOM     73  C6A ACX d   1       4.351 -22.071  49.938  0.00  0.00     0.043 C 
ATOM     74  H6  ACX d   1       3.717 -21.186  49.779  0.00  0.00     0.078 H 
ATOM     75  H7  ACX d   1       5.194 -21.805  50.593  0.00  0.00     0.078 H 
BRANCH  73  76
ATOM     76  O6A ACX d   1       3.592 -23.077  50.550  0.00  0.00    -0.398 OA
ATOM     77  H10 ACX d   1       4.137 -23.842  50.691  0.00  0.00     0.209 HD
ENDBRANCH  73  76
ENDBRANCH   5  73
BRANCH   3  78
ATOM     78  O3A ACX d   1       2.984 -23.306  45.392  0.00  0.00    -0.390 OA
ATOM     79  H9  ACX d   1       2.535 -22.488  45.213  0.00  0.00     0.210 HD
ENDBRANCH   3  78
BRANCH   2  80
ATOM     80  O2A ACX d   1       5.747 -24.612  45.015  0.00  0.00    -0.388 OA
ATOM     81  H8  ACX d   1       5.136 -24.705  44.294  0.00  0.00     0.210 HD
ENDBRANCH   2  80
BRANCH  37  82
ATOM     82  O2F ACX d   1       1.481 -20.875  45.242  0.00  0.00    -0.388 OA
ATOM     83  H58 ACX d   1       1.038 -20.443  44.521  0.00  0.00     0.210 HD
ENDBRANCH  37  82
BRANCH  38  84
ATOM     84  O3F ACX d   1       1.199 -18.022  45.223  0.00  0.00    -0.390 OA
ATOM     85  H59 ACX d   1       0.335 -17.855  45.580  0.00  0.00     0.210 HD
ENDBRANCH  38  84
BRANCH  40  86
ATOM     86  C6F ACX d   1       2.214 -18.004  50.099  0.00  0.00     0.043 C 
ATOM     87  H56 ACX d   1       1.127 -17.859  50.182  0.00  0.00     0.078 H 
ATOM     88  H57 ACX d   1       2.719 -17.028  50.151  0.00  0.00     0.078 H 
BRANCH  86  89
ATOM     89  O6F ACX d   1       2.662 -18.823  51.154  0.00  0.00    -0.398 OA
ATOM     90  H60 ACX d   1       2.225 -19.665  51.107  0.00  0.00     0.209 HD
ENDBRANCH  86  89
ENDBRANCH  40  86
BRANCH  10  91
ATOM     91  O3B ACX d   1       8.766 -25.559  45.896  0.00  0.00    -0.390 OA
ATOM     92  H19 ACX d   1       7.923 -25.323  45.528  0.00  0.00     0.210 HD
ENDBRANCH  10  91
BRANCH  12  93
ATOM     93  C6B ACX d   1       8.184 -22.721  49.935  0.00  0.00     0.043 C 
ATOM     94  H16 ACX d   1       8.055 -23.649  50.512  0.00  0.00     0.078 H 
ATOM     95  H17 ACX d   1       7.198 -22.330  49.645  0.00  0.00     0.078 H 
BRANCH  93  96
ATOM     96  O6B ACX d   1       8.860 -21.761  50.727  0.00  0.00    -0.398 OA
ATOM     97  H20 ACX d   1       9.712 -22.101  50.976  0.00  0.00     0.209 HD
ENDBRANCH  93  96
ENDBRANCH  12  93
BRANCH   9  98
ATOM     98  O2B ACX d   1      11.599 -25.170  46.123  0.00  0.00    -0.388 OA
ATOM     99  H18 ACX d   1      11.722 -24.396  45.586  0.00  0.00     0.210 HD
ENDBRANCH   9  98
BRANCH  30 100
ATOM    100  O2E ACX d   1       3.143 -14.424  45.911  0.00  0.00    -0.388 OA
ATOM    101  H48 ACX d   1       3.064 -15.213  45.387  0.00  0.00     0.210 HD
ENDBRANCH  30 100
BRANCH  31 102
ATOM    102  O3E ACX d   1       5.996 -14.012  45.840  0.00  0.00    -0.390 OA
ATOM    103  H49 ACX d   1       6.855 -14.266  45.523  0.00  0.00     0.210 HD
ENDBRANCH  31 102
BRANCH  33 104
ATOM    104  C6E ACX d   1       6.325 -16.806  49.950  0.00  0.00     0.043 C 
ATOM    105  H46 ACX d   1       6.014 -16.101  50.735  0.00  0.00     0.078 H 
ATOM    106  H47 ACX d   1       7.411 -16.725  49.793  0.00  0.00     0.078 H 
BRANCH 104 107
ATOM    107  O6E ACX d   1       5.993 -18.123  50.331  0.00  0.00    -0.398 OA
ATOM    108  H50 ACX d   1       5.054 -18.187  50.461  0.00  0.00     0.209 HD
ENDBRANCH 104 107
ENDBRANCH  33 104
BRANCH  17 109
ATOM    109  O3C ACX d   1      12.940 -21.489  45.226  0.00  0.00    -0.390 OA
ATOM    110  H29 ACX d   1      12.376 -22.244  45.103  0.00  0.00     0.210 HD
ENDBRANCH  17 109
BRANCH  19 111
ATOM    111  C6C ACX d   1      12.089 -21.506  50.143  0.00  0.00     0.043 C 
ATOM    112  H26 ACX d   1      13.136 -21.793  50.317  0.00  0.00     0.078 H 
ATOM    113  H27 ACX d   1      11.468 -22.411  50.068  0.00  0.00     0.078 H 
BRANCH 111 114
ATOM    114  O6C ACX d   1      11.637 -20.723  51.228  0.00  0.00    -0.398 OA
ATOM    115  H30 ACX d   1      12.173 -19.942  51.298  0.00  0.00     0.209 HD
ENDBRANCH 111 114
ENDBRANCH  19 111
BRANCH  16 116
ATOM    116  O2C ACX d   1      13.318 -18.659  45.387  0.00  0.00    -0.388 OA
ATOM    117  H28 ACX d   1      12.424 -18.376  45.235  0.00  0.00     0.210 HD
ENDBRANCH  16 116
BRANCH  23 118
ATOM    118  O2D ACX d   1       8.986 -15.010  45.001  0.00  0.00    -0.388 OA
ATOM    119  H38 ACX d   1       8.278 -15.629  44.866  0.00  0.00     0.210 HD
ENDBRANCH  23 118
BRANCH  24 120
ATOM    120  O3D ACX d   1      11.171 -16.861  45.041  0.00  0.00    -0.390 OA
ATOM    121  H39 ACX d   1      11.520 -17.744  45.008  0.00  0.00     0.210 HD
ENDBRANCH  24 120
BRANCH  26 122
ATOM    122  C6D ACX d   1      10.919 -16.889  50.018  0.00  0.00     0.043 C 
ATOM    123  H36 ACX d   1      11.664 -16.080  50.006  0.00  0.00     0.078 H 
ATOM    124  H37 ACX d   1      11.432 -17.859  50.102  0.00  0.00     0.078 H 
BRANCH 122 125
ATOM    125  O6D ACX d   1      10.060 -16.717  51.115  0.00  0.00    -0.398 OA
ATOM    126  H40 ACX d   1       9.618 -15.879  51.041  0.00  0.00     0.209 HD
ENDBRANCH 122 125
ENDBRANCH  26 122
TORSDOF 24
