REMARK  28 active torsions:
REMARK  status: ('A' for Active; 'I' for Inactive)
REMARK    1  A    between atoms: C21_2  and  O21_3 
REMARK    2  A    between atoms: C31_4  and  O31_5 
REMARK    3  A    between atoms: C51_8  and  C61_10 
REMARK    4  A    between atoms: C61_10  and  O61_11 
REMARK    5  A    between atoms: C22_13  and  O22_14 
REMARK    6  A    between atoms: C32_15  and  O32_16 
REMARK    7  A    between atoms: C52_19  and  C62_21 
REMARK    8  A    between atoms: C62_21  and  O62_22 
REMARK    9  A    between atoms: C23_24  and  O23_25 
REMARK   10  A    between atoms: C33_26  and  O33_27 
REMARK   11  A    between atoms: C53_30  and  C63_32 
REMARK   12  A    between atoms: C63_32  and  O63_33 
REMARK   13  A    between atoms: C24_35  and  O24_36 
REMARK   14  A    between atoms: C34_37  and  O34_38 
REMARK   15  A    between atoms: C54_41  and  C64_43 
REMARK   16  A    between atoms: C64_43  and  O64_44 
REMARK   17  A    between atoms: C25_46  and  O25_47 
REMARK   18  A    between atoms: C35_48  and  O35_49 
REMARK   19  A    between atoms: C55_52  and  C65_54 
REMARK   20  A    between atoms: C65_54  and  O65_55 
REMARK   21  A    between atoms: C26_57  and  O26_58 
REMARK   22  A    between atoms: C36_59  and  O36_60 
REMARK   23  A    between atoms: C56_63  and  C66_65 
REMARK   24  A    between atoms: C66_65  and  O66_66 
REMARK   25  A    between atoms: C27_68  and  O27_69 
REMARK   26  A    between atoms: C37_70  and  O37_71 
REMARK   27  A    between atoms: C57_74  and  C67_76 
REMARK   28  A    between atoms: C67_76  and  O67_77 
ROOT
ATOM      1  C11 BCD d   1      18.440 -29.201  -2.037  0.00  0.00     0.159 C 
ATOM      2  C21 BCD d   1      17.910 -29.988  -3.248  0.00  0.00     0.110 C 
ATOM      3  C31 BCD d   1      17.921 -29.113  -4.522  0.00  0.00     0.092 C 
ATOM      4  C41 BCD d   1      17.287 -27.697  -4.294  0.00  0.00     0.096 C 
ATOM      5  O41 BCD d   1      17.746 -26.965  -5.441  0.00  0.00    -0.348 OA
ATOM      6  C51 BCD d   1      17.784 -27.033  -2.951  0.00  0.00     0.089 C 
ATOM      7  O51 BCD d   1      17.715 -27.974  -1.866  0.00  0.00    -0.348 OA
ATOM      8  C12 BCD d   1      16.939 -25.881  -5.904  0.00  0.00     0.159 C 
ATOM      9  C22 BCD d   1      16.790 -25.945  -7.445  0.00  0.00     0.110 C 
ATOM     10  C32 BCD d   1      18.130 -25.655  -8.140  0.00  0.00     0.092 C 
ATOM     11  C42 BCD d   1      18.733 -24.320  -7.636  0.00  0.00     0.096 C 
ATOM     12  O42 BCD d   1      20.001 -24.185  -8.261  0.00  0.00    -0.348 OA
ATOM     13  C52 BCD d   1      18.827 -24.356  -6.093  0.00  0.00     0.089 C 
ATOM     14  O52 BCD d   1      17.511 -24.601  -5.549  0.00  0.00    -0.348 OA
ATOM     15  C13 BCD d   1      20.092 -23.070  -9.154  0.00  0.00     0.159 C 
ATOM     16  C23 BCD d   1      21.091 -23.354 -10.295  0.00  0.00     0.110 C 
ATOM     17  C33 BCD d   1      22.549 -23.332  -9.801  0.00  0.00     0.092 C 
ATOM     18  C43 BCD d   1      22.852 -22.045  -8.987  0.00  0.00     0.096 C 
ATOM     19  O43 BCD d   1      24.170 -22.179  -8.473  0.00  0.00    -0.348 OA
ATOM     20  C53 BCD d   1      21.804 -21.924  -7.857  0.00  0.00     0.089 C 
ATOM     21  O53 BCD d   1      20.482 -21.870  -8.441  0.00  0.00    -0.348 OA
ATOM     22  C14 BCD d   1      25.081 -21.153  -8.877  0.00  0.00     0.159 C 
ATOM     23  C24 BCD d   1      26.401 -21.745  -9.408  0.00  0.00     0.110 C 
ATOM     24  C34 BCD d   1      27.164 -22.497  -8.292  0.00  0.00     0.092 C 
ATOM     25  C44 BCD d   1      27.326 -21.656  -6.998  0.00  0.00     0.096 C 
ATOM     26  O44 BCD d   1      27.527 -22.578  -5.919  0.00  0.00    -0.348 OA
ATOM     27  C54 BCD d   1      26.067 -20.808  -6.630  0.00  0.00     0.089 C 
ATOM     28  O54 BCD d   1      25.324 -20.287  -7.748  0.00  0.00    -0.348 OA
ATOM     29  C15 BCD d   1      28.642 -22.255  -5.058  0.00  0.00     0.159 C 
ATOM     30  C25 BCD d   1      29.630 -23.436  -5.071  0.00  0.00     0.110 C 
ATOM     31  C35 BCD d   1      28.951 -24.708  -4.527  0.00  0.00     0.092 C 
ATOM     32  C45 BCD d   1      28.292 -24.460  -3.141  0.00  0.00     0.096 C 
ATOM     33  O45 BCD d   1      27.475 -25.550  -2.751  0.00  0.00    -0.348 OA
ATOM     34  C55 BCD d   1      27.451 -23.138  -3.134  0.00  0.00     0.089 C 
ATOM     35  O55 BCD d   1      28.211 -22.037  -3.692  0.00  0.00    -0.348 OA
ATOM     36  C16 BCD d   1      27.917 -26.346  -1.653  0.00  0.00     0.159 C 
ATOM     37  C26 BCD d   1      27.820 -27.845  -2.069  0.00  0.00     0.110 C 
ATOM     38  C36 BCD d   1      26.360 -28.330  -2.216  0.00  0.00     0.092 C 
ATOM     39  C46 BCD d   1      25.514 -27.964  -0.984  0.00  0.00     0.096 C 
ATOM     40  O46 BCD d   1      24.153 -28.260  -1.281  0.00  0.00    -0.348 OA
ATOM     41  C56 BCD d   1      25.692 -26.450  -0.681  0.00  0.00     0.089 C 
ATOM     42  O56 BCD d   1      27.081 -26.110  -0.494  0.00  0.00    -0.348 OA
ATOM     43  C17 BCD d   1      23.490 -29.044  -0.287  0.00  0.00     0.159 C 
ATOM     44  C27 BCD d   1      22.944 -30.374  -0.839  0.00  0.00     0.110 C 
ATOM     45  C37 BCD d   1      21.872 -30.122  -1.885  0.00  0.00     0.092 C 
ATOM     46  C47 BCD d   1      20.691 -29.388  -1.227  0.00  0.00     0.096 C 
ATOM     47  O47 BCD d   1      19.832 -28.923  -2.267  0.00  0.00    -0.348 OA
ATOM     48  C57 BCD d   1      21.147 -28.146  -0.412  0.00  0.00     0.089 C 
ATOM     49  O57 BCD d   1      22.445 -28.198   0.247  0.00  0.00    -0.348 OA
ATOM     50  H1  BCD d   1      18.331 -29.811  -1.128  0.00  0.00     0.133 H 
ATOM     51  H2  BCD d   1      16.881 -30.320  -3.048  0.00  0.00     0.094 H 
ATOM     52  H4  BCD d   1      18.968 -28.973  -4.827  0.00  0.00     0.091 H 
ATOM     53  H6  BCD d   1      16.189 -27.758  -4.279  0.00  0.00     0.091 H 
ATOM     54  H7  BCD d   1      18.834 -26.742  -3.099  0.00  0.00     0.090 H 
ATOM     55  H11 BCD d   1      15.944 -25.965  -5.442  0.00  0.00     0.133 H 
ATOM     56  H12 BCD d   1      16.059 -25.184  -7.758  0.00  0.00     0.094 H 
ATOM     57  H14 BCD d   1      18.835 -26.472  -7.927  0.00  0.00     0.091 H 
ATOM     58  H16 BCD d   1      18.089 -23.479  -7.933  0.00  0.00     0.091 H 
ATOM     59  H17 BCD d   1      19.517 -25.163  -5.806  0.00  0.00     0.090 H 
ATOM     60  H21 BCD d   1      19.099 -22.903  -9.597  0.00  0.00     0.133 H 
ATOM     61  H22 BCD d   1      20.973 -22.580 -11.068  0.00  0.00     0.094 H 
ATOM     62  H24 BCD d   1      22.725 -24.211  -9.164  0.00  0.00     0.091 H 
ATOM     63  H26 BCD d   1      22.795 -21.158  -9.636  0.00  0.00     0.091 H 
ATOM     64  H27 BCD d   1      21.890 -22.818  -7.223  0.00  0.00     0.090 H 
ATOM     65  H31 BCD d   1      24.617 -20.566  -9.683  0.00  0.00     0.133 H 
ATOM     66  H32 BCD d   1      27.030 -20.920  -9.774  0.00  0.00     0.094 H 
ATOM     67  H34 BCD d   1      26.603 -23.411  -8.045  0.00  0.00     0.091 H 
ATOM     68  H36 BCD d   1      28.194 -20.989  -7.106  0.00  0.00     0.091 H 
ATOM     69  H37 BCD d   1      25.395 -21.476  -6.071  0.00  0.00     0.090 H 
ATOM     70  H41 BCD d   1      29.138 -21.348  -5.432  0.00  0.00     0.133 H 
ATOM     71  H42 BCD d   1      30.493 -23.189  -4.436  0.00  0.00     0.094 H 
ATOM     72  H44 BCD d   1      28.172 -25.023  -5.237  0.00  0.00     0.091 H 
ATOM     73  H46 BCD d   1      29.098 -24.356  -2.400  0.00  0.00     0.091 H 
ATOM     74  H47 BCD d   1      26.558 -23.305  -3.754  0.00  0.00     0.090 H 
ATOM     75  H51 BCD d   1      28.959 -26.094  -1.409  0.00  0.00     0.133 H 
ATOM     76  H52 BCD d   1      28.330 -28.455  -1.309  0.00  0.00     0.094 H 
ATOM     77  H54 BCD d   1      25.919 -27.849  -3.102  0.00  0.00     0.091 H 
ATOM     78  H56 BCD d   1      25.840 -28.553  -0.114  0.00  0.00     0.091 H 
ATOM     79  H57 BCD d   1      25.311 -25.895  -1.551  0.00  0.00     0.090 H 
ATOM     80  H61 BCD d   1      24.204 -29.283   0.515  0.00  0.00     0.133 H 
ATOM     81  H62 BCD d   1      22.515 -30.963  -0.015  0.00  0.00     0.094 H 
ATOM     82  H64 BCD d   1      22.280 -29.507  -2.701  0.00  0.00     0.091 H 
ATOM     83  H66 BCD d   1      20.152 -30.083  -0.566  0.00  0.00     0.091 H 
ATOM     84  H67 BCD d   1      21.212 -27.331  -1.148  0.00  0.00     0.090 H 
ENDROOT
BRANCH   6  85
ATOM     85  C61 BCD d   1      17.002 -25.779  -2.532  0.00  0.00     0.043 C 
ATOM     86  H8  BCD d   1      16.087 -26.076  -1.998  0.00  0.00     0.078 H 
ATOM     87  H9  BCD d   1      16.733 -25.196  -3.425  0.00  0.00     0.078 H 
BRANCH  85  88
ATOM     88  O61 BCD d   1      17.817 -24.994  -1.680  0.00  0.00    -0.398 OA
ATOM     89  H10 BCD d   1      17.340 -24.216  -1.416  0.00  0.00     0.209 HD
ENDBRANCH  85  88
ENDBRANCH   6  85
BRANCH   3  90
ATOM     90  O31 BCD d   1      17.225 -29.772  -5.572  0.00  0.00    -0.390 OA
ATOM     91  H5  BCD d   1      17.237 -29.227  -6.350  0.00  0.00     0.210 HD
ENDBRANCH   3  90
BRANCH   2  92
ATOM     92  O21 BCD d   1      18.757 -31.128  -3.436  0.00  0.00    -0.388 OA
ATOM     93  H3  BCD d   1      19.647 -30.837  -3.596  0.00  0.00     0.210 HD
ENDBRANCH   2  92
BRANCH   9  94
ATOM     94  O22 BCD d   1      16.319 -27.221  -7.840  0.00  0.00    -0.388 OA
ATOM     95  H13 BCD d   1      16.937 -27.886  -7.559  0.00  0.00     0.210 HD
ENDBRANCH   9  94
BRANCH  10  96
ATOM     96  O32 BCD d   1      17.902 -25.575  -9.547  0.00  0.00    -0.390 OA
ATOM     97  H15 BCD d   1      18.723 -25.396  -9.990  0.00  0.00     0.210 HD
ENDBRANCH  10  96
BRANCH  13  98
ATOM     98  C62 BCD d   1      19.282 -23.057  -5.445  0.00  0.00     0.043 C 
ATOM     99  H18 BCD d   1      18.417 -22.395  -5.292  0.00  0.00     0.078 H 
ATOM    100  H19 BCD d   1      20.017 -22.556  -6.093  0.00  0.00     0.078 H 
BRANCH  98 101
ATOM    101  O62 BCD d   1      19.873 -23.363  -4.202  0.00  0.00    -0.398 OA
ATOM    102  H20 BCD d   1      20.618 -23.937  -4.339  0.00  0.00     0.209 HD
ENDBRANCH  98 101
ENDBRANCH  13  98
BRANCH  45 103
ATOM    103  O37 BCD d   1      21.444 -31.385  -2.399  0.00  0.00    -0.390 OA
ATOM    104  H65 BCD d   1      20.772 -31.247  -3.056  0.00  0.00     0.210 HD
ENDBRANCH  45 103
BRANCH  48 105
ATOM    105  C67 BCD d   1      20.130 -27.721   0.638  0.00  0.00     0.043 C 
ATOM    106  H68 BCD d   1      20.437 -28.081   1.631  0.00  0.00     0.078 H 
ATOM    107  H69 BCD d   1      19.138 -28.127   0.391  0.00  0.00     0.078 H 
BRANCH 105 108
ATOM    108  O67 BCD d   1      20.097 -26.311   0.621  0.00  0.00    -0.398 OA
ATOM    109  H70 BCD d   1      19.471 -26.002   1.266  0.00  0.00     0.209 HD
ENDBRANCH 105 108
ENDBRANCH  48 105
BRANCH  44 110
ATOM    110  O27 BCD d   1      24.018 -31.095  -1.436  0.00  0.00    -0.388 OA
ATOM    111  H63 BCD d   1      23.692 -31.918  -1.780  0.00  0.00     0.210 HD
ENDBRANCH  44 110
BRANCH  16 112
ATOM    112  O23 BCD d   1      20.792 -24.620 -10.856  0.00  0.00    -0.388 OA
ATOM    113  H23 BCD d   1      20.869 -25.288 -10.185  0.00  0.00     0.210 HD
ENDBRANCH  16 112
BRANCH  17 114
ATOM    114  O33 BCD d   1      23.423 -23.376 -10.930  0.00  0.00    -0.390 OA
ATOM    115  H25 BCD d   1      24.325 -23.363 -10.632  0.00  0.00     0.210 HD
ENDBRANCH  17 114
BRANCH  20 116
ATOM    116  C63 BCD d   1      21.935 -20.681  -6.958  0.00  0.00     0.043 C 
ATOM    117  H28 BCD d   1      22.889 -20.725  -6.412  0.00  0.00     0.078 H 
ATOM    118  H29 BCD d   1      21.102 -20.660  -6.240  0.00  0.00     0.078 H 
BRANCH 116 119
ATOM    119  O63 BCD d   1      21.901 -19.508  -7.751  0.00  0.00    -0.398 OA
ATOM    120  H30 BCD d   1      21.077 -19.470  -8.222  0.00  0.00     0.209 HD
ENDBRANCH 116 119
ENDBRANCH  20 116
BRANCH  38 121
ATOM    121  O36 BCD d   1      26.338 -29.742  -2.394  0.00  0.00    -0.390 OA
ATOM    122  H55 BCD d   1      25.439 -30.035  -2.484  0.00  0.00     0.210 HD
ENDBRANCH  38 121
BRANCH  41 123
ATOM    123  C66 BCD d   1      24.921 -25.971   0.565  0.00  0.00     0.043 C 
ATOM    124  H58 BCD d   1      23.840 -26.025   0.370  0.00  0.00     0.078 H 
ATOM    125  H59 BCD d   1      25.201 -24.932   0.792  0.00  0.00     0.078 H 
BRANCH 123 126
ATOM    126  O66 BCD d   1      25.244 -26.798   1.666  0.00  0.00    -0.398 OA
ATOM    127  H60 BCD d   1      26.178 -26.750   1.833  0.00  0.00     0.209 HD
ENDBRANCH 123 126
ENDBRANCH  41 123
BRANCH  37 128
ATOM    128  O26 BCD d   1      28.445 -28.034  -3.343  0.00  0.00    -0.388 OA
ATOM    129  H53 BCD d   1      28.006 -27.497  -3.993  0.00  0.00     0.210 HD
ENDBRANCH  37 128
BRANCH  23 130
ATOM    130  O24 BCD d   1      26.151 -22.645 -10.480  0.00  0.00    -0.388 OA
ATOM    131  H33 BCD d   1      26.975 -22.999 -10.793  0.00  0.00     0.210 HD
ENDBRANCH  23 130
BRANCH  24 132
ATOM    132  O34 BCD d   1      28.468 -22.859  -8.771  0.00  0.00    -0.390 OA
ATOM    133  H35 BCD d   1      28.938 -23.321  -8.087  0.00  0.00     0.210 HD
ENDBRANCH  24 132
BRANCH  27 134
ATOM    134  C64 BCD d   1      26.411 -19.618  -5.730  0.00  0.00     0.043 C 
ATOM    135  H38 BCD d   1      26.293 -18.679  -6.291  0.00  0.00     0.078 H 
ATOM    136  H39 BCD d   1      27.449 -19.706  -5.375  0.00  0.00     0.078 H 
BRANCH 134 137
ATOM    137  O64 BCD d   1      25.526 -19.633  -4.630  0.00  0.00    -0.398 OA
ATOM    138  H40 BCD d   1      25.722 -18.901  -4.057  0.00  0.00     0.209 HD
ENDBRANCH 134 137
ENDBRANCH  27 134
BRANCH  31 139
ATOM    139  O35 BCD d   1      29.923 -25.746  -4.408  0.00  0.00    -0.390 OA
ATOM    140  H45 BCD d   1      30.299 -25.925  -5.262  0.00  0.00     0.210 HD
ENDBRANCH  31 139
BRANCH  34 141
ATOM    141  C65 BCD d   1      26.994 -22.715  -1.724  0.00  0.00     0.043 C 
ATOM    142  H48 BCD d   1      26.256 -23.439  -1.347  0.00  0.00     0.078 H 
ATOM    143  H49 BCD d   1      26.536 -21.716  -1.773  0.00  0.00     0.078 H 
BRANCH 141 144
ATOM    144  O65 BCD d   1      28.112 -22.679  -0.846  0.00  0.00    -0.398 OA
ATOM    145  H50 BCD d   1      28.749 -22.053  -1.171  0.00  0.00     0.209 HD
ENDBRANCH 141 144
ENDBRANCH  34 141
BRANCH  30 146
ATOM    146  O25 BCD d   1      30.080 -23.674  -6.401  0.00  0.00    -0.388 OA
ATOM    147  H43 BCD d   1      29.335 -23.881  -6.954  0.00  0.00     0.210 HD
ENDBRANCH  30 146
TORSDOF 28
