REMARK  17 active torsions:
REMARK  status: ('A' for Active; 'I' for Inactive)
REMARK       I    between atoms: C_1  and  N_3 
REMARK    1  A    between atoms: C30_26  and  C_1 
REMARK    2  A    between atoms: N_3  and  CA_4 
REMARK    3  A    between atoms: CA_4  and  CB_5 
REMARK    4  A    between atoms: CA_4  and  C1_12 
REMARK    5  A    between atoms: CB_5  and  CG_6 
REMARK    6  A    between atoms: C1_12  and  OG_13 
REMARK    7  A    between atoms: C1_12  and  C2_14 
REMARK    8  A    between atoms: C2_14  and  N2_15 
REMARK    9  A    between atoms: N2_15  and  C20_16 
REMARK   10  A    between atoms: C20_16  and  C21_17 
REMARK   11  A    between atoms: C25_21  and  N27_23 
REMARK   12  A    between atoms: N27_23  and  C28_24 
REMARK   13  A    between atoms: N27_23  and  C29_25 
REMARK   14  A    between atoms: C51_39  and  C30_26 
REMARK   15  A    between atoms: N34_30  and  C36_32 
REMARK   16  A    between atoms: C36_32  and  C41_33 
REMARK   17  A    between atoms: C56_44  and  C51_39 
ROOT
ATOM      1  CA  009 d   1      30.742   4.882   9.846  0.00  0.00     0.042 C 
ATOM      2  H2  009 d   1      31.745   5.328   9.770  0.00  0.00     0.077 H 
ENDROOT
BRANCH   1   3
ATOM      3  N   009 d   1      29.755   5.938  10.241  0.00  0.00    -0.351 N 
ATOM      4  C   009 d   1      30.075   7.267  10.416  0.00  0.00     0.248 C 
ATOM      5  O   009 d   1      31.213   7.724  10.253  0.00  0.00    -0.271 OA
ATOM      6  H1  009 d   1      28.805   5.661  10.387  0.00  0.00     0.163 HD
BRANCH   4   7
ATOM      7  C30 009 d   1      28.857   8.175  10.890  0.00  0.00     0.131 C 
ATOM      8  N31 009 d   1      27.647   7.796  10.146  0.00  0.00    -0.328 N 
ATOM      9  C32 009 d   1      26.603   7.862  11.001  0.00  0.00     0.298 C 
ATOM     10  H28 009 d   1      27.604   7.536   9.181  0.00  0.00     0.165 HD
ATOM     11  O33 009 d   1      25.434   7.619  10.700  0.00  0.00    -0.254 OA
ATOM     12  N34 009 d   1      26.982   8.275  12.320  0.00  0.00    -0.228 NA
ATOM     13  C35 009 d   1      28.413   7.902  12.339  0.00  0.00     0.020 C 
ATOM     14  H29 009 d   1      28.975   8.525  13.050  0.00  0.00     0.061 H 
ATOM     15  H30 009 d   1      28.542   6.841  12.600  0.00  0.00     0.061 H 
BRANCH  12  16
ATOM     16  C36 009 d   1      26.092   7.820  13.450  0.00  0.00     0.011 C 
ATOM     17  H31 009 d   1      25.082   7.691  13.034  0.00  0.00     0.063 H 
ATOM     18  H32 009 d   1      26.080   8.627  14.197  0.00  0.00     0.063 H 
BRANCH  16  19
ATOM     19  C41 009 d   1      26.438   6.543  14.181  0.00  0.00    -0.045 A 
ATOM     20  C42 009 d   1      26.109   5.279  13.630  0.00  0.00    -0.076 A 
ATOM     21  C45 009 d   1      26.439   4.093  14.314  0.00  0.00    -0.082 A 
ATOM     22  H33 009 d   1      25.599   5.225  12.675  0.00  0.00     0.084 H 
ATOM     23  C46 009 d   1      27.107   4.159  15.566  0.00  0.00    -0.083 A 
ATOM     24  H36 009 d   1      26.183   3.131  13.886  0.00  0.00     0.083 H 
ATOM     25  C44 009 d   1      27.435   5.412  16.128  0.00  0.00    -0.082 A 
ATOM     26  H37 009 d   1      27.365   3.246  16.090  0.00  0.00     0.083 H 
ATOM     27  C43 009 d   1      27.102   6.599  15.438  0.00  0.00    -0.076 A 
ATOM     28  H35 009 d   1      27.941   5.463  17.085  0.00  0.00     0.083 H 
ATOM     29  H34 009 d   1      27.355   7.561  15.870  0.00  0.00     0.084 H 
ENDBRANCH  16  19
ENDBRANCH  12  16
BRANCH   7  30
ATOM     30  C51 009 d   1      29.224   9.702  10.607  0.00  0.00    -0.008 C 
ATOM     31  H38 009 d   1      29.278   9.828   9.516  0.00  0.00     0.044 H 
ATOM     32  H39 009 d   1      30.215   9.887  11.047  0.00  0.00     0.044 H 
BRANCH  30  33
ATOM     33  C56 009 d   1      28.275  10.787  11.146  0.00  0.00    -0.055 A 
ATOM     34  C55 009 d   1      27.135  11.205  10.398  0.00  0.00    -0.077 A 
ATOM     35  C54 009 d   1      26.258  12.195  10.918  0.00  0.00    -0.082 A 
ATOM     36  H43 009 d   1      26.936  10.765   9.427  0.00  0.00     0.084 H 
ATOM     37  C53 009 d   1      26.501  12.782  12.186  0.00  0.00    -0.083 A 
ATOM     38  H42 009 d   1      25.395  12.505  10.340  0.00  0.00     0.083 H 
ATOM     39  C52 009 d   1      27.633  12.385  12.947  0.00  0.00    -0.082 A 
ATOM     40  H41 009 d   1      25.823  13.533  12.574  0.00  0.00     0.083 H 
ATOM     41  C57 009 d   1      28.514  11.395  12.431  0.00  0.00    -0.077 A 
ATOM     42  H40 009 d   1      27.824  12.834  13.915  0.00  0.00     0.083 H 
ATOM     43  H44 009 d   1      29.378  11.093  13.012  0.00  0.00     0.084 H 
ENDBRANCH  30  33
ENDBRANCH   7  30
ENDBRANCH   4   7
ENDBRANCH   1   3
BRANCH   1  44
ATOM     44  CB  009 d   1      30.745   3.817  10.981  0.00  0.00    -0.020 C 
ATOM     45  H3  009 d   1      31.486   3.037  10.751  0.00  0.00     0.043 H 
ATOM     46  H4  009 d   1      29.747   3.362  11.061  0.00  0.00     0.043 H 
BRANCH  44  47
ATOM     47  CG  009 d   1      31.101   4.478  12.284  0.00  0.00    -0.056 A 
ATOM     48  CD1 009 d   1      30.239   4.398  13.392  0.00  0.00    -0.077 A 
ATOM     49  CE1 009 d   1      30.572   5.037  14.599  0.00  0.00    -0.082 A 
ATOM     50  H5  009 d   1      29.312   3.841  13.315  0.00  0.00     0.084 H 
ATOM     51  CZ  009 d   1      31.769   5.766  14.715  0.00  0.00    -0.083 A 
ATOM     52  H7  009 d   1      29.901   4.967  15.447  0.00  0.00     0.083 H 
ATOM     53  CE2 009 d   1      32.646   5.857  13.614  0.00  0.00    -0.082 A 
ATOM     54  H9  009 d   1      32.017   6.257  15.649  0.00  0.00     0.083 H 
ATOM     55  CD2 009 d   1      32.312   5.214  12.405  0.00  0.00    -0.077 A 
ATOM     56  H8  009 d   1      33.570   6.417  13.697  0.00  0.00     0.083 H 
ATOM     57  H6  009 d   1      32.985   5.281  11.558  0.00  0.00     0.084 H 
ENDBRANCH  44  47
ENDBRANCH   1  44
BRANCH   1  58
ATOM     58  C1  009 d   1      30.374   4.286   8.478  0.00  0.00     0.078 C 
ATOM     59  H10 009 d   1      29.365   3.850   8.518  0.00  0.00     0.088 H 
BRANCH  58  60
ATOM     60  OG  009 d   1      31.337   3.286   8.180  0.00  0.00    -0.392 OA
ATOM     61  H11 009 d   1      31.315   2.616   8.853  0.00  0.00     0.210 HD
ENDBRANCH  58  60
BRANCH  58  62
ATOM     62  C2  009 d   1      30.434   5.344   7.385  0.00  0.00     0.107 C 
ATOM     63  H12 009 d   1      31.227   6.069   7.623  0.00  0.00     0.079 H 
ATOM     64  H13 009 d   1      29.466   5.864   7.329  0.00  0.00     0.079 H 
BRANCH  62  65
ATOM     65  N2  009 d   1      30.725   4.713   6.084  0.00  0.00    -0.069 N 
ATOM     66  H14 009 d   1      29.966   4.088   5.863  0.00  0.00     0.277 HD
ATOM     67  H15 009 d   1      31.579   4.186   6.176  0.00  0.00     0.277 HD
BRANCH  65  68
ATOM     68  C20 009 d   1      30.886   5.651   4.962  0.00  0.00     0.105 C 
ATOM     69  H16 009 d   1      30.219   6.516   5.095  0.00  0.00     0.083 H 
ATOM     70  H17 009 d   1      30.648   5.148   4.013  0.00  0.00     0.083 H 
BRANCH  68  71
ATOM     71  C21 009 d   1      32.318   6.102   4.960  0.00  0.00    -0.031 A 
ATOM     72  C22 009 d   1      32.661   7.469   5.077  0.00  0.00    -0.075 A 
ATOM     73  C23 009 d   1      34.024   7.861   5.093  0.00  0.00    -0.080 A 
ATOM     74  H18 009 d   1      31.881   8.218   5.154  0.00  0.00     0.084 H 
ATOM     75  C24 009 d   1      35.053   6.879   4.994  0.00  0.00    -0.057 A 
ATOM     76  H19 009 d   1      34.284   8.910   5.181  0.00  0.00     0.083 H 
ATOM     77  C25 009 d   1      34.722   5.491   4.877  0.00  0.00     0.029 A 
ATOM     78  H20 009 d   1      36.093   7.185   5.007  0.00  0.00     0.086 H 
ATOM     79  C26 009 d   1      33.350   5.125   4.862  0.00  0.00    -0.050 A 
ATOM     80  H21 009 d   1      33.082   4.078   4.774  0.00  0.00     0.087 H 
BRANCH  77  81
ATOM     81  N27 009 d   1      35.715   4.518   4.782  0.00  0.00    -0.390 N 
BRANCH  81  82
ATOM     82  C28 009 d   1      36.576   4.239   5.926  0.00  0.00    -0.019 C 
ATOM     83  H22 009 d   1      37.292   3.447   5.661  0.00  0.00     0.056 H 
ATOM     84  H23 009 d   1      35.961   3.908   6.776  0.00  0.00     0.056 H 
ATOM     85  H24 009 d   1      37.124   5.151   6.203  0.00  0.00     0.056 H 
ENDBRANCH  81  82
BRANCH  81  86
ATOM     86  C29 009 d   1      35.904   3.761   3.543  0.00  0.00    -0.019 C 
ATOM     87  H25 009 d   1      35.175   4.099   2.792  0.00  0.00     0.056 H 
ATOM     88  H26 009 d   1      35.756   2.689   3.742  0.00  0.00     0.056 H 
ATOM     89  H27 009 d   1      36.923   3.926   3.164  0.00  0.00     0.056 H 
ENDBRANCH  81  86
ENDBRANCH  77  81
ENDBRANCH  68  71
ENDBRANCH  65  68
ENDBRANCH  62  65
ENDBRANCH  58  62
ENDBRANCH   1  58
TORSDOF 17
