REMARK  16 active torsions:
REMARK  status: ('A' for Active; 'I' for Inactive)
REMARK       I    between atoms: C8_4  and  N1_1 
REMARK    1  A    between atoms: C6_3  and  C8_4 
REMARK    2  A    between atoms: C35_16  and  C10_5 
REMARK    3  A    between atoms: C24_7  and  N32_13 
REMARK    4  A    between atoms: S9_11  and  C27_8 
REMARK    5  A    between atoms: N32_13  and  S9_11 
REMARK    6  A    between atoms: N32_13  and  C33_14 
REMARK    7  A    between atoms: C33_14  and  C34_15 
REMARK    8  A    between atoms: C35_16  and  C11_17 
REMARK       I    between atoms: C9_27  and  N2_22 
REMARK    9  A    between atoms: C4_26  and  C9_27 
REMARK   10  A    between atoms: S10_28  and  C28_36 
REMARK   11  A    between atoms: N36_37  and  S10_28 
REMARK   12  A    between atoms: C39_40  and  C12_29 
REMARK   13  A    between atoms: C39_40  and  C13_30 
REMARK   14  A    between atoms: N36_37  and  C23_34 
REMARK   15  A    between atoms: C37_38  and  N36_37 
REMARK   16  A    between atoms: C38_39  and  C37_38 
ROOT
ATOM      1  C24 YDP d   1       6.533   2.115 -15.078  0.00  0.00     0.068 C 
ATOM      2  C25 YDP d   1       6.341   1.480 -16.457  0.00  0.00     0.103 C 
ATOM      3  N22 YDP d   1       5.594   0.223 -16.339  0.00  0.00    -0.071 N 
ATOM      4  C23 YDP d   1       5.533   1.352 -14.162  0.00  0.00     0.068 C 
ATOM      5  C26 YDP d   1       5.050   0.120 -14.966  0.00  0.00     0.103 C 
ATOM      6  H8  YDP d   1       6.236   3.172 -15.143  0.00  0.00     0.079 H 
ATOM      7  H17 YDP d   1       7.326   1.276 -16.903  0.00  0.00     0.079 H 
ATOM      8  H18 YDP d   1       5.783   2.175 -17.102  0.00  0.00     0.079 H 
ATOM      9  H19 YDP d   1       6.209  -0.555 -16.519  0.00  0.00     0.277 HD
ATOM     10  H20 YDP d   1       4.837   0.214 -17.005  0.00  0.00     0.277 HD
ATOM     11  H33 YDP d   1       6.076   1.008 -13.270  0.00  0.00     0.079 H 
ATOM     12  H34 YDP d   1       5.414  -0.802 -14.489  0.00  0.00     0.079 H 
ATOM     13  H35 YDP d   1       3.951   0.105 -15.001  0.00  0.00     0.079 H 
ENDROOT
BRANCH   1  14
ATOM     14  N32 YDP d   1       7.891   2.086 -14.514  0.00  0.00    -0.295 N 
BRANCH  14  15
ATOM     15  S9  YDP d   1       8.510   3.504 -13.770  0.00  0.00     0.261 S 
ATOM     16  O40 YDP d   1       9.769   3.149 -13.095  0.00  0.00    -0.200 OA
ATOM     17  O11 YDP d   1       7.486   4.106 -12.936  0.00  0.00    -0.200 OA
BRANCH  15  18
ATOM     18  C27 YDP d   1       9.002   4.572 -15.076  0.00  0.00     0.079 A 
ATOM     19  C20 YDP d   1       8.548   5.893 -15.069  0.00  0.00    -0.059 A 
ATOM     20  C5  YDP d   1       8.907   6.776 -16.083  0.00  0.00    -0.066 A 
ATOM     21  H7  YDP d   1       7.908   6.235 -14.264  0.00  0.00     0.085 H 
ATOM     22  C6  YDP d   1       9.743   6.341 -17.120  0.00  0.00     0.031 A 
ATOM     23  H3  YDP d   1       8.541   7.796 -16.071  0.00  0.00     0.085 H 
ATOM     24  C2  YDP d   1      10.163   5.013 -17.154  0.00  0.00    -0.066 A 
ATOM     25  C18 YDP d   1       9.816   4.126 -16.118  0.00  0.00    -0.059 A 
ATOM     26  H10 YDP d   1      10.762   4.660 -17.985  0.00  0.00     0.085 H 
ATOM     27  H9  YDP d   1      10.178   3.104 -16.129  0.00  0.00     0.085 H 
BRANCH  22  28
ATOM     28  C8  YDP d   1      10.138   7.311 -18.217  0.00  0.00     0.249 C 
ATOM     29  N1  YDP d   1       9.712   8.597 -18.168  0.00  0.00    -0.366 N 
ATOM     30  H1  YDP d   1       9.972   9.238 -18.891  0.00  0.00     0.159 HD
ATOM     31  H2  YDP d   1       9.138   8.905 -17.409  0.00  0.00     0.159 HD
ATOM     32  O2  YDP d   1      10.873   6.886 -19.088  0.00  0.00    -0.268 OA
ENDBRANCH  22  28
ENDBRANCH  15  18
ENDBRANCH  14  15
BRANCH  14  33
ATOM     33  C33 YDP d   1       8.755   0.885 -14.484  0.00  0.00     0.021 C 
ATOM     34  H11 YDP d   1       9.761   1.157 -14.837  0.00  0.00     0.071 H 
ATOM     35  H12 YDP d   1       8.328   0.119 -15.148  0.00  0.00     0.071 H 
BRANCH  33  36
ATOM     36  C34 YDP d   1       8.859   0.318 -13.072  0.00  0.00    -0.084 C 
ATOM     37  C35 YDP d   1       8.320  -0.835 -12.639  0.00  0.00    -0.090 C 
ATOM     38  H13 YDP d   1       9.423   0.902 -12.346  0.00  0.00     0.079 H 
BRANCH  37  39
ATOM     39  C10 YDP d   1       8.439  -1.268 -11.195  0.00  0.00    -0.055 C 
ATOM     40  H4  YDP d   1       7.931  -2.234 -11.059  0.00  0.00     0.033 H 
ATOM     41  H5  YDP d   1       7.971  -0.513 -10.546  0.00  0.00     0.033 H 
ATOM     42  H6  YDP d   1       9.501  -1.372 -10.930  0.00  0.00     0.033 H 
ENDBRANCH  37  39
BRANCH  37  43
ATOM     43  C11 YDP d   1       7.538  -1.797 -13.504  0.00  0.00    -0.055 C 
ATOM     44  H14 YDP d   1       7.497  -1.413 -14.534  0.00  0.00     0.033 H 
ATOM     45  H15 YDP d   1       6.516  -1.898 -13.109  0.00  0.00     0.033 H 
ATOM     46  H16 YDP d   1       8.032  -2.780 -13.498  0.00  0.00     0.033 H 
ENDBRANCH  37  43
ENDBRANCH  33  36
ENDBRANCH  14  33
ENDBRANCH   1  14
BRANCH   4  47
ATOM     47  N36 YDP d   1       4.385   2.157 -13.699  0.00  0.00    -0.295 N 
BRANCH  47  48
ATOM     48  S10 YDP d   1       4.199   2.193 -12.028  0.00  0.00     0.261 S 
ATOM     49  O12 YDP d   1       3.485   3.396 -11.636  0.00  0.00    -0.200 OA
ATOM     50  O41 YDP d   1       5.436   1.798 -11.376  0.00  0.00    -0.200 OA
BRANCH  48  51
ATOM     51  C28 YDP d   1       3.078   0.834 -11.778  0.00  0.00     0.079 A 
ATOM     52  C19 YDP d   1       3.272   0.061 -10.626  0.00  0.00    -0.059 A 
ATOM     53  C3  YDP d   1       2.396  -0.989 -10.345  0.00  0.00    -0.066 A 
ATOM     54  H31 YDP d   1       4.097   0.277  -9.957  0.00  0.00     0.085 H 
ATOM     55  C4  YDP d   1       1.383  -1.326 -11.262  0.00  0.00     0.031 A 
ATOM     56  H23 YDP d   1       2.496  -1.545  -9.420  0.00  0.00     0.085 H 
ATOM     57  C7  YDP d   1       1.186  -0.535 -12.388  0.00  0.00    -0.066 A 
ATOM     58  C21 YDP d   1       2.053   0.533 -12.668  0.00  0.00    -0.059 A 
ATOM     59  H24 YDP d   1       0.357  -0.744 -13.055  0.00  0.00     0.085 H 
ATOM     60  H32 YDP d   1       1.924   1.119 -13.571  0.00  0.00     0.085 H 
BRANCH  55  61
ATOM     61  C9  YDP d   1       0.510  -2.546 -11.008  0.00  0.00     0.249 C 
ATOM     62  N2  YDP d   1       0.377  -3.081  -9.766  0.00  0.00    -0.366 N 
ATOM     63  H21 YDP d   1       0.846  -2.663  -8.988  0.00  0.00     0.159 HD
ATOM     64  H22 YDP d   1      -0.190  -3.893  -9.630  0.00  0.00     0.159 HD
ATOM     65  O3  YDP d   1      -0.047  -3.030 -11.975  0.00  0.00    -0.268 OA
ENDBRANCH  55  61
ENDBRANCH  48  51
ENDBRANCH  47  48
BRANCH  47  66
ATOM     66  C37 YDP d   1       3.463   2.893 -14.573  0.00  0.00     0.021 C 
ATOM     67  H36 YDP d   1       2.455   2.811 -14.141  0.00  0.00     0.071 H 
ATOM     68  H37 YDP d   1       3.479   2.409 -15.561  0.00  0.00     0.071 H 
BRANCH  66  69
ATOM     69  C38 YDP d   1       3.761   4.372 -14.777  0.00  0.00    -0.084 C 
ATOM     70  C39 YDP d   1       3.710   4.993 -15.971  0.00  0.00    -0.090 C 
ATOM     71  H38 YDP d   1       4.032   4.964 -13.904  0.00  0.00     0.079 H 
BRANCH  70  72
ATOM     72  C12 YDP d   1       3.333   4.267 -17.245  0.00  0.00    -0.055 C 
ATOM     73  H25 YDP d   1       3.358   4.971 -18.090  0.00  0.00     0.033 H 
ATOM     74  H26 YDP d   1       2.319   3.852 -17.144  0.00  0.00     0.033 H 
ATOM     75  H27 YDP d   1       4.047   3.450 -17.427  0.00  0.00     0.033 H 
ENDBRANCH  70  72
BRANCH  70  76
ATOM     76  C13 YDP d   1       4.005   6.460 -16.156  0.00  0.00    -0.055 C 
ATOM     77  H28 YDP d   1       4.268   6.906 -15.186  0.00  0.00     0.033 H 
ATOM     78  H29 YDP d   1       3.116   6.964 -16.562  0.00  0.00     0.033 H 
ATOM     79  H30 YDP d   1       4.846   6.580 -16.855  0.00  0.00     0.033 H 
ENDBRANCH  70  76
ENDBRANCH  66  69
ENDBRANCH  47  66
ENDBRANCH   4  47
TORSDOF 16
