REMARK  10 active torsions:
REMARK  status: ('A' for Active; 'I' for Inactive)
REMARK    1  A    between atoms: C1_1  and  C2_4 
REMARK    2  A    between atoms: C4_6  and  N4_20 
REMARK    3  A    between atoms: C5_7  and  N5_8 
REMARK       I    between atoms: N5_8  and  C10_9 
REMARK    4  A    between atoms: C10_9  and  C11_11 
REMARK    5  A    between atoms: C6_12  and  O7_14 
REMARK    6  A    between atoms: O7_14  and  C8_15 
REMARK    7  A    between atoms: C8_15  and  C9_16 
REMARK    8  A    between atoms: C8_15  and  C81_17 
REMARK    9  A    between atoms: C9_16  and  C91_19 
REMARK   10  A    between atoms: C81_17  and  C82_18 
ROOT
ATOM      1  C2  G39 d   1    -126.969 -37.751  30.608  0.00  0.00     0.019 C 
ATOM      2  C3  G39 d   1    -126.779 -38.276  29.159  0.00  0.00    -0.006 C 
ATOM      3  C4  G39 d   1    -125.348 -38.774  28.993  0.00  0.00     0.126 C 
ATOM      4  C5  G39 d   1    -125.104 -39.857  30.032  0.00  0.00     0.068 C 
ATOM      5  C6  G39 d   1    -125.121 -39.278  31.445  0.00  0.00     0.077 C 
ATOM      6  C7  G39 d   1    -126.339 -38.347  31.650  0.00  0.00    -0.061 C 
ATOM      7  H1  G39 d   1    -126.971 -37.462  28.444  0.00  0.00     0.043 H 
ATOM      8  H2  G39 d   1    -127.481 -39.102  28.971  0.00  0.00     0.043 H 
ATOM      9  H3  G39 d   1    -124.647 -37.941  29.149  0.00  0.00     0.087 H 
ATOM     10  H4  G39 d   1    -125.871 -40.641  29.943  0.00  0.00     0.080 H 
ATOM     11  H9  G39 d   1    -124.194 -38.707  31.602  0.00  0.00     0.093 H 
ATOM     12  H10 G39 d   1    -126.701 -38.165  32.661  0.00  0.00     0.082 H 
ENDROOT
BRANCH   5  13
ATOM     13  O7  G39 d   1    -125.210 -40.305  32.416  0.00  0.00    -0.375 OA
BRANCH  13  14
ATOM     14  C8  G39 d   1    -124.058 -40.542  33.184  0.00  0.00     0.039 C 
ATOM     15  H11 G39 d   1    -123.222 -40.707  32.488  0.00  0.00     0.083 H 
BRANCH  14  16
ATOM     16  C9  G39 d   1    -123.693 -39.315  34.041  0.00  0.00    -0.044 C 
ATOM     17  H12 G39 d   1    -123.641 -38.423  33.399  0.00  0.00     0.036 H 
ATOM     18  H13 G39 d   1    -122.716 -39.481  34.519  0.00  0.00     0.036 H 
BRANCH  16  19
ATOM     19  C91 G39 d   1    -124.763 -39.101  35.126  0.00  0.00    -0.074 C 
ATOM     20  H19 G39 d   1    -124.498 -38.224  35.735  0.00  0.00     0.027 H 
ATOM     21  H20 G39 d   1    -124.816 -39.992  35.770  0.00  0.00     0.027 H 
ATOM     22  H21 G39 d   1    -125.740 -38.934  34.649  0.00  0.00     0.027 H 
ENDBRANCH  16  19
ENDBRANCH  14  16
BRANCH  14  23
ATOM     23  C81 G39 d   1    -124.228 -41.842  34.011  0.00  0.00    -0.044 C 
ATOM     24  H14 G39 d   1    -125.203 -41.830  34.520  0.00  0.00     0.036 H 
ATOM     25  H15 G39 d   1    -123.425 -41.910  34.759  0.00  0.00     0.036 H 
BRANCH  23  26
ATOM     26  C82 G39 d   1    -124.155 -43.058  33.063  0.00  0.00    -0.074 C 
ATOM     27  H16 G39 d   1    -124.275 -43.984  33.645  0.00  0.00     0.027 H 
ATOM     28  H17 G39 d   1    -123.180 -43.068  32.554  0.00  0.00     0.027 H 
ATOM     29  H18 G39 d   1    -124.958 -42.988  32.315  0.00  0.00     0.027 H 
ENDBRANCH  23  26
ENDBRANCH  14  23
ENDBRANCH  13  14
ENDBRANCH   5  13
BRANCH   4  30
ATOM     30  N5  G39 d   1    -123.779 -40.409  29.780  0.00  0.00    -0.352 N 
ATOM     31  C10 G39 d   1    -123.683 -41.802  29.343  0.00  0.00     0.214 C 
ATOM     32  O10 G39 d   1    -124.650 -42.480  29.256  0.00  0.00    -0.274 OA
ATOM     33  H5  G39 d   1    -122.958 -39.851  29.902  0.00  0.00     0.163 HD
BRANCH  31  34
ATOM     34  C11 G39 d   1    -122.297 -42.419  29.138  0.00  0.00    -0.003 C 
ATOM     35  H6  G39 d   1    -122.405 -43.464  28.812  0.00  0.00     0.040 H 
ATOM     36  H7  G39 d   1    -121.738 -42.387  30.084  0.00  0.00     0.040 H 
ATOM     37  H8  G39 d   1    -121.752 -41.850  28.370  0.00  0.00     0.040 H 
ENDBRANCH  31  34
ENDBRANCH   4  30
BRANCH   3  38
ATOM     38  N4  G39 d   1    -125.147 -39.337  27.639  0.00  0.00    -0.073 N 
ATOM     39  H22 G39 d   1    -125.309 -38.620  26.950  0.00  0.00     0.274 HD
ATOM     40  H23 G39 d   1    -125.793 -40.096  27.491  0.00  0.00     0.274 HD
ATOM     41  H24 G39 d   1    -124.202 -39.678  27.554  0.00  0.00     0.274 HD
ENDBRANCH   3  38
BRANCH   1  42
ATOM     42  C1  G39 d   1    -127.934 -36.595  30.920  0.00  0.00     0.205 C 
ATOM     43  O1A G39 d   1    -128.144 -36.338  32.064  0.00  0.00    -0.644 OA
ATOM     44  O1B G39 d   1    -128.339 -35.873  30.060  0.00  0.00    -0.644 OA
ENDBRANCH   1  42
TORSDOF 10
