REMARK  2 active torsions:
REMARK  status: ('A' for Active; 'I' for Inactive)
REMARK    1  A    between atoms: C2'_10  and  O2'_11 
REMARK    2  A    between atoms: C1'_12  and  N9_13 
ROOT
ATOM      1  P   CMP d   1      21.883 -36.817  12.035  0.00  0.00     0.408 P 
ATOM      2  O1P CMP d   1      22.157 -38.289  12.258  0.00  0.00    -0.624 OA
ATOM      3  O2P CMP d   1      21.934 -36.034  13.320  0.00  0.00    -0.624 OA
ATOM      4  O5' CMP d   1      22.929 -36.264  10.948  0.00  0.00    -0.287 OA
ATOM      5  C5' CMP d   1      22.846 -36.728   9.581  0.00  0.00     0.058 C 
ATOM      6  C4' CMP d   1      21.424 -36.438   9.093  0.00  0.00     0.090 C 
ATOM      7  O4' CMP d   1      21.102 -36.943   7.779  0.00  0.00    -0.353 OA
ATOM      8  C3' CMP d   1      20.416 -37.147   9.982  0.00  0.00     0.106 C 
ATOM      9  O3' CMP d   1      20.461 -36.613  11.315  0.00  0.00    -0.279 OA
ATOM     10  C2' CMP d   1      19.126 -37.041   9.195  0.00  0.00     0.106 C 
ATOM     11  C1' CMP d   1      19.679 -37.249   7.760  0.00  0.00     0.140 C 
ATOM     12  H1  CMP d   1      23.047 -37.809   9.536  0.00  0.00     0.079 H 
ATOM     13  H2  CMP d   1      23.576 -36.193   8.956  0.00  0.00     0.079 H 
ATOM     14  H3  CMP d   1      21.267 -35.349   9.118  0.00  0.00     0.090 H 
ATOM     15  H4  CMP d   1      20.677 -38.212  10.062  0.00  0.00     0.092 H 
ATOM     16  H5  CMP d   1      18.374 -37.788   9.489  0.00  0.00     0.093 H 
ATOM     17  H7  CMP d   1      19.173 -36.584   7.045  0.00  0.00     0.122 H 
ENDROOT
BRANCH  11  18
ATOM     18  N9  CMP d   1      19.384 -38.678   7.419  0.00  0.00    -0.294 N 
ATOM     19  C8  CMP d   1      19.980 -39.779   7.938  0.00  0.00     0.071 A 
ATOM     20  N7  CMP d   1      19.445 -40.920   7.432  0.00  0.00    -0.236 NA
ATOM     21  H8  CMP d   1      20.787 -39.752   8.669  0.00  0.00     0.144 H 
ATOM     22  C5  CMP d   1      18.476 -40.549   6.570  0.00  0.00     0.149 A 
ATOM     23  C6  CMP d   1      17.509 -41.234   5.680  0.00  0.00     0.155 A 
ATOM     24  C4  CMP d   1      18.433 -39.069   6.566  0.00  0.00     0.167 A 
ATOM     25  N6  CMP d   1      17.458 -42.586   5.602  0.00  0.00    -0.382 N 
ATOM     26  N1  CMP d   1      16.668 -40.466   4.945  0.00  0.00    -0.222 NA
ATOM     27  H9  CMP d   1      16.778 -43.041   4.976  0.00  0.00     0.157 HD
ATOM     28  H10 CMP d   1      18.100 -43.159   6.168  0.00  0.00     0.157 HD
ATOM     29  C2  CMP d   1      16.686 -39.119   4.988  0.00  0.00     0.091 A 
ATOM     30  N3  CMP d   1      17.525 -38.417   5.765  0.00  0.00    -0.222 NA
ATOM     31  H11 CMP d   1      15.987 -38.575   4.363  0.00  0.00     0.146 H 
ENDBRANCH  11  18
BRANCH  10  32
ATOM     32  O2' CMP d   1      18.612 -35.708   9.295  0.00  0.00    -0.388 OA
ATOM     33  H6  CMP d   1      18.444 -35.502  10.207  0.00  0.00     0.210 HD
ENDBRANCH  10  32
TORSDOF 2
