REMARK  11 active torsions:
REMARK  status: ('A' for Active; 'I' for Inactive)
REMARK    1  A    between atoms: CAA_1  and  CB_2 
REMARK    2  A    between atoms: CB_2  and  CA_3 
REMARK    3  A    between atoms: CA_3  and  N_4 
REMARK    4  A    between atoms: CA_3  and  C_5 
REMARK       I    between atoms: C_5  and  NAX_7 
REMARK    5  A    between atoms: NAX_7  and  CBI_8 
REMARK    6  A    between atoms: CBE_12  and  CAR_13 
REMARK    7  A    between atoms: CAR_13  and  OAF_14 
REMARK    8  A    between atoms: CBG_20  and  CAZ_21 
REMARK       I    between atoms: CAZ_21  and  NAW_23 
REMARK    9  A    between atoms: NAW_23  and  CBH_24 
REMARK   10  A    between atoms: CBH_24  and  CBC_25 
REMARK   11  A    between atoms: CBH_24  and  CBB_31 
ROOT
ATOM      1  CBI X22 d   1     -40.431  -6.685 -44.884  0.00  0.00     0.095 C 
ATOM      2  CBA X22 d   1     -41.323  -7.581 -45.791  0.00  0.00     0.244 C 
ATOM      3  OAE X22 d   1     -40.813  -8.485 -46.465  0.00  0.00    -0.271 OA
ATOM      4  NBJ X22 d   1     -42.655  -7.422 -45.784  0.00  0.00    -0.332 N 
ATOM      5  CBE X22 d   1     -40.364  -5.158 -45.154  0.00  0.00    -0.005 C 
ATOM      6  CAS X22 d   1     -41.723  -4.435 -44.927  0.00  0.00    -0.056 C 
ATOM      7  CAT X22 d   1     -42.974  -5.048 -45.590  0.00  0.00    -0.045 C 
ATOM      8  CBF X22 d   1     -43.378  -6.404 -45.005  0.00  0.00     0.015 C 
ATOM      9  CAU X22 d   1     -44.865  -6.635 -45.263  0.00  0.00    -0.044 C 
ATOM     10  CAV X22 d   1     -44.959  -8.054 -45.818  0.00  0.00    -0.036 C 
ATOM     11  CBG X22 d   1     -43.612  -8.271 -46.538  0.00  0.00     0.092 C 
ATOM     12  H11 X22 d   1     -40.920  -6.743 -43.900  0.00  0.00     0.088 H 
ATOM     13  H12 X22 d   1     -39.695  -4.763 -44.376  0.00  0.00     0.047 H 
ATOM     14  H16 X22 d   1     -41.618  -3.408 -45.307  0.00  0.00     0.033 H 
ATOM     15  H17 X22 d   1     -41.905  -4.407 -43.843  0.00  0.00     0.033 H 
ATOM     16  H18 X22 d   1     -42.769  -5.180 -46.663  0.00  0.00     0.036 H 
ATOM     17  H19 X22 d   1     -43.814  -4.349 -45.460  0.00  0.00     0.036 H 
ATOM     18  H20 X22 d   1     -43.143  -6.464 -43.932  0.00  0.00     0.072 H 
ATOM     19  H21 X22 d   1     -45.247  -5.908 -45.995  0.00  0.00     0.036 H 
ATOM     20  H22 X22 d   1     -45.437  -6.548 -44.327  0.00  0.00     0.036 H 
ATOM     21  H23 X22 d   1     -45.797  -8.141 -46.525  0.00  0.00     0.036 H 
ATOM     22  H24 X22 d   1     -45.088  -8.783 -45.004  0.00  0.00     0.036 H 
ATOM     23  H25 X22 d   1     -43.304  -9.323 -46.442  0.00  0.00     0.087 H 
ENDROOT
BRANCH  11  24
ATOM     24  CAZ X22 d   1     -43.733  -7.962 -48.026  0.00  0.00     0.241 C 
ATOM     25  OAD X22 d   1     -44.622  -7.233 -48.454  0.00  0.00    -0.271 OA
ATOM     26  NAW X22 d   1     -42.839  -8.563 -48.793  0.00  0.00    -0.347 N 
ATOM     27  H26 X22 d   1     -42.143  -9.152 -48.381  0.00  0.00     0.163 HD
BRANCH  26  28
ATOM     28  CBH X22 d   1     -42.866  -8.367 -50.251  0.00  0.00     0.063 C 
ATOM     29  H27 X22 d   1     -43.822  -7.891 -50.514  0.00  0.00     0.088 H 
BRANCH  28  30
ATOM     30  CBC X22 d   1     -41.741  -7.420 -50.728  0.00  0.00    -0.031 A 
ATOM     31  CAO X22 d   1     -41.240  -7.501 -52.036  0.00  0.00    -0.074 A 
ATOM     32  CAK X22 d   1     -40.235  -6.632 -52.466  0.00  0.00    -0.082 A 
ATOM     33  H28 X22 d   1     -41.636  -8.244 -52.718  0.00  0.00     0.084 H 
ATOM     34  CAH X22 d   1     -39.732  -5.666 -51.591  0.00  0.00    -0.083 A 
ATOM     35  H29 X22 d   1     -39.846  -6.707 -53.475  0.00  0.00     0.083 H 
ATOM     36  CAL X22 d   1     -40.232  -5.571 -50.287  0.00  0.00    -0.082 A 
ATOM     37  H30 X22 d   1     -38.953  -4.989 -51.922  0.00  0.00     0.083 H 
ATOM     38  CAP X22 d   1     -41.237  -6.443 -49.857  0.00  0.00    -0.074 A 
ATOM     39  H31 X22 d   1     -39.840  -4.821 -49.610  0.00  0.00     0.083 H 
ATOM     40  H32 X22 d   1     -41.627  -6.364 -48.849  0.00  0.00     0.084 H 
ENDBRANCH  28  30
BRANCH  28  41
ATOM     41  CBB X22 d   1     -42.829  -9.741 -50.918  0.00  0.00    -0.031 A 
ATOM     42  CAM X22 d   1     -43.926 -10.155 -51.665  0.00  0.00    -0.074 A 
ATOM     43  CAI X22 d   1     -43.907 -11.411 -52.275  0.00  0.00    -0.082 A 
ATOM     44  H33 X22 d   1     -44.789  -9.508 -51.773  0.00  0.00     0.084 H 
ATOM     45  CAG X22 d   1     -42.798 -12.251 -52.133  0.00  0.00    -0.083 A 
ATOM     46  H34 X22 d   1     -44.758 -11.737 -52.862  0.00  0.00     0.083 H 
ATOM     47  CAJ X22 d   1     -41.702 -11.831 -51.378  0.00  0.00    -0.082 A 
ATOM     48  H35 X22 d   1     -42.790 -13.225 -52.608  0.00  0.00     0.083 H 
ATOM     49  CAN X22 d   1     -41.724 -10.577 -50.769  0.00  0.00    -0.074 A 
ATOM     50  H36 X22 d   1     -40.838 -12.476 -51.266  0.00  0.00     0.083 H 
ATOM     51  H37 X22 d   1     -40.877 -10.251 -50.176  0.00  0.00     0.084 H 
ENDBRANCH  28  41
ENDBRANCH  26  28
ENDBRANCH  11  24
BRANCH   1  52
ATOM     52  NAX X22 d   1     -39.111  -7.302 -44.685  0.00  0.00    -0.346 N 
ATOM     53  C   X22 d   1     -38.931  -8.015 -43.583  0.00  0.00     0.248 C 
ATOM     54  O   X22 d   1     -39.794  -8.171 -42.721  0.00  0.00    -0.271 OA
ATOM     55  H10 X22 d   1     -38.378  -7.188 -45.355  0.00  0.00     0.163 HD
BRANCH  53  56
ATOM     56  CA  X22 d   1     -37.558  -8.638 -43.418  0.00  0.00     0.175 C 
ATOM     57  H6  X22 d   1     -36.878  -8.192 -44.159  0.00  0.00     0.099 H 
BRANCH  56  58
ATOM     58  CB  X22 d   1     -37.611 -10.165 -43.675  0.00  0.00    -0.034 C 
ATOM     59  H4  X22 d   1     -37.935 -10.325 -44.714  0.00  0.00     0.036 H 
ATOM     60  H5  X22 d   1     -36.597 -10.569 -43.540  0.00  0.00     0.036 H 
BRANCH  58  61
ATOM     61  CAA X22 d   1     -38.557 -10.940 -42.758  0.00  0.00    -0.074 C 
ATOM     62  H1  X22 d   1     -38.525 -12.009 -43.017  0.00  0.00     0.027 H 
ATOM     63  H2  X22 d   1     -39.582 -10.563 -42.886  0.00  0.00     0.027 H 
ATOM     64  H3  X22 d   1     -38.245 -10.807 -41.712  0.00  0.00     0.027 H 
ENDBRANCH  58  61
ENDBRANCH  56  58
BRANCH  56  65
ATOM     65  N   X22 d   1     -37.054  -8.318 -42.073  0.00  0.00    -0.067 N 
ATOM     66  H7  X22 d   1     -37.037  -7.318 -41.950  0.00  0.00     0.275 HD
ATOM     67  H8  X22 d   1     -36.121  -8.686 -41.967  0.00  0.00     0.275 HD
ATOM     68  H9  X22 d   1     -37.659  -8.731 -41.380  0.00  0.00     0.275 HD
ENDBRANCH  56  65
ENDBRANCH  53  56
ENDBRANCH   1  52
BRANCH   5  69
ATOM     69  CAR X22 d   1     -39.692  -4.776 -46.484  0.00  0.00     0.022 C 
ATOM     70  H13 X22 d   1     -40.103  -3.822 -46.846  0.00  0.00     0.074 H 
ATOM     71  H14 X22 d   1     -39.877  -5.562 -47.231  0.00  0.00     0.074 H 
BRANCH  69  72
ATOM     72  OAF X22 d   1     -38.278  -4.641 -46.264  0.00  0.00    -0.400 OA
ATOM     73  H15 X22 d   1     -37.853  -4.405 -47.080  0.00  0.00     0.209 HD
ENDBRANCH  69  72
ENDBRANCH   5  69
TORSDOF 11
