REMARK  5 active torsions:
REMARK  status: ('A' for Active; 'I' for Inactive)
REMARK    1  A    between atoms: CAA_1  and  CAM_2 
REMARK    2  A    between atoms: CAQ_4  and  OAC_5 
REMARK    3  A    between atoms: CAN_6  and  CAB_7 
REMARK    4  A    between atoms: CAP_9  and  CAE_10 
REMARK    5  A    between atoms: CAD_11  and  CAO_12 
ROOT
ATOM      1  CAM LJ1 d   1      -0.526   1.136  -9.629  0.00  0.00    -0.028 A 
ATOM      2  CAK LJ1 d   1      -0.740   0.953  -8.274  0.00  0.00    -0.065 A 
ATOM      3  CAQ LJ1 d   1      -0.141   0.034 -10.408  0.00  0.00     0.077 A 
ATOM      4  CAN LJ1 d   1       0.051  -1.241  -9.838  0.00  0.00    -0.028 A 
ATOM      5  CAL LJ1 d   1      -0.185  -1.419  -8.492  0.00  0.00    -0.065 A 
ATOM      6  CAP LJ1 d   1      -0.584  -0.321  -7.740  0.00  0.00    -0.035 A 
ATOM      7  H4  LJ1 d   1      -1.024   1.786  -7.642  0.00  0.00     0.085 H 
ATOM      8  H9  LJ1 d   1      -0.062  -2.392  -8.031  0.00  0.00     0.085 H 
ENDROOT
BRANCH   6   9
ATOM      9  CAE LJ1 d   1      -0.762  -0.433  -6.390  0.00  0.00    -0.072 C 
ATOM     10  CAD LJ1 d   1       0.442  -0.290  -5.720  0.00  0.00    -0.072 C 
ATOM     11  H11 LJ1 d   1       1.374  -0.159  -6.268  0.00  0.00     0.084 H 
ATOM     12  H10 LJ1 d   1      -1.721  -0.611  -5.906  0.00  0.00     0.084 H 
BRANCH  10  13
ATOM     13  CAO LJ1 d   1       0.431  -0.318  -4.351  0.00  0.00    -0.036 A 
ATOM     14  CAI LJ1 d   1      -0.453   0.566  -3.706  0.00  0.00    -0.073 A 
ATOM     15  CAG LJ1 d   1      -0.462   0.545  -2.333  0.00  0.00    -0.082 A 
ATOM     16  H12 LJ1 d   1      -1.097   1.233  -4.267  0.00  0.00     0.084 H 
ATOM     17  CAF LJ1 d   1       0.393  -0.276  -1.603  0.00  0.00    -0.083 A 
ATOM     18  H13 LJ1 d   1      -1.155   1.187  -1.802  0.00  0.00     0.083 H 
ATOM     19  CAH LJ1 d   1       1.286  -1.143  -2.251  0.00  0.00    -0.082 A 
ATOM     20  H14 LJ1 d   1       0.369  -0.245  -0.520  0.00  0.00     0.083 H 
ATOM     21  CAJ LJ1 d   1       1.283  -1.140  -3.638  0.00  0.00    -0.073 A 
ATOM     22  H15 LJ1 d   1       1.952  -1.789  -1.690  0.00  0.00     0.083 H 
ATOM     23  H16 LJ1 d   1       1.962  -1.795  -4.173  0.00  0.00     0.084 H 
ENDBRANCH  10  13
ENDBRANCH   6   9
BRANCH   1  24
ATOM     24  CAA LJ1 d   1      -0.713   2.516 -10.274  0.00  0.00    -0.049 C 
ATOM     25  H1  LJ1 d   1      -1.013   3.243  -9.505  0.00  0.00     0.033 H 
ATOM     26  H2  LJ1 d   1      -1.493   2.457 -11.047  0.00  0.00     0.033 H 
ATOM     27  H3  LJ1 d   1       0.234   2.838 -10.732  0.00  0.00     0.033 H 
ENDBRANCH   1  24
BRANCH   4  28
ATOM     28  CAB LJ1 d   1       0.468  -2.440 -10.682  0.00  0.00    -0.049 C 
ATOM     29  H6  LJ1 d   1       0.559  -3.327 -10.038  0.00  0.00     0.033 H 
ATOM     30  H7  LJ1 d   1       1.437  -2.233 -11.160  0.00  0.00     0.033 H 
ATOM     31  H8  LJ1 d   1      -0.291  -2.625 -11.456  0.00  0.00     0.033 H 
ENDBRANCH   4  28
BRANCH   3  32
ATOM     32  OAC LJ1 d   1       0.058   0.232 -11.722  0.00  0.00    -0.360 OA
ATOM     33  H5  LJ1 d   1       0.313  -0.588 -12.130  0.00  0.00     0.217 HD
ENDBRANCH   3  32
TORSDOF 5
