REMARK  10 active torsions:
REMARK  status: ('A' for Active; 'I' for Inactive)
REMARK    1  A    between atoms: C8_5  and  N25_14 
REMARK    2  A    between atoms: C12_23  and  C13_7 
REMARK    3  A    between atoms: C20_10  and  C15_8 
REMARK    4  A    between atoms: S33_12  and  C17_9 
REMARK    5  A    between atoms: C18_32  and  C20_10 
REMARK    6  A    between atoms: C20_10  and  C16_33 
REMARK    7  A    between atoms: N25_14  and  S33_12 
REMARK    8  A    between atoms: C11_24  and  O31_25 
REMARK    9  A    between atoms: C19_31  and  N24_28 
REMARK   10  A    between atoms: C19_31  and  C18_32 
ROOT
ATOM      1  C4  3MS d   1      31.507  46.149  49.359  0.00  0.00    -0.051 A 
ATOM      2  C6  3MS d   1      32.591  44.298  48.648  0.00  0.00     0.003 A 
ATOM      3  C10 3MS d   1      32.191  45.616  50.433  0.00  0.00     0.090 A 
ATOM      4  C12 3MS d   1      32.989  45.178  52.666  0.00  0.00     0.115 C 
ATOM      5  C11 3MS d   1      32.332  45.988  51.790  0.00  0.00     0.114 C 
ATOM      6  C14 3MS d   1      33.769  44.009  52.153  0.00  0.00     0.279 C 
ATOM      7  O26 3MS d   1      34.378  43.324  52.966  0.00  0.00    -0.265 OA
ATOM      8  N24 3MS d   1      33.655  43.698  50.799  0.00  0.00    -0.250 N 
ATOM      9  N22 3MS d   1      32.848  44.500  49.980  0.00  0.00    -0.260 N 
ATOM     10  C1  3MS d   1      31.762  45.320  48.242  0.00  0.00    -0.064 A 
ATOM     11  H1  3MS d   1      30.886  47.043  49.370  0.00  0.00     0.087 H 
ATOM     12  H3  3MS d   1      32.970  43.485  48.030  0.00  0.00     0.114 H 
ATOM     13  H16 3MS d   1      31.371  45.465  47.236  0.00  0.00     0.085 H 
ENDROOT
BRANCH   4  14
ATOM     14  C13 3MS d   1      32.951  45.370  54.126  0.00  0.00     0.156 C 
ATOM     15  N23 3MS d   1      31.980  46.307  54.539  0.00  0.00    -0.263 N 
ATOM     16  S32 3MS d   1      31.875  46.779  56.152  0.00  0.00     0.266 S 
ATOM     17  H13 3MS d   1      31.348  46.694  53.867  0.00  0.00     0.180 HD
ATOM     18  C9  3MS d   1      32.514  45.378  56.990  0.00  0.00     0.110 A 
ATOM     19  O27 3MS d   1      30.471  46.951  56.470  0.00  0.00    -0.200 OA
ATOM     20  O28 3MS d   1      32.859  47.804  56.412  0.00  0.00    -0.200 OA
ATOM     21  C5  3MS d   1      32.179  45.160  58.331  0.00  0.00    -0.032 A 
ATOM     22  C7  3MS d   1      33.385  44.532  56.285  0.00  0.00     0.082 A 
ATOM     23  C8  3MS d   1      32.735  44.056  58.989  0.00  0.00     0.043 A 
ATOM     24  H2  3MS d   1      31.504  45.831  58.849  0.00  0.00     0.089 H 
ATOM     25  C3  3MS d   1      33.607  43.191  58.311  0.00  0.00    -0.054 A 
ATOM     26  C2  3MS d   1      33.934  43.429  56.967  0.00  0.00    -0.051 A 
ATOM     27  H12 3MS d   1      34.029  42.336  58.827  0.00  0.00     0.087 H 
ATOM     28  H14 3MS d   1      34.613  42.760  56.451  0.00  0.00     0.087 H 
ATOM     29  N21 3MS d   1      33.744  44.730  54.946  0.00  0.00    -0.228 NA
BRANCH  23  30
ATOM     30  N25 3MS d   1      32.424  43.774  60.352  0.00  0.00    -0.285 N 
ATOM     31  H11 3MS d   1      32.275  42.825  60.631  0.00  0.00     0.178 HD
BRANCH  30  32
ATOM     32  S33 3MS d   1      32.300  45.015  61.521  0.00  0.00     0.227 S 
ATOM     33  O30 3MS d   1      32.804  46.290  61.034  0.00  0.00    -0.206 OA
ATOM     34  O29 3MS d   1      32.750  44.465  62.789  0.00  0.00    -0.206 OA
BRANCH  32  35
ATOM     35  C17 3MS d   1      30.532  45.165  61.615  0.00  0.00     0.033 C 
ATOM     36  H7  3MS d   1      30.148  45.580  60.671  0.00  0.00     0.051 H 
ATOM     37  H8  3MS d   1      30.265  45.835  62.445  0.00  0.00     0.051 H 
ATOM     38  H9  3MS d   1      30.088  44.173  61.787  0.00  0.00     0.051 H 
ENDBRANCH  32  35
ENDBRANCH  30  32
ENDBRANCH  23  30
ENDBRANCH   4  14
BRANCH   5  39
ATOM     39  O31 3MS d   1      31.798  47.223  52.072  0.00  0.00    -0.357 OA
ATOM     40  H15 3MS d   1      31.144  47.135  52.755  0.00  0.00     0.217 HD
ENDBRANCH   5  39
BRANCH   8  41
ATOM     41  C19 3MS d   1      34.338  42.519  50.286  0.00  0.00     0.019 C 
ATOM     42  H17 3MS d   1      33.679  42.014  49.564  0.00  0.00     0.067 H 
ATOM     43  H18 3MS d   1      34.552  41.840  51.125  0.00  0.00     0.067 H 
BRANCH  41  44
ATOM     44  C18 3MS d   1      35.661  42.873  49.586  0.00  0.00    -0.045 C 
ATOM     45  H19 3MS d   1      36.197  41.926  49.430  0.00  0.00     0.036 H 
ATOM     46  H20 3MS d   1      35.395  43.309  48.612  0.00  0.00     0.036 H 
BRANCH  44  47
ATOM     47  C20 3MS d   1      36.672  43.853  50.251  0.00  0.00    -0.060 C 
ATOM     48  H10 3MS d   1      36.138  44.793  50.455  0.00  0.00     0.038 H 
BRANCH  47  49
ATOM     49  C15 3MS d   1      37.819  44.140  49.273  0.00  0.00    -0.073 C 
ATOM     50  H4  3MS d   1      38.535  44.832  49.740  0.00  0.00     0.028 H 
ATOM     51  H5  3MS d   1      37.414  44.594  48.357  0.00  0.00     0.028 H 
ATOM     52  H6  3MS d   1      38.330  43.199  49.021  0.00  0.00     0.028 H 
ENDBRANCH  47  49
BRANCH  47  53
ATOM     53  C16 3MS d   1      37.266  43.358  51.578  0.00  0.00    -0.073 C 
ATOM     54  H21 3MS d   1      37.965  44.111  51.971  0.00  0.00     0.028 H 
ATOM     55  H22 3MS d   1      37.803  42.413  51.410  0.00  0.00     0.028 H 
ATOM     56  H23 3MS d   1      36.456  43.195  52.304  0.00  0.00     0.028 H 
ENDBRANCH  47  53
ENDBRANCH  44  47
ENDBRANCH  41  44
ENDBRANCH   8  41
TORSDOF 10
