REMARK  5 active torsions:
REMARK  status: ('A' for Active; 'I' for Inactive)
REMARK    1  A    between atoms: C15_10  and  C48_24 
REMARK    2  A    between atoms: N16_13  and  C27_14 
REMARK    3  A    between atoms: C27_14  and  C28_15 
REMARK    4  A    between atoms: C17_16  and  C26_17 
REMARK    5  A    between atoms: C17_16  and  C25_18 
ROOT
ATOM      1  C4  83H d   1      -0.595  63.578  42.262  0.00  0.00     0.044 A 
ATOM      2  C5  83H d   1      -1.118  62.728  43.371  0.00  0.00     0.001 A 
ATOM      3  C6  83H d   1      -1.648  61.464  43.159  0.00  0.00    -0.044 A 
ATOM      4  C7  83H d   1      -1.320  63.069  46.040  0.00  0.00    -0.038 C 
ATOM      5  C8  83H d   1      -0.313  64.699  44.117  0.00  0.00     0.069 A 
ATOM      6  C9  83H d   1      -0.968  63.484  44.630  0.00  0.00    -0.017 A 
ATOM      7  C10 83H d   1      -0.003  65.892  44.957  0.00  0.00     0.085 A 
ATOM      8  C11 83H d   1      -0.300  66.073  46.399  0.00  0.00    -0.002 A 
ATOM      9  C12 83H d   1      -0.787  65.096  47.441  0.00  0.00    -0.036 C 
ATOM     10  C15 83H d   1       0.074  67.496  46.607  0.00  0.00     0.059 A 
ATOM     11  O24 83H d   1      -2.320  58.829  39.315  0.00  0.00    -0.272 OA
ATOM     12  C23 83H d   1      -1.951  59.835  40.016  0.00  0.00     0.237 A 
ATOM     13  N16 83H d   1      -2.138  59.805  41.334  0.00  0.00    -0.317 N 
ATOM     14  C17 83H d   1      -1.343  61.083  39.445  0.00  0.00     0.063 A 
ATOM     15  C2  83H d   1      -1.172  61.811  40.734  0.00  0.00    -0.012 A 
ATOM     16  C3  83H d   1      -0.639  63.094  40.956  0.00  0.00    -0.047 A 
ATOM     17  C1  83H d   1      -1.693  60.971  41.863  0.00  0.00     0.045 A 
ATOM     18  N7  83H d   1      -0.165  64.735  42.781  0.00  0.00    -0.353 N 
ATOM     19  C47 83H d   1      -1.890  64.227  46.854  0.00  0.00    -0.058 C 
ATOM     20  N14 83H d   1       0.440  67.967  45.404  0.00  0.00    -0.179 NA
ATOM     21  N13 83H d   1       0.379  67.032  44.369  0.00  0.00    -0.275 N 
ATOM     22  H1  83H d   1      -2.019  60.873  43.989  0.00  0.00     0.088 H 
ATOM     23  H2  83H d   1      -0.412  62.699  46.538  0.00  0.00     0.040 H 
ATOM     24  H3  83H d   1      -2.068  62.264  45.996  0.00  0.00     0.040 H 
ATOM     25  H4  83H d   1      -1.180  65.650  48.306  0.00  0.00     0.040 H 
ATOM     26  H5  83H d   1       0.049  64.458  47.763  0.00  0.00     0.040 H 
ATOM     27  H17 83H d   1      -0.271  63.692  40.130  0.00  0.00     0.088 H 
ATOM     28  H18 83H d   1       0.218  65.526  42.243  0.00  0.00     0.166 HD
ATOM     29  H19 83H d   1      -2.499  63.821  47.675  0.00  0.00     0.033 H 
ATOM     30  H20 83H d   1      -2.522  64.846  46.200  0.00  0.00     0.033 H 
ATOM     31  H24 83H d   1       0.583  67.186  43.371  0.00  0.00     0.189 HD
ENDROOT
BRANCH  14  32
ATOM     32  C26 83H d   1      -0.043  60.805  38.705  0.00  0.00    -0.057 C 
ATOM     33  H11 83H d   1      -0.261  60.268  37.770  0.00  0.00     0.029 H 
ATOM     34  H12 83H d   1       0.614  60.190  39.337  0.00  0.00     0.029 H 
ATOM     35  H13 83H d   1       0.458  61.757  38.473  0.00  0.00     0.029 H 
ENDBRANCH  14  32
BRANCH  14  36
ATOM     36  C25 83H d   1      -2.364  61.817  38.583  0.00  0.00    -0.057 C 
ATOM     37  H14 83H d   1      -3.280  61.990  39.167  0.00  0.00     0.029 H 
ATOM     38  H15 83H d   1      -2.603  61.208  37.699  0.00  0.00     0.029 H 
ATOM     39  H16 83H d   1      -1.946  62.782  38.261  0.00  0.00     0.029 H 
ENDBRANCH  14  36
BRANCH  13  40
ATOM     40  C27 83H d   1      -2.738  58.674  42.044  0.00  0.00    -0.000 C 
ATOM     41  H6  83H d   1      -2.044  58.316  42.819  0.00  0.00     0.064 H 
ATOM     42  H7  83H d   1      -2.944  57.861  41.333  0.00  0.00     0.064 H 
BRANCH  40  43
ATOM     43  C28 83H d   1      -4.033  59.122  42.691  0.00  0.00    -0.061 C 
ATOM     44  H8  83H d   1      -4.488  58.275  43.226  0.00  0.00     0.029 H 
ATOM     45  H9  83H d   1      -4.726  59.480  41.915  0.00  0.00     0.029 H 
ATOM     46  H10 83H d   1      -3.826  59.936  43.401  0.00  0.00     0.029 H 
ENDBRANCH  40  43
ENDBRANCH  13  40
BRANCH  10  47
ATOM     47  C48 83H d   1       0.056  68.278  47.901  0.00  0.00    -0.033 C 
ATOM     48  H21 83H d   1       0.391  69.308  47.711  0.00  0.00     0.035 H 
ATOM     49  H22 83H d   1       0.730  67.801  48.627  0.00  0.00     0.035 H 
ATOM     50  H23 83H d   1      -0.967  68.294  48.306  0.00  0.00     0.035 H 
ENDBRANCH  10  47
TORSDOF 5
