REMARK WARNING: 32 MAX_TORS EXCEEDED!!!
REMARK  33 active torsions:
REMARK  status: ('A' for Active; 'I' for Inactive)
REMARK    1  A    between atoms: CA_2  and  C_3 
REMARK       I    between atoms: C_3  and  N_8 
REMARK    2  A    between atoms: N_8  and  CA_9 
REMARK    3  A    between atoms: CA_9  and  C_10 
REMARK    4  A    between atoms: CA_9  and  CB_12 
REMARK       I    between atoms: C_10  and  N_17 
REMARK    5  A    between atoms: CB_12  and  CG_13 
REMARK    6  A    between atoms: CG_13  and  CD_14 
REMARK       I    between atoms: CD_14  and  NE2_16 
REMARK    7  A    between atoms: N_17  and  CA_18 
REMARK    8  A    between atoms: CA_18  and  CB_19 
REMARK    9  A    between atoms: CA_18  and  C_21 
REMARK   10  A    between atoms: CB_19  and  OG_20 
REMARK   11  A    between atoms: OG_20  and  P_23 
REMARK       I    between atoms: C_21  and  N_27 
REMARK   12  A    between atoms: CA_28  and  C_29 
REMARK       I    between atoms: C_29  and  N_34 
REMARK   13  A    between atoms: N_34  and  CA_35 
REMARK   14  A    between atoms: CA_35  and  C_36 
REMARK   15  A    between atoms: CA_35  and  CB_38 
REMARK       I    between atoms: C_36  and  N_41 
REMARK   16  A    between atoms: CB_38  and  OG1_39 
REMARK   17  A    between atoms: CB_38  and  CG2_40 
REMARK   18  A    between atoms: N_41  and  CA_42 
REMARK   19  A    between atoms: CA_42  and  C_43 
REMARK   20  A    between atoms: CA_42  and  CB_45 
REMARK       I    between atoms: C_43  and  N_52 
REMARK   21  A    between atoms: CB_45  and  CG_46 
REMARK   22  A    between atoms: CA_53  and  C_54 
REMARK       I    between atoms: C_54  and  N_59 
REMARK   23  A    between atoms: N_59  and  CA_60 
REMARK   24  A    between atoms: CA_60  and  C_61 
REMARK   25  A    between atoms: CA_60  and  CB_63 
REMARK       I    between atoms: C_61  and  N_68 
REMARK   26  A    between atoms: CB_63  and  CG_64 
REMARK   27  A    between atoms: CG_64  and  CD_65 
REMARK   28  A    between atoms: N_68  and  CA_69 
REMARK   29  A    between atoms: CA_69  and  C_70 
REMARK   30  A    between atoms: CA_69  and  CB_72 
REMARK       I    between atoms: C_70  and  N_73 
REMARK   31  A    between atoms: N_73  and  CA_74 
REMARK   32  A    between atoms: CA_74  and  C_75 
REMARK   33  A    between atoms: C_75  and  O_142 
ROOT
ATOM      1  CA  THR d   1       5.080 -15.063 -18.218  0.00  0.00     0.113 C 
ATOM      2  H30 THR d   1       5.661 -15.422 -19.081  0.00  0.00     0.091 H 
ENDROOT
BRANCH   1   3
ATOM      3  N   THR d   1       3.915 -15.926 -18.047  0.00  0.00    -0.344 N 
ATOM      4  C   PRO d   1       3.722 -17.024 -18.771  0.00  0.00     0.241 C 
ATOM      5  O   PRO d   1       4.428 -17.344 -19.731  0.00  0.00    -0.271 OA
ATOM      6  H29 THR d   1       3.234 -15.681 -17.357  0.00  0.00     0.163 HD
BRANCH   4   7
ATOM      7  CA  PRO d   1       2.541 -17.898 -18.366  0.00  0.00     0.091 C 
ATOM      8  N   PRO d   1       1.852 -18.470 -19.519  0.00  0.00    -0.337 N 
ATOM      9  C   SEP d   1       1.277 -17.710 -20.451  0.00  0.00     0.245 C 
ATOM     10  CD  PRO d   1       1.885 -19.944 -19.503  0.00  0.00    -0.001 C 
ATOM     11  O   SEP d   1       1.291 -16.478 -20.417  0.00  0.00    -0.271 OA
ATOM     12  CG  PRO d   1       2.198 -20.247 -18.077  0.00  0.00    -0.048 C 
ATOM     13  H27 PRO d   1       2.668 -20.331 -20.172  0.00  0.00     0.064 H 
ATOM     14  H28 PRO d   1       0.912 -20.366 -19.794  0.00  0.00     0.064 H 
ATOM     15  CB  PRO d   1       3.052 -19.133 -17.616  0.00  0.00    -0.036 C 
ATOM     16  H25 PRO d   1       1.274 -20.295 -17.482  0.00  0.00     0.035 H 
ATOM     17  H26 PRO d   1       2.736 -21.203 -17.996  0.00  0.00     0.035 H 
ATOM     18  H23 PRO d   1       2.951 -18.994 -16.529  0.00  0.00     0.036 H 
ATOM     19  H24 PRO d   1       4.106 -19.327 -17.864  0.00  0.00     0.036 H 
ATOM     20  H22 PRO d   1       1.845 -17.312 -17.747  0.00  0.00     0.087 H 
BRANCH   9  21
ATOM     21  CA  SEP d   1       0.594 -18.438 -21.603  0.00  0.00     0.110 C 
ATOM     22  H19 SEP d   1       0.451 -19.485 -21.299  0.00  0.00     0.090 H 
BRANCH  21  23
ATOM     23  N   SEP d   1      -0.722 -17.890 -21.928  0.00  0.00    -0.344 N 
ATOM     24  C   GLN d   1      -1.831 -18.332 -21.343  0.00  0.00     0.241 C 
ATOM     25  O   GLN d   1      -1.828 -19.221 -20.490  0.00  0.00    -0.271 OA
ATOM     26  H18 SEP d   1      -0.790 -17.162 -22.610  0.00  0.00     0.163 HD
BRANCH  24  27
ATOM     27  CA  GLN d   1      -3.148 -17.690 -21.776  0.00  0.00     0.090 C 
ATOM     28  H11 GLN d   1      -3.449 -18.103 -22.750  0.00  0.00     0.087 H 
BRANCH  27  29
ATOM     29  N   GLN d   1      -4.154 -18.038 -20.775  0.00  0.00    -0.346 N 
ATOM     30  C   PRO d   1      -5.350 -18.559 -21.064  0.00  0.00     0.249 C 
ATOM     31  O   PRO d   1      -5.834 -18.586 -22.202  0.00  0.00    -0.271 OA
ATOM     32  H10 GLN d   1      -3.933 -17.876 -19.813  0.00  0.00     0.163 HD
BRANCH  30  33
ATOM     33  CA  PRO d   1      -6.144 -19.122 -19.878  0.00  0.00     0.178 C 
ATOM     34  N   PRO d   1      -5.467 -20.266 -19.268  0.00  0.00    -0.062 N 
ATOM     35  CD  PRO d   1      -4.642 -19.874 -18.113  0.00  0.00     0.083 C 
ATOM     36  H1  PRO d   1      -4.874 -20.698 -19.959  0.00  0.00     0.278 HD
ATOM     37  H2  PRO d   1      -6.162 -20.928 -18.960  0.00  0.00     0.278 HD
ATOM     38  CG  PRO d   1      -5.378 -18.676 -17.587  0.00  0.00    -0.040 C 
ATOM     39  H8  PRO d   1      -3.621 -19.609 -18.424  0.00  0.00     0.075 H 
ATOM     40  H9  PRO d   1      -4.600 -20.677 -17.362  0.00  0.00     0.075 H 
ATOM     41  CB  PRO d   1      -6.226 -18.103 -18.726  0.00  0.00    -0.028 C 
ATOM     42  H6  PRO d   1      -6.028 -18.975 -16.752  0.00  0.00     0.035 H 
ATOM     43  H7  PRO d   1      -4.659 -17.919 -17.240  0.00  0.00     0.035 H 
ATOM     44  H4  PRO d   1      -7.269 -17.980 -18.400  0.00  0.00     0.036 H 
ATOM     45  H5  PRO d   1      -5.825 -17.131 -19.048  0.00  0.00     0.036 H 
ATOM     46  H3  PRO d   1      -7.150 -19.404 -20.221  0.00  0.00     0.099 H 
ENDBRANCH  30  33
ENDBRANCH  27  29
BRANCH  27  47
ATOM     47  CB  GLN d   1      -3.004 -16.170 -21.917  0.00  0.00    -0.030 C 
ATOM     48  H12 GLN d   1      -2.039 -15.960 -22.402  0.00  0.00     0.037 H 
ATOM     49  H13 GLN d   1      -3.011 -15.729 -20.909  0.00  0.00     0.037 H 
BRANCH  47  50
ATOM     50  CG  GLN d   1      -4.107 -15.504 -22.738  0.00  0.00     0.011 C 
ATOM     51  H14 GLN d   1      -5.023 -15.472 -22.130  0.00  0.00     0.047 H 
ATOM     52  H15 GLN d   1      -4.286 -16.110 -23.638  0.00  0.00     0.047 H 
BRANCH  50  53
ATOM     53  CD  GLN d   1      -3.765 -14.079 -23.174  0.00  0.00     0.215 C 
ATOM     54  OE1 GLN d   1      -2.617 -13.636 -23.052  0.00  0.00    -0.274 OA
ATOM     55  NE2 GLN d   1      -4.763 -13.363 -23.688  0.00  0.00    -0.370 N 
ATOM     56  H16 GLN d   1      -4.600 -12.424 -23.991  0.00  0.00     0.159 HD
ATOM     57  H17 GLN d   1      -5.675 -13.764 -23.771  0.00  0.00     0.159 HD
ENDBRANCH  50  53
ENDBRANCH  47  50
ENDBRANCH  27  47
ENDBRANCH  24  27
ENDBRANCH  21  23
BRANCH  21  58
ATOM     58  CB  SEP d   1       1.500 -18.417 -22.828  0.00  0.00     0.059 C 
ATOM     59  H20 SEP d   1       2.548 -18.331 -22.505  0.00  0.00     0.079 H 
ATOM     60  H21 SEP d   1       1.239 -17.555 -23.459  0.00  0.00     0.079 H 
BRANCH  58  61
ATOM     61  OG  SEP d   1       1.336 -19.605 -23.569  0.00  0.00    -0.280 OA
BRANCH  61  62
ATOM     62  P   SEP d   1       2.281 -19.573 -24.860  0.00  0.00     0.422 P 
ATOM     63  O1P SEP d   1       3.825 -19.477 -24.410  0.00  0.00    -0.617 OA
ATOM     64  O2P SEP d   1       1.888 -18.320 -25.795  0.00  0.00    -0.617 OA
ATOM     65  O3P SEP d   1       2.014 -20.946 -25.648  0.00  0.00    -0.617 OA
ENDBRANCH  61  62
ENDBRANCH  58  61
ENDBRANCH  21  58
ENDBRANCH   9  21
ENDBRANCH   4   7
ENDBRANCH   1   3
BRANCH   1  66
ATOM     66  C   THR d   1       5.955 -15.143 -16.971  0.00  0.00     0.243 C 
ATOM     67  O   THR d   1       5.603 -15.821 -16.011  0.00  0.00    -0.271 OA
ATOM     68  N   PHE d   1       7.101 -14.470 -16.984  0.00  0.00    -0.346 N 
ATOM     69  H36 PHE d   1       7.345 -13.934 -17.793  0.00  0.00     0.163 HD
BRANCH  68  70
ATOM     70  CA  PHE d   1       8.014 -14.496 -15.841  0.00  0.00     0.093 C 
ATOM     71  H37 PHE d   1       7.428 -14.767 -14.950  0.00  0.00     0.088 H 
BRANCH  70  72
ATOM     72  C   PHE d   1       8.635 -13.122 -15.586  0.00  0.00     0.243 C 
ATOM     73  O   PHE d   1       9.454 -12.658 -16.374  0.00  0.00    -0.271 OA
ATOM     74  N   PRO d   1       8.221 -12.473 -14.498  0.00  0.00    -0.337 N 
ATOM     75  CA  PRO d   1       8.612 -11.084 -14.183  0.00  0.00     0.091 C 
ATOM     76  CD  PRO d   1       7.270 -13.004 -13.508  0.00  0.00    -0.001 C 
ATOM     77  CB  PRO d   1       7.699 -10.731 -13.000  0.00  0.00    -0.036 C 
ATOM     78  H45 PRO d   1       8.341 -10.457 -15.045  0.00  0.00     0.087 H 
ATOM     79  CG  PRO d   1       6.585 -11.736 -13.094  0.00  0.00    -0.048 C 
ATOM     80  H46 PRO d   1       7.311  -9.706 -13.097  0.00  0.00     0.036 H 
ATOM     81  H47 PRO d   1       8.237 -10.831 -12.046  0.00  0.00     0.036 H 
ATOM     82  H48 PRO d   1       5.844 -11.429 -13.847  0.00  0.00     0.035 H 
ATOM     83  H49 PRO d   1       6.088 -11.861 -12.120  0.00  0.00     0.035 H 
ATOM     84  H50 PRO d   1       7.786 -13.483 -12.663  0.00  0.00     0.064 H 
ATOM     85  H51 PRO d   1       6.566 -13.718 -13.961  0.00  0.00     0.064 H 
BRANCH  75  86
ATOM     86  C   PRO d   1      10.107 -10.774 -13.884  0.00  0.00     0.241 C 
ATOM     87  O   PRO d   1      10.928 -10.852 -14.805  0.00  0.00    -0.271 OA
ATOM     88  N   GLU d   1      10.449 -10.411 -12.639  0.00  0.00    -0.346 N 
ATOM     89  H52 GLU d   1       9.814 -10.593 -11.888  0.00  0.00     0.163 HD
BRANCH  88  90
ATOM     90  CA  GLU d   1      11.745  -9.746 -12.343  0.00  0.00     0.090 C 
ATOM     91  H53 GLU d   1      12.108  -9.415 -13.327  0.00  0.00     0.087 H 
BRANCH  90  92
ATOM     92  C   GLU d   1      12.905 -10.577 -11.770  0.00  0.00     0.241 C 
ATOM     93  O   GLU d   1      12.692 -11.620 -11.151  0.00  0.00    -0.271 OA
ATOM     94  N   ALA d   1      14.120 -10.052 -11.963  0.00  0.00    -0.346 N 
ATOM     95  H58 ALA d   1      14.171  -9.081 -12.195  0.00  0.00     0.163 HD
BRANCH  94  96
ATOM     96  CA  ALA d   1      15.387 -10.793 -11.860  0.00  0.00     0.086 C 
ATOM     97  H59 ALA d   1      15.229 -11.757 -12.365  0.00  0.00     0.086 H 
BRANCH  96  98
ATOM     98  C   ALA d   1      15.848 -11.119 -10.439  0.00  0.00     0.240 C 
ATOM     99  O   ALA d   1      15.036 -11.384  -9.556  0.00  0.00    -0.271 OA
ATOM    100  N   GLY d   1      17.163 -11.106 -10.236  0.00  0.00    -0.349 N 
ATOM    101  H63 GLY d   1      17.767 -10.883 -11.001  0.00  0.00     0.163 HD
BRANCH 100 102
ATOM    102  CA  GLY d   1      17.755 -11.405  -8.938  0.00  0.00     0.072 C 
ATOM    103  H64 GLY d   1      17.688 -12.488  -8.755  0.00  0.00     0.080 H 
ATOM    104  H65 GLY d   1      17.197 -10.867  -8.158  0.00  0.00     0.080 H 
BRANCH 102 105
ATOM    105  C   GLY d   1      19.209 -10.985  -8.882  0.00  0.00     0.158 C 
ATOM    106  O   GLY d   1      19.569  -9.901  -9.341  0.00  0.00    -0.649 OA
BRANCH 105 107
ATOM    107  O   GLY d   1      20.107 -11.796  -8.331  0.00  0.00    -0.775 OA
ATOM    108  H66 GLY d   1      20.766 -12.024  -8.977  0.00  0.00     0.167 HD
ENDBRANCH 105 107
ENDBRANCH 102 105
ENDBRANCH 100 102
ENDBRANCH  96  98
BRANCH  96 109
ATOM    109  CB  ALA d   1      16.490 -10.045 -12.623  0.00  0.00    -0.049 C 
ATOM    110  H60 ALA d   1      17.434 -10.603 -12.543  0.00  0.00     0.030 H 
ATOM    111  H61 ALA d   1      16.619  -9.042 -12.191  0.00  0.00     0.030 H 
ATOM    112  H62 ALA d   1      16.207  -9.954 -13.682  0.00  0.00     0.030 H 
ENDBRANCH  96 109
ENDBRANCH  94  96
ENDBRANCH  90  92
BRANCH  90 113
ATOM    113  CB  GLU d   1      11.541  -8.466 -11.518  0.00  0.00    -0.029 C 
ATOM    114  H54 GLU d   1      12.250  -8.480 -10.677  0.00  0.00     0.037 H 
ATOM    115  H55 GLU d   1      10.512  -8.465 -11.130  0.00  0.00     0.037 H 
BRANCH 113 116
ATOM    116  CG  GLU d   1      11.758  -7.178 -12.306  0.00  0.00     0.018 C 
ATOM    117  H56 GLU d   1      11.272  -6.352 -11.766  0.00  0.00     0.049 H 
ATOM    118  H57 GLU d   1      11.294  -7.292 -13.297  0.00  0.00     0.049 H 
BRANCH 116 119
ATOM    119  CD  GLU d   1      13.229  -6.833 -12.497  0.00  0.00     0.172 C 
ATOM    120  OE1 GLU d   1      13.659  -5.779 -11.986  0.00  0.00    -0.648 OA
ATOM    121  OE2 GLU d   1      13.961  -7.608 -13.151  0.00  0.00    -0.648 OA
ENDBRANCH 116 119
ENDBRANCH 113 116
ENDBRANCH  90 113
ENDBRANCH  88  90
ENDBRANCH  75  86
ENDBRANCH  70  72
BRANCH  70 122
ATOM    122  CB  PHE d   1       9.095 -15.569 -16.036  0.00  0.00    -0.014 C 
ATOM    123  H38 PHE d   1       9.826 -15.477 -15.219  0.00  0.00     0.043 H 
ATOM    124  H39 PHE d   1       9.595 -15.386 -16.998  0.00  0.00     0.043 H 
BRANCH 122 125
ATOM    125  CG  PHE d   1       8.561 -16.981 -16.039  0.00  0.00    -0.056 A 
ATOM    126  CD1 PHE d   1       8.291 -17.632 -17.235  0.00  0.00    -0.077 A 
ATOM    127  CE1 PHE d   1       7.796 -18.932 -17.239  0.00  0.00    -0.082 A 
ATOM    128  H40 PHE d   1       8.468 -17.122 -18.175  0.00  0.00     0.084 H 
ATOM    129  CZ  PHE d   1       7.562 -19.595 -16.039  0.00  0.00    -0.083 A 
ATOM    130  H42 PHE d   1       7.592 -19.430 -18.180  0.00  0.00     0.083 H 
ATOM    131  CE2 PHE d   1       7.830 -18.956 -14.838  0.00  0.00    -0.082 A 
ATOM    132  H44 PHE d   1       7.172 -20.606 -16.043  0.00  0.00     0.083 H 
ATOM    133  CD2 PHE d   1       8.326 -17.655 -14.843  0.00  0.00    -0.077 A 
ATOM    134  H43 PHE d   1       7.654 -19.468 -13.899  0.00  0.00     0.083 H 
ATOM    135  H41 PHE d   1       8.533 -17.159 -13.902  0.00  0.00     0.084 H 
ENDBRANCH 122 125
ENDBRANCH  70 122
ENDBRANCH  68  70
ENDBRANCH   1  66
BRANCH   1 136
ATOM    136  CB  THR d   1       4.654 -13.608 -18.491  0.00  0.00     0.060 C 
ATOM    137  H31 THR d   1       5.532 -12.946 -18.455  0.00  0.00     0.086 H 
BRANCH 136 138
ATOM    138  OG1 THR d   1       3.659 -13.208 -17.542  0.00  0.00    -0.393 OA
ATOM    139  H32 THR d   1       3.400 -12.310 -17.715  0.00  0.00     0.210 HD
ENDBRANCH 136 138
BRANCH 136 140
ATOM    140  CG2 THR d   1       3.935 -13.498 -19.830  0.00  0.00    -0.050 C 
ATOM    141  H33 THR d   1       3.641 -12.452 -20.003  0.00  0.00     0.031 H 
ATOM    142  H34 THR d   1       3.038 -14.134 -19.818  0.00  0.00     0.031 H 
ATOM    143  H35 THR d   1       4.607 -13.828 -20.636  0.00  0.00     0.031 H 
ENDBRANCH 136 140
ENDBRANCH   1 136
TORSDOF 33
