REMARK  6 active torsions:
REMARK  status: ('A' for Active; 'I' for Inactive)
REMARK    1  A    between atoms: C6_6  and  N15_11 
REMARK    2  A    between atoms: C9_8  and  C16_12 
REMARK    3  A    between atoms: N18_14  and  C27_20 
REMARK    4  A    between atoms: C21_17  and  C22_18 
REMARK    5  A    between atoms: C36_26  and  C41_29 
REMARK    6  A    between atoms: C36_26  and  C45_30 
ROOT
ATOM      1  C16 C19 d   1      15.881  32.553  31.607  0.00  0.00     0.049 A 
ATOM      2  C17 C19 d   1      15.339  33.932  31.933  0.00  0.00     0.263 A 
ATOM      3  N18 C19 d   1      16.255  34.947  32.246  0.00  0.00    -0.289 N 
ATOM      4  C19 C19 d   1      17.736  34.668  32.246  0.00  0.00    -0.011 A 
ATOM      5  C20 C19 d   1      18.197  33.423  31.942  0.00  0.00    -0.061 A 
ATOM      6  C21 C19 d   1      17.250  32.321  31.619  0.00  0.00    -0.044 A 
ATOM      7  O26 C19 d   1      14.115  34.102  31.916  0.00  0.00    -0.267 OA
ATOM      8  H7  C19 d   1      18.439  35.463  32.489  0.00  0.00     0.112 H 
ATOM      9  H8  C19 d   1      19.269  33.232  31.935  0.00  0.00     0.086 H 
ENDROOT
BRANCH   3  10
ATOM     10  C27 C19 d   1      15.796  36.217  32.580  0.00  0.00     0.044 A 
ATOM     11  C28 C19 d   1      16.175  37.390  31.843  0.00  0.00    -0.056 A 
ATOM     12  C29 C19 d   1      15.685  38.682  32.229  0.00  0.00    -0.072 A 
ATOM     13  H12 C19 d   1      16.836  37.298  30.989  0.00  0.00     0.087 H 
ATOM     14  C30 C19 d   1      14.811  38.773  33.357  0.00  0.00    -0.022 A 
ATOM     15  H13 C19 d   1      15.971  39.570  31.677  0.00  0.00     0.084 H 
ATOM     16  C31 C19 d   1      14.451  37.618  34.063  0.00  0.00     0.037 A 
ATOM     17  C36 C19 d   1      14.153  39.999  33.967  0.00  0.00    -0.002 C 
ATOM     18  C32 C19 d   1      14.921  36.349  33.709  0.00  0.00    -0.031 A 
ATOM     19  N38 C19 d   1      13.628  37.940  35.073  0.00  0.00    -0.388 N 
ATOM     20  H14 C19 d   1      14.628  35.476  34.281  0.00  0.00     0.090 H 
ATOM     21  C37 C19 d   1      13.517  39.394  35.244  0.00  0.00     0.003 C 
ATOM     22  H17 C19 d   1      13.134  37.251  35.657  0.00  0.00     0.159 HD
ATOM     23  H15 C19 d   1      12.462  39.694  35.329  0.00  0.00     0.065 H 
ATOM     24  H16 C19 d   1      14.065  39.721  36.140  0.00  0.00     0.065 H 
BRANCH  17  25
ATOM     25  C41 C19 d   1      13.066  40.532  33.025  0.00  0.00    -0.064 C 
ATOM     26  H18 C19 d   1      13.536  40.957  32.126  0.00  0.00     0.028 H 
ATOM     27  H19 C19 d   1      12.486  41.313  33.539  0.00  0.00     0.028 H 
ATOM     28  H20 C19 d   1      12.396  39.709  32.735  0.00  0.00     0.028 H 
ENDBRANCH  17  25
BRANCH  17  29
ATOM     29  C45 C19 d   1      15.178  41.081  34.319  0.00  0.00    -0.064 C 
ATOM     30  H21 C19 d   1      15.938  40.660  34.994  0.00  0.00     0.028 H 
ATOM     31  H22 C19 d   1      14.669  41.920  34.817  0.00  0.00     0.028 H 
ATOM     32  H23 C19 d   1      15.663  41.440  33.399  0.00  0.00     0.028 H 
ENDBRANCH  17  29
ENDBRANCH   3  10
BRANCH   1  33
ATOM     33  C9  C19 d   1      14.936  31.459  31.295  0.00  0.00    -0.019 A 
ATOM     34  C8  C19 d   1      14.537  30.556  32.328  0.00  0.00    -0.059 A 
ATOM     35  C3  C19 d   1      13.629  29.503  32.033  0.00  0.00     0.012 A 
ATOM     36  H2  C19 d   1      14.925  30.674  33.333  0.00  0.00     0.086 H 
ATOM     37  C2  C19 d   1      13.226  28.591  33.059  0.00  0.00     0.033 A 
ATOM     38  C4  C19 d   1      13.129  29.330  30.684  0.00  0.00     0.087 A 
ATOM     39  N1  C19 d   1      12.355  27.579  32.755  0.00  0.00    -0.075 NA
ATOM     40  H1  C19 d   1      13.607  28.700  34.068  0.00  0.00     0.117 H 
ATOM     41  C6  C19 d   1      11.915  27.466  31.470  0.00  0.00     0.720 A 
ATOM     42  N5  C19 d   1      12.248  28.284  30.447  0.00  0.00    -0.063 NA
ATOM     43  C11 C19 d   1      13.530  30.242  29.674  0.00  0.00    -0.053 A 
ATOM     44  C10 C19 d   1      14.431  31.294  29.971  0.00  0.00    -0.070 A 
ATOM     45  H4  C19 d   1      13.144  30.133  28.667  0.00  0.00     0.087 H 
ATOM     46  H3  C19 d   1      14.739  31.977  29.188  0.00  0.00     0.084 H 
BRANCH  41  47
ATOM     47  N15 C19 d   1      11.073  26.478  31.193  0.00  0.00    -0.231 N 
ATOM     48  H5  C19 d   1      10.785  25.824  31.935  0.00  0.00     0.174 HD
ATOM     49  H6  C19 d   1      10.708  26.365  30.236  0.00  0.00     0.174 HD
ENDBRANCH  41  47
ENDBRANCH   1  33
BRANCH   6  50
ATOM     50  C22 C19 d   1      17.950  30.999  31.358  0.00  0.00    -0.050 C 
ATOM     51  H9  C19 d   1      17.201  30.227  31.126  0.00  0.00     0.033 H 
ATOM     52  H10 C19 d   1      18.518  30.702  32.252  0.00  0.00     0.033 H 
ATOM     53  H11 C19 d   1      18.638  31.110  30.507  0.00  0.00     0.033 H 
ENDBRANCH   6  50
TORSDOF 6
