REMARK  8 active torsions:
REMARK  status: ('A' for Active; 'I' for Inactive)
REMARK    1  A    between atoms: C12_5  and  C13_6 
REMARK    2  A    between atoms: C13_6  and  C11_7 
REMARK    3  A    between atoms: C11_7  and  N10_8 
REMARK       I    between atoms: N10_8  and  C8_9 
REMARK    4  A    between atoms: C8_9  and  C4_11 
REMARK    5  A    between atoms: C7_15  and  C14_16 
REMARK    6  A    between atoms: C2_17  and  C1_18 
REMARK       I    between atoms: C1_18  and  N16_20 
REMARK    7  A    between atoms: N16_20  and  C17_21 
REMARK    8  A    between atoms: C20_24  and  N27_25 
ROOT
ATOM      1  C4  C92 d   1      16.521  34.479  31.658  0.00  0.00     0.033 A 
ATOM      2  C3  C92 d   1      15.717  33.389  31.329  0.00  0.00    -0.052 A 
ATOM      3  C5  C92 d   1      17.858  34.263  31.999  0.00  0.00    -0.067 A 
ATOM      4  C6  C92 d   1      18.370  32.963  32.006  0.00  0.00    -0.075 A 
ATOM      5  C7  C92 d   1      17.556  31.875  31.680  0.00  0.00    -0.046 A 
ATOM      6  C2  C92 d   1      16.216  32.094  31.349  0.00  0.00     0.039 A 
ATOM      7  H15 C92 d   1      14.682  33.556  31.052  0.00  0.00     0.086 H 
ATOM      8  H16 C92 d   1      18.496  35.100  32.257  0.00  0.00     0.085 H 
ATOM      9  H17 C92 d   1      19.409  32.797  32.267  0.00  0.00     0.084 H 
ENDROOT
BRANCH   1  10
ATOM     10  C8  C92 d   1      15.881  35.879  31.619  0.00  0.00     0.251 C 
ATOM     11  N10 C92 d   1      16.700  36.916  31.447  0.00  0.00    -0.357 N 
ATOM     12  H14 C92 d   1      17.681  36.746  31.359  0.00  0.00     0.162 HD
ATOM     13  O9  C92 d   1      14.664  35.997  31.731  0.00  0.00    -0.268 OA
BRANCH  11  14
ATOM     14  C11 C92 d   1      16.211  38.304  31.382  0.00  0.00    -0.004 C 
ATOM     15  H12 C92 d   1      16.989  38.940  30.934  0.00  0.00     0.064 H 
ATOM     16  H13 C92 d   1      15.305  38.339  30.759  0.00  0.00     0.064 H 
BRANCH  14  17
ATOM     17  C13 C92 d   1      15.880  38.824  32.778  0.00  0.00    -0.047 C 
ATOM     18  H10 C92 d   1      15.494  38.000  33.396  0.00  0.00     0.035 H 
ATOM     19  H11 C92 d   1      16.788  39.236  33.242  0.00  0.00     0.035 H 
BRANCH  17  20
ATOM     20  C12 C92 d   1      14.821  39.918  32.667  0.00  0.00    -0.053 C 
ATOM     21  C23 C92 d   1      15.343  41.185  33.345  0.00  0.00    -0.062 C 
ATOM     22  C24 C92 d   1      14.125  41.717  34.090  0.00  0.00    -0.065 C 
ATOM     23  H1  C92 d   1      16.159  40.949  34.044  0.00  0.00     0.033 H 
ATOM     24  H2  C92 d   1      15.697  41.913  32.600  0.00  0.00     0.033 H 
ATOM     25  C25 C92 d   1      13.489  40.445  34.637  0.00  0.00    -0.065 C 
ATOM     26  H3  C92 d   1      13.440  42.242  33.408  0.00  0.00     0.033 H 
ATOM     27  H4  C92 d   1      14.422  42.394  34.904  0.00  0.00     0.033 H 
ATOM     28  C26 C92 d   1      13.552  39.505  33.437  0.00  0.00    -0.062 C 
ATOM     29  H5  C92 d   1      12.449  40.622  34.949  0.00  0.00     0.033 H 
ATOM     30  H6  C92 d   1      14.064  40.046  35.486  0.00  0.00     0.033 H 
ATOM     31  H7  C92 d   1      12.660  39.627  32.804  0.00  0.00     0.033 H 
ATOM     32  H8  C92 d   1      13.626  38.459  33.770  0.00  0.00     0.033 H 
ATOM     33  H9  C92 d   1      14.586  40.109  31.610  0.00  0.00     0.040 H 
ENDBRANCH  17  20
ENDBRANCH  14  17
ENDBRANCH  11  14
ENDBRANCH   1  10
BRANCH   6  34
ATOM     34  C1  C92 d   1      15.259  30.974  30.949  0.00  0.00     0.256 C 
ATOM     35  O15 C92 d   1      14.992  30.829  29.759  0.00  0.00    -0.267 OA
ATOM     36  N16 C92 d   1      14.763  30.218  31.933  0.00  0.00    -0.322 N 
ATOM     37  H21 C92 d   1      15.041  30.417  32.873  0.00  0.00     0.169 HD
BRANCH  36  38
ATOM     38  C17 C92 d   1      13.906  29.200  31.720  0.00  0.00     0.052 A 
ATOM     39  C22 C92 d   1      13.499  28.821  30.437  0.00  0.00    -0.052 A 
ATOM     40  C21 C92 d   1      12.609  27.766  30.285  0.00  0.00    -0.037 A 
ATOM     41  H22 C92 d   1      13.876  29.347  29.567  0.00  0.00     0.087 H 
ATOM     42  C20 C92 d   1      12.145  27.109  31.422  0.00  0.00     0.120 A 
ATOM     43  H23 C92 d   1      12.281  27.459  29.298  0.00  0.00     0.089 H 
ATOM     44  N19 C92 d   1      12.547  27.491  32.647  0.00  0.00    -0.242 NA
ATOM     45  C18 C92 d   1      13.394  28.498  32.814  0.00  0.00     0.030 A 
ATOM     46  H26 C92 d   1      13.694  28.781  33.816  0.00  0.00     0.118 H 
BRANCH  42  47
ATOM     47  N27 C92 d   1      11.297  26.093  31.294  0.00  0.00    -0.384 N 
ATOM     48  H24 C92 d   1      10.950  25.603  32.131  0.00  0.00     0.157 HD
ATOM     49  H25 C92 d   1      10.987  25.796  30.358  0.00  0.00     0.157 HD
ENDBRANCH  42  47
ENDBRANCH  36  38
ENDBRANCH   6  34
BRANCH   5  50
ATOM     50  C14 C92 d   1      18.153  30.463  31.700  0.00  0.00    -0.050 C 
ATOM     51  H18 C92 d   1      19.214  30.518  31.984  0.00  0.00     0.033 H 
ATOM     52  H19 C92 d   1      18.064  30.013  30.700  0.00  0.00     0.033 H 
ATOM     53  H20 C92 d   1      17.609  29.845  32.430  0.00  0.00     0.033 H 
ENDBRANCH   5  50
TORSDOF 8
