REMARK  5 active torsions:
REMARK  status: ('A' for Active; 'I' for Inactive)
REMARK    1  A    between atoms: C1_5  and  N3_6 
REMARK    2  A    between atoms: C7_11  and  C9_12 
REMARK    3  A    between atoms: C13_15  and  C14_16 
REMARK    4  A    between atoms: N4_19  and  C15_20 
REMARK    5  A    between atoms: C17_25  and  C21_26 
ROOT
ATOM      1  C9  C52 d   1      15.675  32.560  31.725  0.00  0.00     0.049 A 
ATOM      2  C10 C52 d   1      15.275  33.902  31.827  0.00  0.00     0.263 A 
ATOM      3  O1  C52 d   1      14.092  34.201  31.672  0.00  0.00    -0.267 OA
ATOM      4  C13 C52 d   1      17.039  32.237  31.903  0.00  0.00    -0.044 A 
ATOM      5  C12 C52 d   1      17.980  33.228  32.182  0.00  0.00    -0.061 A 
ATOM      6  C11 C52 d   1      17.586  34.558  32.292  0.00  0.00    -0.011 A 
ATOM      7  N4  C52 d   1      16.232  34.915  32.110  0.00  0.00    -0.289 N 
ATOM      8  H10 C52 d   1      19.027  32.960  32.314  0.00  0.00     0.086 H 
ATOM      9  H11 C52 d   1      18.324  35.326  32.519  0.00  0.00     0.112 H 
ENDROOT
BRANCH   1  10
ATOM     10  C7  C52 d   1      14.737  31.555  31.434  0.00  0.00    -0.019 A 
ATOM     11  C8  C52 d   1      14.386  30.605  32.398  0.00  0.00    -0.059 A 
ATOM     12  C3  C52 d   1      13.471  29.597  32.097  0.00  0.00     0.012 A 
ATOM     13  H1  C52 d   1      14.828  30.652  33.386  0.00  0.00     0.086 H 
ATOM     14  C4  C52 d   1      13.109  28.644  33.049  0.00  0.00     0.033 A 
ATOM     15  C2  C52 d   1      12.894  29.530  30.830  0.00  0.00     0.087 A 
ATOM     16  N2  C52 d   1      12.235  27.694  32.737  0.00  0.00    -0.075 NA
ATOM     17  H2  C52 d   1      13.541  28.679  34.043  0.00  0.00     0.117 H 
ATOM     18  C1  C52 d   1      11.684  27.640  31.509  0.00  0.00     0.720 A 
ATOM     19  N1  C52 d   1      12.006  28.549  30.564  0.00  0.00    -0.063 NA
ATOM     20  C5  C52 d   1      13.234  30.478  29.862  0.00  0.00    -0.053 A 
ATOM     21  C6  C52 d   1      14.155  31.486  30.163  0.00  0.00    -0.070 A 
ATOM     22  H5  C52 d   1      12.784  30.432  28.877  0.00  0.00     0.087 H 
ATOM     23  H6  C52 d   1      14.420  32.218  29.408  0.00  0.00     0.084 H 
BRANCH  18  24
ATOM     24  N3  C52 d   1      10.805  26.680  31.233  0.00  0.00    -0.231 N 
ATOM     25  H3  C52 d   1      10.558  25.986  31.953  0.00  0.00     0.174 HD
ATOM     26  H4  C52 d   1      10.372  26.631  30.300  0.00  0.00     0.174 HD
ENDBRANCH  18  24
ENDBRANCH   1  10
BRANCH   4  27
ATOM     27  C14 C52 d   1      17.562  30.799  31.804  0.00  0.00    -0.050 C 
ATOM     28  H7  C52 d   1      18.648  30.791  31.977  0.00  0.00     0.033 H 
ATOM     29  H8  C52 d   1      17.348  30.399  30.802  0.00  0.00     0.033 H 
ATOM     30  H9  C52 d   1      17.065  30.175  32.562  0.00  0.00     0.033 H 
ENDBRANCH   4  27
BRANCH   7  31
ATOM     31  C15 C52 d   1      15.862  36.275  32.232  0.00  0.00     0.042 A 
ATOM     32  C16 C52 d   1      14.841  36.640  33.111  0.00  0.00    -0.042 A 
ATOM     33  C17 C52 d   1      14.472  37.976  33.253  0.00  0.00     0.050 A 
ATOM     34  H12 C52 d   1      14.331  35.877  33.688  0.00  0.00     0.088 H 
ATOM     35  C18 C52 d   1      15.131  38.961  32.510  0.00  0.00    -0.068 A 
ATOM     36  C19 C52 d   1      16.160  38.609  31.633  0.00  0.00    -0.080 A 
ATOM     37  H15 C52 d   1      14.842  40.001  32.615  0.00  0.00     0.084 H 
ATOM     38  C20 C52 d   1      16.524  37.266  31.499  0.00  0.00    -0.057 A 
ATOM     39  H14 C52 d   1      16.673  39.373  31.060  0.00  0.00     0.083 H 
ATOM     40  H13 C52 d   1      17.325  36.990  30.822  0.00  0.00     0.086 H 
BRANCH  33  41
ATOM     41  C21 C52 d   1      13.330  38.364  34.201  0.00  0.00     0.417 C 
ATOM     42  F2  C52 d   1      13.733  39.252  35.097  0.00  0.00    -0.166 F 
ATOM     43  F3  C52 d   1      12.381  38.886  33.432  0.00  0.00    -0.166 F 
ATOM     44  F1  C52 d   1      12.845  37.314  34.867  0.00  0.00    -0.166 F 
ENDBRANCH  33  41
ENDBRANCH   7  31
TORSDOF 5
