REMARK  9 active torsions:
REMARK  status: ('A' for Active; 'I' for Inactive)
REMARK    1  A    between atoms: PB_1  and  O3A_5 
REMARK    2  A    between atoms: O3A_5  and  PA_6 
REMARK    3  A    between atoms: PA_6  and  O5'_9 
REMARK    4  A    between atoms: O5'_9  and  C5'_10 
REMARK    5  A    between atoms: C5'_10  and  C4'_11 
REMARK    6  A    between atoms: C3'_13  and  O3'_14 
REMARK    7  A    between atoms: C2'_15  and  O2'_16 
REMARK    8  A    between atoms: C1'_17  and  N9_18 
REMARK    9  A    between atoms: C2_25  and  N2_26 
ROOT
ATOM      1  C4' GDP d   1      57.401  23.357   4.434  0.00  0.00     0.089 C 
ATOM      2  O4' GDP d   1      57.428  24.630   5.104  0.00  0.00    -0.353 OA
ATOM      3  C3' GDP d   1      58.755  23.194   3.762  0.00  0.00     0.091 C 
ATOM      4  C2' GDP d   1      59.671  24.095   4.547  0.00  0.00     0.105 C 
ATOM      5  C1' GDP d   1      58.745  25.180   5.080  0.00  0.00     0.139 C 
ATOM      6  H3  GDP d   1      56.623  23.375   3.656  0.00  0.00     0.090 H 
ATOM      7  H4  GDP d   1      59.096  22.149   3.803  0.00  0.00     0.091 H 
ATOM      8  H6  GDP d   1      60.117  23.539   5.385  0.00  0.00     0.093 H 
ATOM      9  H8  GDP d   1      58.774  26.059   4.419  0.00  0.00     0.122 H 
ENDROOT
BRANCH   5  10
ATOM     10  N9  GDP d   1      59.159  25.575   6.438  0.00  0.00    -0.295 N 
ATOM     11  C8  GDP d   1      59.349  24.778   7.505  0.00  0.00     0.071 A 
ATOM     12  N7  GDP d   1      59.741  25.501   8.591  0.00  0.00    -0.234 NA
ATOM     13  H9  GDP d   1      59.208  23.698   7.501  0.00  0.00     0.144 H 
ATOM     14  C5  GDP d   1      59.807  26.785   8.215  0.00  0.00     0.171 A 
ATOM     15  C6  GDP d   1      60.152  28.080   8.849  0.00  0.00     0.292 A 
ATOM     16  C4  GDP d   1      59.424  26.808   6.793  0.00  0.00     0.161 A 
ATOM     17  O6  GDP d   1      60.490  28.195  10.049  0.00  0.00    -0.265 OA
ATOM     18  N1  GDP d   1      60.081  29.161   8.072  0.00  0.00    -0.154 N 
ATOM     19  C2  GDP d   1      59.718  29.115   6.768  0.00  0.00     0.680 A 
ATOM     20  H10 GDP d   1      60.307  30.049   8.472  0.00  0.00     0.187 HD
ATOM     21  N3  GDP d   1      59.393  27.966   6.130  0.00  0.00    -0.174 N 
ATOM     22  H13 GDP d   1      59.123  27.985   5.136  0.00  0.00     0.186 HD
BRANCH  19  23
ATOM     23  N2  GDP d   1      59.668  30.267   6.050  0.00  0.00    -0.234 N 
ATOM     24  H11 GDP d   1      59.393  30.244   5.058  0.00  0.00     0.174 HD
ATOM     25  H12 GDP d   1      59.905  31.164   6.498  0.00  0.00     0.174 HD
ENDBRANCH  19  23
ENDBRANCH   5  10
BRANCH   4  26
ATOM     26  O2' GDP d   1      60.731  24.623   3.745  0.00  0.00    -0.388 OA
ATOM     27  H7  GDP d   1      60.364  25.128   3.029  0.00  0.00     0.210 HD
ENDBRANCH   4  26
BRANCH   1  28
ATOM     28  C5' GDP d   1      57.057  22.224   5.415  0.00  0.00     0.058 C 
ATOM     29  H1  GDP d   1      56.487  22.655   6.251  0.00  0.00     0.079 H 
ATOM     30  H2  GDP d   1      56.432  21.489   4.886  0.00  0.00     0.079 H 
BRANCH  28  31
ATOM     31  O5' GDP d   1      58.197  21.537   5.956  0.00  0.00    -0.287 OA
BRANCH  31  32
ATOM     32  PA  GDP d   1      58.027  20.228   6.887  0.00  0.00     0.418 P 
ATOM     33  O1A GDP d   1      59.059  20.273   7.989  0.00  0.00    -0.624 OA
ATOM     34  O2A GDP d   1      58.149  18.940   6.100  0.00  0.00    -0.624 OA
BRANCH  32  35
ATOM     35  O3A GDP d   1      56.528  20.346   7.456  0.00  0.00    -0.173 OA
BRANCH  35  36
ATOM     36  PB  GDP d   1      55.824  19.150   8.269  0.00  0.00     0.431 P 
ATOM     37  O1B GDP d   1      55.245  19.777   9.506  0.00  0.00    -0.616 OA
ATOM     38  O2B GDP d   1      56.846  18.081   8.600  0.00  0.00    -0.616 OA
ATOM     39  O3B GDP d   1      54.637  18.592   7.516  0.00  0.00    -0.616 OA
ENDBRANCH  35  36
ENDBRANCH  32  35
ENDBRANCH  31  32
ENDBRANCH  28  31
ENDBRANCH   1  28
BRANCH   3  40
ATOM     40  O3' GDP d   1      58.683  23.631   2.410  0.00  0.00    -0.390 OA
ATOM     41  H5  GDP d   1      59.533  23.526   1.999  0.00  0.00     0.210 HD
ENDBRANCH   3  40
TORSDOF 9
