REMARK  9 active torsions:
REMARK  status: ('A' for Active; 'I' for Inactive)
REMARK    1  A    between atoms: PB_1  and  O3A_5 
REMARK    2  A    between atoms: O3A_5  and  PA_6 
REMARK    3  A    between atoms: PA_6  and  O5'_9 
REMARK    4  A    between atoms: O5'_9  and  C5'_10 
REMARK    5  A    between atoms: C5'_10  and  C4'_11 
REMARK    6  A    between atoms: C3'_13  and  O3'_14 
REMARK    7  A    between atoms: C2'_15  and  O2'_16 
REMARK    8  A    between atoms: C1'_17  and  N9_18 
REMARK    9  A    between atoms: C2_25  and  N2_26 
ROOT
ATOM      1  C4' GDP d   1     -19.486  45.439  17.550  0.00  0.00     0.089 C 
ATOM      2  O4' GDP d   1     -20.667  45.232  16.761  0.00  0.00    -0.353 OA
ATOM      3  C3' GDP d   1     -19.932  45.902  18.933  0.00  0.00     0.091 C 
ATOM      4  C2' GDP d   1     -21.443  45.756  18.930  0.00  0.00     0.105 C 
ATOM      5  C1' GDP d   1     -21.817  45.721  17.455  0.00  0.00     0.139 C 
ATOM      6  H3  GDP d   1     -18.870  46.224  17.087  0.00  0.00     0.090 H 
ATOM      7  H4  GDP d   1     -19.488  45.268  19.714  0.00  0.00     0.091 H 
ATOM      8  H6  GDP d   1     -21.728  44.811  19.415  0.00  0.00     0.093 H 
ATOM      9  H8  GDP d   1     -22.055  46.736  17.104  0.00  0.00     0.122 H 
ENDROOT
BRANCH   5  10
ATOM     10  N9  GDP d   1     -23.006  44.853  17.252  0.00  0.00    -0.295 N 
ATOM     11  C8  GDP d   1     -23.065  43.521  17.448  0.00  0.00     0.071 A 
ATOM     12  N7  GDP d   1     -24.305  43.040  17.178  0.00  0.00    -0.234 NA
ATOM     13  H9  GDP d   1     -22.227  42.910  17.780  0.00  0.00     0.144 H 
ATOM     14  C5  GDP d   1     -25.073  44.079  16.801  0.00  0.00     0.171 A 
ATOM     15  C6  GDP d   1     -26.487  44.273  16.375  0.00  0.00     0.292 A 
ATOM     16  C4  GDP d   1     -24.210  45.276  16.851  0.00  0.00     0.161 A 
ATOM     17  O6  GDP d   1     -27.286  43.312  16.302  0.00  0.00    -0.265 OA
ATOM     18  N1  GDP d   1     -26.881  45.518  16.061  0.00  0.00    -0.154 N 
ATOM     19  C2  GDP d   1     -26.049  46.584  16.124  0.00  0.00     0.680 A 
ATOM     20  H10 GDP d   1     -27.826  45.663  15.769  0.00  0.00     0.187 HD
ATOM     21  N3  GDP d   1     -24.742  46.479  16.507  0.00  0.00    -0.174 N 
ATOM     22  H13 GDP d   1     -24.152  47.322  16.536  0.00  0.00     0.186 HD
BRANCH  19  23
ATOM     23  N2  GDP d   1     -26.537  47.807  15.792  0.00  0.00    -0.234 N 
ATOM     24  H11 GDP d   1     -25.924  48.634  15.832  0.00  0.00     0.174 HD
ATOM     25  H12 GDP d   1     -27.520  47.908  15.501  0.00  0.00     0.174 HD
ENDBRANCH  19  23
ENDBRANCH   5  10
BRANCH   4  26
ATOM     26  O2' GDP d   1     -22.102  46.834  19.611  0.00  0.00    -0.388 OA
ATOM     27  H7  GDP d   1     -21.812  46.860  20.515  0.00  0.00     0.210 HD
ENDBRANCH   4  26
BRANCH   1  28
ATOM     28  C5' GDP d   1     -18.660  44.155  17.629  0.00  0.00     0.058 C 
ATOM     29  H1  GDP d   1     -18.090  44.032  16.697  0.00  0.00     0.079 H 
ATOM     30  H2  GDP d   1     -17.964  44.222  18.478  0.00  0.00     0.079 H 
BRANCH  28  31
ATOM     31  O5' GDP d   1     -19.519  43.026  17.810  0.00  0.00    -0.287 OA
BRANCH  31  32
ATOM     32  PA  GDP d   1     -19.021  41.663  18.509  0.00  0.00     0.418 P 
ATOM     33  O1A GDP d   1     -20.061  41.199  19.501  0.00  0.00    -0.624 OA
ATOM     34  O2A GDP d   1     -17.686  41.855  19.191  0.00  0.00    -0.624 OA
BRANCH  32  35
ATOM     35  O3A GDP d   1     -18.925  40.638  17.265  0.00  0.00    -0.173 OA
BRANCH  35  36
ATOM     36  PB  GDP d   1     -17.808  39.473  17.123  0.00  0.00     0.431 P 
ATOM     37  O1B GDP d   1     -16.478  40.085  16.745  0.00  0.00    -0.616 OA
ATOM     38  O2B GDP d   1     -18.227  38.503  16.032  0.00  0.00    -0.616 OA
ATOM     39  O3B GDP d   1     -17.657  38.764  18.451  0.00  0.00    -0.616 OA
ENDBRANCH  35  36
ENDBRANCH  32  35
ENDBRANCH  31  32
ENDBRANCH  28  31
ENDBRANCH   1  28
BRANCH   3  40
ATOM     40  O3' GDP d   1     -19.545  47.265  19.150  0.00  0.00    -0.390 OA
ATOM     41  H5  GDP d   1     -19.829  47.540  20.014  0.00  0.00     0.210 HD
ENDBRANCH   3  40
TORSDOF 9
