REMARK  4 active torsions:
REMARK  status: ('A' for Active; 'I' for Inactive)
REMARK    1  A    between atoms: N3_1  and  C7_2 
REMARK    2  A    between atoms: C1_16  and  N3_1 
REMARK    3  A    between atoms: C21_5  and  C22_9 
REMARK    4  A    between atoms: C12_14  and  C14_13 
ROOT
ATOM      1  C7  CQU d   1       6.013   4.565  18.105  0.00  0.00     0.048 A 
ATOM      2  C13 CQU d   1       6.345   5.900  18.001  0.00  0.00    -0.056 A 
ATOM      3  C16 CQU d   1       7.387   6.443  18.708  0.00  0.00    -0.081 A 
ATOM      4  C19 CQU d   1       8.169   5.672  19.516  0.00  0.00    -0.082 A 
ATOM      5  C12 CQU d   1       6.799   3.751  18.954  0.00  0.00     0.040 A 
ATOM      6  C15 CQU d   1       7.862   4.336  19.636  0.00  0.00    -0.067 A 
ATOM      7  H3  CQU d   1       5.766   6.537  17.342  0.00  0.00     0.086 H 
ATOM      8  H5  CQU d   1       7.593   7.504  18.623  0.00  0.00     0.083 H 
ATOM      9  H6  CQU d   1       9.010   6.100  20.050  0.00  0.00     0.083 H 
ATOM     10  H11 CQU d   1       8.470   3.717  20.285  0.00  0.00     0.085 H 
ENDROOT
BRANCH   1  11
ATOM     11  N3  CQU d   1       4.939   3.980  17.413  0.00  0.00    -0.339 N 
ATOM     12  H1  CQU d   1       4.977   2.959  17.282  0.00  0.00     0.167 HD
BRANCH  11  13
ATOM     13  C1  CQU d   1       3.822   4.637  16.882  0.00  0.00     0.143 A 
ATOM     14  C2  CQU d   1       2.696   3.872  16.419  0.00  0.00     0.057 A 
ATOM     15  C6  CQU d   1       2.359   2.473  16.387  0.00  0.00    -0.051 A 
ATOM     16  C5  CQU d   1       1.576   4.529  15.836  0.00  0.00     0.142 A 
ATOM     17  C11 CQU d   1       1.129   2.352  15.856  0.00  0.00    -0.020 A 
ATOM     18  H2  CQU d   1       2.990   1.655  16.732  0.00  0.00     0.087 H 
ATOM     19  N9  CQU d   1       0.662   3.587  15.523  0.00  0.00    -0.350 N 
ATOM     20  H13 CQU d   1       0.592   1.415  15.715  0.00  0.00     0.111 H 
ATOM     21  H12 CQU d   1      -0.256   3.775  15.095  0.00  0.00     0.166 HD
ATOM     22  N10 CQU d   1       1.590   5.856  15.764  0.00  0.00    -0.223 NA
ATOM     23  C8  CQU d   1       2.640   6.518  16.200  0.00  0.00     0.091 A 
ATOM     24  N4  CQU d   1       3.702   5.960  16.774  0.00  0.00    -0.223 NA
ATOM     25  H4  CQU d   1       2.639   7.596  16.083  0.00  0.00     0.146 H 
ENDBRANCH  11  13
ENDBRANCH   1  11
BRANCH   5  26
ATOM     26  C14 CQU d   1       6.558   2.281  19.095  0.00  0.00     0.183 A 
ATOM     27  N18 CQU d   1       7.008   1.485  20.100  0.00  0.00    -0.212 NA
ATOM     28  C21 CQU d   1       6.567   0.239  19.847  0.00  0.00     0.118 A 
ATOM     29  N20 CQU d   1       5.876   0.238  18.727  0.00  0.00    -0.263 N 
ATOM     30  N17 CQU d   1       5.884   1.472  18.290  0.00  0.00    -0.152 NA
ATOM     31  H10 CQU d   1       5.420  -0.572  18.283  0.00  0.00     0.190 HD
BRANCH  28  32
ATOM     32  C22 CQU d   1       6.874  -0.895  20.759  0.00  0.00    -0.020 C 
ATOM     33  H7  CQU d   1       7.477  -0.533  21.605  0.00  0.00     0.037 H 
ATOM     34  H8  CQU d   1       7.437  -1.665  20.210  0.00  0.00     0.037 H 
ATOM     35  H9  CQU d   1       5.935  -1.326  21.137  0.00  0.00     0.037 H 
ENDBRANCH  28  32
ENDBRANCH   5  26
TORSDOF 4
