REMARK  1 active torsions:
REMARK  status: ('A' for Active; 'I' for Inactive)
REMARK    1  A    between atoms: N14_13  and  C12_11 
ROOT
ATOM      1  C21 CQW d   1       8.154   3.392  19.370  0.00  0.00     0.038 A 
ATOM      2  C18 CQW d   1       8.448   4.416  18.316  0.00  0.00    -0.010 C 
ATOM      3  N14 CQW d   1       7.058   3.039  16.720  0.00  0.00    -0.359 N 
ATOM      4  C28 CQW d   1       7.164   1.879  17.636  0.00  0.00     0.038 C 
ATOM      5  C27 CQW d   1       7.598   2.215  19.042  0.00  0.00     0.076 A 
ATOM      6  N26 CQW d   1       7.621   1.413  20.162  0.00  0.00    -0.245 NA
ATOM      7  C24 CQW d   1       8.194   2.098  21.147  0.00  0.00     0.064 A 
ATOM      8  N22 CQW d   1       8.556   3.312  20.686  0.00  0.00    -0.352 N 
ATOM      9  C15 CQW d   1       8.269   3.879  16.878  0.00  0.00     0.002 C 
ATOM     10  H3  CQW d   1       9.488   4.753  18.436  0.00  0.00     0.044 H 
ATOM     11  H4  CQW d   1       7.768   5.269  18.458  0.00  0.00     0.044 H 
ATOM     12  H6  CQW d   1       7.895   1.175  17.212  0.00  0.00     0.074 H 
ATOM     13  H7  CQW d   1       6.178   1.395  17.690  0.00  0.00     0.074 H 
ATOM     14  H8  CQW d   1       8.346   1.736  22.163  0.00  0.00     0.143 H 
ATOM     15  H9  CQW d   1       9.044   4.046  21.220  0.00  0.00     0.166 HD
ATOM     16  H10 CQW d   1       9.151   3.275  16.617  0.00  0.00     0.064 H 
ATOM     17  H11 CQW d   1       8.194   4.735  16.191  0.00  0.00     0.064 H 
ENDROOT
BRANCH   3  18
ATOM     18  C12 CQW d   1       5.810   3.628  16.424  0.00  0.00     0.143 A 
ATOM     19  C13 CQW d   1       4.655   2.897  16.070  0.00  0.00     0.079 A 
ATOM     20  C7  CQW d   1       3.505   3.664  15.779  0.00  0.00     0.144 A 
ATOM     21  C2  CQW d   1       4.238   1.487  15.880  0.00  0.00     0.067 A 
ATOM     22  N5  CQW d   1       2.462   2.791  15.504  0.00  0.00    -0.348 N 
ATOM     23  N8  CQW d   1       3.536   4.998  15.813  0.00  0.00    -0.223 NA
ATOM     24  C3  CQW d   1       2.929   1.505  15.576  0.00  0.00     0.001 A 
ATOM     25  H2  CQW d   1       1.494   3.065  15.282  0.00  0.00     0.167 HD
ATOM     26  H5  CQW d   1       2.321   0.617  15.409  0.00  0.00     0.114 H 
ATOM     27  C9  CQW d   1       4.660   5.653  16.133  0.00  0.00     0.091 A 
ATOM     28  N11 CQW d   1       5.769   4.966  16.399  0.00  0.00    -0.224 NA
ATOM     29  H1  CQW d   1       4.667   6.736  16.175  0.00  0.00     0.146 H 
ATOM     30 CL1  CQW d   1       5.189   0.034  16.018  0.00  0.00    -0.082 Cl
ENDBRANCH   3  18
TORSDOF 1
