REMARK  13 active torsions:
REMARK  status: ('A' for Active; 'I' for Inactive)
REMARK    1  A    between atoms: O1_20  and  C1_1 
REMARK    2  A    between atoms: C4_4  and  C9_9 
REMARK    3  A    between atoms: C8_8  and  C7_7 
REMARK    4  A    between atoms: C7_7  and  O1_20 
REMARK    5  A    between atoms: C10_10  and  C8_8 
REMARK    6  A    between atoms: C9_9  and  N1_22 
REMARK    7  A    between atoms: C9_9  and  N2_23 
REMARK    8  A    between atoms: C8'_18  and  C10_10 
REMARK    9  A    between atoms: O1'_21  and  C1'_11 
REMARK   10  A    between atoms: C4'_14  and  C9'_19 
REMARK   11  A    between atoms: C7'_17  and  C8'_18 
REMARK   12  A    between atoms: C7'_17  and  O1'_21 
REMARK   13  A    between atoms: C9'_19  and  N1'_24 
ROOT
ATOM      1  C10 PNT d   1      -0.082  -0.968  24.335  0.00  0.00    -0.061 C 
ATOM      2  H9  PNT d   1       0.988  -1.185  24.200  0.00  0.00     0.033 H 
ATOM      3  H10 PNT d   1      -0.672  -1.860  24.077  0.00  0.00     0.033 H 
ENDROOT
BRANCH   1   4
ATOM      4  C8  PNT d   1      -0.484   0.184  23.441  0.00  0.00    -0.045 C 
ATOM      5  H7  PNT d   1       0.183   1.042  23.615  0.00  0.00     0.036 H 
ATOM      6  H8  PNT d   1      -0.419  -0.122  22.387  0.00  0.00     0.036 H 
BRANCH   4   7
ATOM      7  C7  PNT d   1      -1.916   0.567  23.780  0.00  0.00     0.026 C 
ATOM      8  H5  PNT d   1      -2.235   0.025  24.683  0.00  0.00     0.075 H 
ATOM      9  H6  PNT d   1      -2.574   0.300  22.940  0.00  0.00     0.075 H 
BRANCH   7  10
ATOM     10  O1  PNT d   1      -1.997   1.945  24.013  0.00  0.00    -0.351 OA
BRANCH  10  11
ATOM     11  C1  PNT d   1      -0.996   2.643  24.634  0.00  0.00     0.068 A 
ATOM     12  C2  PNT d   1       0.176   2.061  25.099  0.00  0.00    -0.050 A 
ATOM     13  C3  PNT d   1       1.170   2.798  25.720  0.00  0.00    -0.067 A 
ATOM     14  H1  PNT d   1       0.317   0.994  24.971  0.00  0.00     0.087 H 
ATOM     15  C4  PNT d   1       0.983   4.157  25.868  0.00  0.00     0.007 A 
ATOM     16  H2  PNT d   1       2.073   2.319  26.081  0.00  0.00     0.085 H 
ATOM     17  C5  PNT d   1      -0.185   4.747  25.420  0.00  0.00    -0.067 A 
ATOM     18  C6  PNT d   1      -1.171   4.002  24.801  0.00  0.00    -0.050 A 
ATOM     19  H3  PNT d   1      -0.330   5.813  25.557  0.00  0.00     0.085 H 
ATOM     20  H4  PNT d   1      -2.077   4.482  24.449  0.00  0.00     0.087 H 
BRANCH  15  21
ATOM     21  C9  PNT d   1       2.003   5.023  26.526  0.00  0.00     0.102 C 
BRANCH  21  22
ATOM     22  N1  PNT d   1       3.232   4.842  26.331  0.00  0.00    -0.385 N 
ATOM     23  H19 PNT d   1       3.922   5.450  26.794  0.00  0.00     0.157 HD
ATOM     24  H20 PNT d   1       3.549   4.085  25.708  0.00  0.00     0.157 HD
ENDBRANCH  21  22
BRANCH  21  25
ATOM     25  N2  PNT d   1       1.604   6.019  27.313  0.00  0.00    -0.385 N 
ATOM     26  H21 PNT d   1       0.599   6.174  27.478  0.00  0.00     0.157 HD
ATOM     27  H22 PNT d   1       2.300   6.635  27.757  0.00  0.00     0.157 HD
ENDBRANCH  21  25
ENDBRANCH  15  21
ENDBRANCH  10  11
ENDBRANCH   7  10
ENDBRANCH   4   7
ENDBRANCH   1   4
BRANCH   1  28
ATOM     28  C8' PNT d   1      -0.346  -0.582  25.779  0.00  0.00    -0.045 C 
ATOM     29  H17 PNT d   1      -1.394  -0.810  26.025  0.00  0.00     0.036 H 
ATOM     30  H18 PNT d   1      -0.167   0.496  25.900  0.00  0.00     0.036 H 
BRANCH  28  31
ATOM     31  C7' PNT d   1       0.561  -1.343  26.727  0.00  0.00     0.026 C 
ATOM     32  H15 PNT d   1       0.041  -2.251  27.065  0.00  0.00     0.075 H 
ATOM     33  H16 PNT d   1       0.785  -0.705  27.594  0.00  0.00     0.075 H 
BRANCH  31  34
ATOM     34  O1' PNT d   1       1.771  -1.714  26.110  0.00  0.00    -0.351 OA
BRANCH  34  35
ATOM     35  C1' PNT d   1       2.574  -0.796  25.477  0.00  0.00     0.068 A 
ATOM     36  C2' PNT d   1       2.153   0.491  25.154  0.00  0.00    -0.050 A 
ATOM     37  C3' PNT d   1       2.965   1.405  24.501  0.00  0.00    -0.067 A 
ATOM     38  H11 PNT d   1       1.147   0.791  25.425  0.00  0.00     0.087 H 
ATOM     39  C4' PNT d   1       4.250   1.019  24.188  0.00  0.00     0.007 A 
ATOM     40  H12 PNT d   1       2.600   2.393  24.244  0.00  0.00     0.085 H 
ATOM     41  C5' PNT d   1       4.686  -0.259  24.500  0.00  0.00    -0.067 A 
ATOM     42  C6' PNT d   1       3.860  -1.168  25.141  0.00  0.00    -0.050 A 
ATOM     43  H13 PNT d   1       5.695  -0.554  24.237  0.00  0.00     0.085 H 
ATOM     44  H14 PNT d   1       4.221  -2.163  25.377  0.00  0.00     0.087 H 
BRANCH  39  45
ATOM     45  C9' PNT d   1       5.202   1.930  23.486  0.00  0.00     0.102 C 
ATOM     46  N2' PNT d   1       6.140   1.368  22.725  0.00  0.00    -0.385 N 
ATOM     47  H25 PNT d   1       6.190   0.343  22.642  0.00  0.00     0.157 HD
ATOM     48  H26 PNT d   1       6.815   1.959  22.220  0.00  0.00     0.157 HD
BRANCH  45  49
ATOM     49  N1' PNT d   1       5.143   3.187  23.586  0.00  0.00    -0.385 N 
ATOM     50  H23 PNT d   1       5.822   3.776  23.083  0.00  0.00     0.157 HD
ATOM     51  H24 PNT d   1       4.416   3.624  24.171  0.00  0.00     0.157 HD
ENDBRANCH  45  49
ENDBRANCH  39  45
ENDBRANCH  34  35
ENDBRANCH  31  34
ENDBRANCH  28  31
ENDBRANCH   1  28
TORSDOF 13
