REMARK WARNING: 32 MAX_TORS EXCEEDED!!!
REMARK  56 active torsions:
REMARK  status: ('A' for Active; 'I' for Inactive)
REMARK    1  A    between atoms: C_3  and  CA_2 
REMARK       I    between atoms: N_8  and  C_3 
REMARK    2  A    between atoms: CA_9  and  N_8 
REMARK    3  A    between atoms: CA_9  and  CB_12 
REMARK    4  A    between atoms: C_10  and  CA_9 
REMARK       I    between atoms: N_14  and  C_10 
REMARK    5  A    between atoms: CB_12  and  OG_13 
REMARK    6  A    between atoms: CA_15  and  N_14 
REMARK    7  A    between atoms: CA_15  and  CB_18 
REMARK    8  A    between atoms: C_16  and  CA_15 
REMARK       I    between atoms: N_22  and  C_16 
REMARK    9  A    between atoms: CB_18  and  CG_19 
REMARK   10  A    between atoms: CG_19  and  CD1_20 
REMARK   11  A    between atoms: CG_19  and  CD2_21 
REMARK   12  A    between atoms: CA_23  and  N_22 
REMARK   13  A    between atoms: CA_23  and  CB_26 
REMARK   14  A    between atoms: C_24  and  CA_23 
REMARK       I    between atoms: N_30  and  C_24 
REMARK   15  A    between atoms: CB_26  and  CG_27 
REMARK   16  A    between atoms: CG_27  and  CD1_28 
REMARK   17  A    between atoms: CG_27  and  CD2_29 
REMARK   18  A    between atoms: CA_31  and  N_30 
REMARK   19  A    between atoms: CA_31  and  CB_34 
REMARK   20  A    between atoms: C_32  and  CA_31 
REMARK       I    between atoms: N_39  and  C_32 
REMARK   21  A    between atoms: CB_34  and  CG_35 
REMARK   22  A    between atoms: CG_35  and  CD_36 
REMARK   23  A    between atoms: CD_36  and  CE_37 
REMARK   24  A    between atoms: CE_37  and  NZ_38 
REMARK   25  A    between atoms: CA_40  and  N_39 
REMARK   26  A    between atoms: CA_40  and  CB_43 
REMARK   27  A    between atoms: C_41  and  CA_40 
REMARK       I    between atoms: N_48  and  C_41 
REMARK   28  A    between atoms: CB_43  and  CG_44 
REMARK   29  A    between atoms: CG_44  and  CD_45 
REMARK   30  A    between atoms: CD_45  and  CE_46 
REMARK   31  A    between atoms: CE_46  and  NZ_47 
REMARK   32  A    between atoms: CA_49  and  N_48 
REMARK   33  A    between atoms: CA_49  and  CB_52 
REMARK   34  A    between atoms: C_50  and  CA_49 
REMARK       I    between atoms: N_56  and  C_50 
REMARK   35  A    between atoms: CB_52  and  CG_53 
REMARK   36  A    between atoms: CG_53  and  CD1_54 
REMARK   37  A    between atoms: CG_53  and  CD2_55 
REMARK   38  A    between atoms: CA_57  and  N_56 
REMARK   39  A    between atoms: CA_57  and  CB_60 
REMARK   40  A    between atoms: C_58  and  CA_57 
REMARK       I    between atoms: N_64  and  C_58 
REMARK   41  A    between atoms: CB_60  and  CG_61 
REMARK   42  A    between atoms: CG_61  and  CD1_62 
REMARK   43  A    between atoms: CG_61  and  CD2_63 
REMARK   44  A    between atoms: CA_65  and  N_64 
REMARK   45  A    between atoms: CA_65  and  CB_68 
REMARK   46  A    between atoms: C_66  and  CA_65 
REMARK       I    between atoms: N_72  and  C_66 
REMARK   47  A    between atoms: CB_68  and  CG_69 
REMARK   48  A    between atoms: CG_69  and  CD1_70 
REMARK   49  A    between atoms: CG_69  and  CD2_71 
REMARK   50  A    between atoms: CA_73  and  N_72 
REMARK   51  A    between atoms: CA_73  and  CB_76 
REMARK   52  A    between atoms: C_74  and  CA_73 
REMARK       I    between atoms: N_77  and  C_74 
REMARK   53  A    between atoms: C_79  and  CA_78 
REMARK       I    between atoms: C_79  and  N_84 
REMARK   54  A    between atoms: N_84  and  CA_85 
REMARK   55  A    between atoms: CA_85  and  CB_88 
REMARK   56  A    between atoms: CA_85  and  C_86 
ROOT
ATOM      1  CA  LYS d   1      19.546 -18.260  16.910  0.00  0.00     0.089 C 
ATOM      2  H51 LYS d   1      19.138 -19.125  16.366  0.00  0.00     0.087 H 
ENDROOT
BRANCH   1   3
ATOM      3  N   LYS d   1      21.002 -18.318  16.856  0.00  0.00    -0.346 N 
ATOM      4  C   LYS d   1      21.646 -18.299  15.696  0.00  0.00     0.241 C 
ATOM      5  O   LYS d   1      21.081 -18.176  14.619  0.00  0.00    -0.271 OA
ATOM      6  H50 LYS d   1      21.524 -18.373  17.707  0.00  0.00     0.163 HD
BRANCH   4   7
ATOM      7  CA  LYS d   1      23.149 -18.454  15.758  0.00  0.00     0.089 C 
ATOM      8  H38 LYS d   1      23.567 -18.230  14.766  0.00  0.00     0.087 H 
BRANCH   7   9
ATOM      9  N   LYS d   1      23.738 -17.529  16.715  0.00  0.00    -0.346 N 
ATOM     10  C   LEU d   1      23.446 -16.233  16.673  0.00  0.00     0.241 C 
ATOM     11  O   LEU d   1      22.814 -15.732  15.768  0.00  0.00    -0.271 OA
ATOM     12  H37 LYS d   1      24.369 -17.872  17.411  0.00  0.00     0.163 HD
BRANCH  10  13
ATOM     13  CA  LEU d   1      23.939 -15.365  17.821  0.00  0.00     0.089 C 
ATOM     14  H27 LEU d   1      23.384 -14.416  17.798  0.00  0.00     0.087 H 
BRANCH  13  15
ATOM     15  N   LEU d   1      23.687 -16.000  19.106  0.00  0.00    -0.346 N 
ATOM     16  C   LEU d   1      22.475 -16.362  19.520  0.00  0.00     0.241 C 
ATOM     17  O   LEU d   1      21.436 -16.041  18.940  0.00  0.00    -0.271 OA
ATOM     18  H26 LEU d   1      24.465 -16.173  19.709  0.00  0.00     0.163 HD
BRANCH  16  19
ATOM     19  CA  LEU d   1      22.434 -17.229  20.786  0.00  0.00     0.089 C 
ATOM     20  H16 LEU d   1      21.450 -17.719  20.811  0.00  0.00     0.087 H 
BRANCH  19  21
ATOM     21  N   LEU d   1      23.457 -18.294  20.802  0.00  0.00    -0.346 N 
ATOM     22  C   SER d   1      23.258 -19.440  20.161  0.00  0.00     0.243 C 
ATOM     23  O   SER d   1      22.352 -19.580  19.349  0.00  0.00    -0.271 OA
ATOM     24  H15 LEU d   1      24.311 -18.150  21.302  0.00  0.00     0.163 HD
BRANCH  22  25
ATOM     25  CA  SER d   1      24.200 -20.613  20.447  0.00  0.00     0.109 C 
ATOM     26  H11 SER d   1      23.720 -21.469  19.950  0.00  0.00     0.090 H 
BRANCH  25  27
ATOM     27  N   SER d   1      25.568 -20.604  19.911  0.00  0.00    -0.344 N 
ATOM     28  C   PRO d   1      26.026 -19.753  18.998  0.00  0.00     0.249 C 
ATOM     29  O   PRO d   1      25.378 -18.800  18.580  0.00  0.00    -0.271 OA
ATOM     30  H10 SER d   1      26.204 -21.292  20.260  0.00  0.00     0.163 HD
BRANCH  28  31
ATOM     31  CA  PRO d   1      27.471 -19.970  18.499  0.00  0.00     0.178 C 
ATOM     32  CB  PRO d   1      27.535 -20.722  17.176  0.00  0.00    -0.028 C 
ATOM     33  CG  PRO d   1      29.038 -21.042  17.071  0.00  0.00    -0.040 C 
ATOM     34  H4  PRO d   1      27.200 -20.091  16.340  0.00  0.00     0.036 H 
ATOM     35  H5  PRO d   1      26.931 -21.641  17.207  0.00  0.00     0.036 H 
ATOM     36  CD  PRO d   1      29.553 -21.164  18.527  0.00  0.00     0.083 C 
ATOM     37  H6  PRO d   1      29.190 -21.988  16.532  0.00  0.00     0.035 H 
ATOM     38  H7  PRO d   1      29.565 -20.232  16.546  0.00  0.00     0.035 H 
ATOM     39  N   PRO d   1      28.365 -20.772  19.323  0.00  0.00    -0.062 N 
ATOM     40  H8  PRO d   1      29.861 -22.195  18.754  0.00  0.00     0.075 H 
ATOM     41  H9  PRO d   1      30.396 -20.481  18.709  0.00  0.00     0.075 H 
ATOM     42  H1  PRO d   1      27.882 -21.600  19.635  0.00  0.00     0.278 HD
ATOM     43  H2  PRO d   1      28.659 -20.233  20.122  0.00  0.00     0.278 HD
ATOM     44  H3  PRO d   1      27.910 -18.969  18.377  0.00  0.00     0.099 H 
ENDBRANCH  28  31
ENDBRANCH  25  27
BRANCH  25  45
ATOM     45  CB  SER d   1      24.224 -20.951  21.941  0.00  0.00     0.044 C 
ATOM     46  H12 SER d   1      23.246 -20.716  22.386  0.00  0.00     0.077 H 
ATOM     47  H13 SER d   1      25.005 -20.358  22.439  0.00  0.00     0.077 H 
BRANCH  45  48
ATOM     48  OG  SER d   1      24.500 -22.331  22.110  0.00  0.00    -0.398 OA
ATOM     49  H14 SER d   1      24.515 -22.539  23.037  0.00  0.00     0.209 HD
ENDBRANCH  45  48
ENDBRANCH  25  45
ENDBRANCH  22  25
ENDBRANCH  19  21
BRANCH  19  50
ATOM     50  CB  LEU d   1      22.560 -16.371  22.036  0.00  0.00    -0.035 C 
ATOM     51  H17 LEU d   1      22.936 -15.390  21.709  0.00  0.00     0.037 H 
ATOM     52  H18 LEU d   1      23.311 -16.856  22.677  0.00  0.00     0.037 H 
BRANCH  50  53
ATOM     53  CG  LEU d   1      21.343 -16.102  22.915  0.00  0.00    -0.059 C 
ATOM     54  H19 LEU d   1      20.723 -15.350  22.406  0.00  0.00     0.038 H 
BRANCH  53  55
ATOM     55  CD1 LEU d   1      20.456 -17.339  23.162  0.00  0.00    -0.073 C 
ATOM     56  H20 LEU d   1      19.606 -17.059  23.801  0.00  0.00     0.028 H 
ATOM     57  H21 LEU d   1      21.048 -18.121  23.661  0.00  0.00     0.028 H 
ATOM     58  H22 LEU d   1      20.082 -17.720  22.200  0.00  0.00     0.028 H 
ENDBRANCH  53  55
BRANCH  53  59
ATOM     59  CD2 LEU d   1      21.816 -15.520  24.240  0.00  0.00    -0.073 C 
ATOM     60  H23 LEU d   1      22.447 -14.639  24.049  0.00  0.00     0.028 H 
ATOM     61  H24 LEU d   1      22.398 -16.277  24.786  0.00  0.00     0.028 H 
ATOM     62  H25 LEU d   1      20.945 -15.223  24.842  0.00  0.00     0.028 H 
ENDBRANCH  53  59
ENDBRANCH  50  53
ENDBRANCH  19  50
ENDBRANCH  16  19
ENDBRANCH  13  15
BRANCH  13  63
ATOM     63  CB  LEU d   1      25.435 -15.051  17.630  0.00  0.00    -0.035 C 
ATOM     64  H28 LEU d   1      25.617 -14.991  16.547  0.00  0.00     0.037 H 
ATOM     65  H29 LEU d   1      25.999 -15.896  18.051  0.00  0.00     0.037 H 
BRANCH  63  66
ATOM     66  CG  LEU d   1      26.006 -13.771  18.255  0.00  0.00    -0.059 C 
ATOM     67  H30 LEU d   1      25.894 -13.846  19.347  0.00  0.00     0.038 H 
BRANCH  66  68
ATOM     68  CD1 LEU d   1      27.503 -13.637  17.933  0.00  0.00    -0.073 C 
ATOM     69  H31 LEU d   1      27.895 -12.715  18.388  0.00  0.00     0.028 H 
ATOM     70  H32 LEU d   1      27.641 -13.595  16.843  0.00  0.00     0.028 H 
ATOM     71  H33 LEU d   1      28.044 -14.505  18.338  0.00  0.00     0.028 H 
ENDBRANCH  66  68
BRANCH  66  72
ATOM     72  CD2 LEU d   1      25.255 -12.543  17.791  0.00  0.00    -0.073 C 
ATOM     73  H34 LEU d   1      24.187 -12.655  18.029  0.00  0.00     0.028 H 
ATOM     74  H35 LEU d   1      25.379 -12.427  16.704  0.00  0.00     0.028 H 
ATOM     75  H36 LEU d   1      25.653 -11.655  18.303  0.00  0.00     0.028 H 
ENDBRANCH  66  72
ENDBRANCH  63  66
ENDBRANCH  13  63
ENDBRANCH  10  13
ENDBRANCH   7   9
BRANCH   7  76
ATOM     76  CB  LYS d   1      23.469 -19.892  16.103  0.00  0.00    -0.038 C 
ATOM     77  H39 LYS d   1      22.562 -20.500  15.974  0.00  0.00     0.036 H 
ATOM     78  H40 LYS d   1      23.799 -19.943  17.151  0.00  0.00     0.036 H 
BRANCH  76  79
ATOM     79  CG  LYS d   1      24.542 -20.437  15.234  0.00  0.00    -0.061 C 
ATOM     80  H41 LYS d   1      25.499 -19.974  15.518  0.00  0.00     0.033 H 
ATOM     81  H42 LYS d   1      24.312 -20.189  14.187  0.00  0.00     0.033 H 
BRANCH  79  82
ATOM     82  CD  LYS d   1      24.667 -21.922  15.362  0.00  0.00    -0.043 C 
ATOM     83  H43 LYS d   1      23.688 -22.387  15.176  0.00  0.00     0.035 H 
ATOM     84  H44 LYS d   1      25.005 -22.173  16.378  0.00  0.00     0.035 H 
BRANCH  82  85
ATOM     85  CE  LYS d   1      25.664 -22.444  14.363  0.00  0.00     0.080 C 
ATOM     86  H45 LYS d   1      26.152 -21.600  13.854  0.00  0.00     0.075 H 
ATOM     87  H46 LYS d   1      25.148 -23.071  13.621  0.00  0.00     0.075 H 
BRANCH  85  88
ATOM     88  NZ  LYS d   1      26.685 -23.254  15.074  0.00  0.00    -0.079 N 
ATOM     89  H47 LYS d   1      27.356 -23.607  14.410  0.00  0.00     0.274 HD
ATOM     90  H48 LYS d   1      26.236 -24.027  15.540  0.00  0.00     0.274 HD
ATOM     91  H49 LYS d   1      27.156 -22.679  15.755  0.00  0.00     0.274 HD
ENDBRANCH  85  88
ENDBRANCH  82  85
ENDBRANCH  79  82
ENDBRANCH  76  79
ENDBRANCH   7  76
ENDBRANCH   4   7
ENDBRANCH   1   3
BRANCH   1  92
ATOM     92  CB  LYS d   1      19.056 -18.326  18.346  0.00  0.00    -0.038 C 
ATOM     93  H52 LYS d   1      17.981 -18.094  18.345  0.00  0.00     0.036 H 
ATOM     94  H53 LYS d   1      19.596 -17.558  18.920  0.00  0.00     0.036 H 
BRANCH  92  95
ATOM     95  CG  LYS d   1      19.245 -19.670  19.067  0.00  0.00    -0.061 C 
ATOM     96  H54 LYS d   1      20.298 -19.980  19.001  0.00  0.00     0.033 H 
ATOM     97  H55 LYS d   1      18.607 -20.434  18.598  0.00  0.00     0.033 H 
BRANCH  95  98
ATOM     98  CD  LYS d   1      18.849 -19.501  20.540  0.00  0.00    -0.043 C 
ATOM     99  H56 LYS d   1      17.764 -19.323  20.581  0.00  0.00     0.035 H 
ATOM    100  H57 LYS d   1      19.380 -18.622  20.934  0.00  0.00     0.035 H 
BRANCH  98 101
ATOM    101  CE  LYS d   1      19.167 -20.695  21.454  0.00  0.00     0.080 C 
ATOM    102  H58 LYS d   1      20.241 -20.922  21.386  0.00  0.00     0.075 H 
ATOM    103  H59 LYS d   1      18.586 -21.567  21.119  0.00  0.00     0.075 H 
BRANCH 101 104
ATOM    104  NZ  LYS d   1      18.812 -20.390  22.920  0.00  0.00    -0.079 N 
ATOM    105  H60 LYS d   1      19.032 -21.190  23.492  0.00  0.00     0.274 HD
ATOM    106  H61 LYS d   1      17.828 -20.186  22.992  0.00  0.00     0.274 HD
ATOM    107  H62 LYS d   1      19.344 -19.595  23.236  0.00  0.00     0.274 HD
ENDBRANCH 101 104
ENDBRANCH  98 101
ENDBRANCH  95  98
ENDBRANCH  92  95
ENDBRANCH   1  92
BRANCH   1 108
ATOM    108  C   LYS d   1      19.069 -16.983  16.222  0.00  0.00     0.241 C 
ATOM    109  O   LYS d   1      18.171 -17.021  15.393  0.00  0.00    -0.271 OA
ATOM    110  N   LEU d   1      19.701 -15.853  16.536  0.00  0.00    -0.346 N 
ATOM    111  H63 LEU d   1      20.417 -15.861  17.235  0.00  0.00     0.163 HD
BRANCH 110 112
ATOM    112  CA  LEU d   1      19.353 -14.602  15.864  0.00  0.00     0.089 C 
ATOM    113  H64 LEU d   1      18.275 -14.448  16.017  0.00  0.00     0.087 H 
BRANCH 112 114
ATOM    114  CB  LEU d   1      20.074 -13.405  16.481  0.00  0.00    -0.035 C 
ATOM    115  H65 LEU d   1      19.930 -12.548  15.806  0.00  0.00     0.037 H 
ATOM    116  H66 LEU d   1      21.144 -13.655  16.534  0.00  0.00     0.037 H 
BRANCH 114 117
ATOM    117  CG  LEU d   1      19.634 -12.968  17.878  0.00  0.00    -0.059 C 
ATOM    118  H67 LEU d   1      19.828 -13.796  18.575  0.00  0.00     0.038 H 
BRANCH 117 119
ATOM    119  CD1 LEU d   1      20.482 -11.800  18.268  0.00  0.00    -0.073 C 
ATOM    120  H68 LEU d   1      20.193 -11.456  19.272  0.00  0.00     0.028 H 
ATOM    121  H69 LEU d   1      20.337 -10.984  17.545  0.00  0.00     0.028 H 
ATOM    122  H70 LEU d   1      21.540 -12.101  18.274  0.00  0.00     0.028 H 
ENDBRANCH 117 119
BRANCH 117 123
ATOM    123  CD2 LEU d   1      18.111 -12.612  17.980  0.00  0.00    -0.073 C 
ATOM    124  H71 LEU d   1      17.510 -13.486  17.689  0.00  0.00     0.028 H 
ATOM    125  H72 LEU d   1      17.885 -11.771  17.308  0.00  0.00     0.028 H 
ATOM    126  H73 LEU d   1      17.869 -12.329  19.015  0.00  0.00     0.028 H 
ENDBRANCH 117 123
ENDBRANCH 114 117
ENDBRANCH 112 114
BRANCH 112 127
ATOM    127  C   LEU d   1      19.588 -14.648  14.358  0.00  0.00     0.241 C 
ATOM    128  O   LEU d   1      18.767 -14.105  13.594  0.00  0.00    -0.271 OA
ATOM    129  N   LEU d   1      20.693 -15.285  13.945  0.00  0.00    -0.346 N 
ATOM    130  H74 LEU d   1      21.292 -15.698  14.631  0.00  0.00     0.163 HD
BRANCH 129 131
ATOM    131  CA  LEU d   1      21.060 -15.402  12.537  0.00  0.00     0.089 C 
ATOM    132  H75 LEU d   1      21.006 -14.390  12.108  0.00  0.00     0.087 H 
BRANCH 131 133
ATOM    133  CB  LEU d   1      22.509 -15.892  12.388  0.00  0.00    -0.035 C 
ATOM    134  H76 LEU d   1      22.642 -16.255  11.358  0.00  0.00     0.037 H 
ATOM    135  H77 LEU d   1      22.662 -16.723  13.092  0.00  0.00     0.037 H 
BRANCH 133 136
ATOM    136  CG  LEU d   1      23.589 -14.829  12.663  0.00  0.00    -0.059 C 
ATOM    137  H78 LEU d   1      23.332 -14.324  13.606  0.00  0.00     0.038 H 
BRANCH 136 138
ATOM    138  CD1 LEU d   1      24.958 -15.453  12.836  0.00  0.00    -0.073 C 
ATOM    139  H79 LEU d   1      25.699 -14.664  13.030  0.00  0.00     0.028 H 
ATOM    140  H80 LEU d   1      25.232 -15.996  11.919  0.00  0.00     0.028 H 
ATOM    141  H81 LEU d   1      24.937 -16.153  13.684  0.00  0.00     0.028 H 
ENDBRANCH 136 138
BRANCH 136 142
ATOM    142  CD2 LEU d   1      23.594 -13.769  11.543  0.00  0.00    -0.073 C 
ATOM    143  H82 LEU d   1      22.588 -13.336  11.443  0.00  0.00     0.028 H 
ATOM    144  H83 LEU d   1      23.886 -14.241  10.593  0.00  0.00     0.028 H 
ATOM    145  H84 LEU d   1      24.312 -12.974  11.794  0.00  0.00     0.028 H 
ENDBRANCH 136 142
ENDBRANCH 133 136
ENDBRANCH 131 133
BRANCH 131 146
ATOM    146  C   LEU d   1      20.111 -16.285  11.719  0.00  0.00     0.241 C 
ATOM    147  O   LEU d   1      19.975 -16.118  10.491  0.00  0.00    -0.271 OA
ATOM    148  N   LEU d   1      19.467 -17.234  12.386  0.00  0.00    -0.346 N 
ATOM    149  H85 LEU d   1      19.603 -17.316  13.373  0.00  0.00     0.163 HD
BRANCH 148 150
ATOM    150  CA  LEU d   1      18.556 -18.169  11.703  0.00  0.00     0.089 C 
ATOM    151  H86 LEU d   1      18.937 -18.317  10.682  0.00  0.00     0.087 H 
BRANCH 150 152
ATOM    152  CB  LEU d   1      18.535 -19.522  12.410  0.00  0.00    -0.035 C 
ATOM    153  H87 LEU d   1      17.733 -20.122  11.956  0.00  0.00     0.037 H 
ATOM    154  H88 LEU d   1      18.301 -19.340  13.469  0.00  0.00     0.037 H 
BRANCH 152 155
ATOM    155  CG  LEU d   1      19.806 -20.341  12.356  0.00  0.00    -0.059 C 
ATOM    156  H89 LEU d   1      20.664 -19.654  12.399  0.00  0.00     0.038 H 
BRANCH 155 157
ATOM    157  CD1 LEU d   1      19.889 -21.241  13.542  0.00  0.00    -0.073 C 
ATOM    158  H90 LEU d   1      20.816 -21.830  13.491  0.00  0.00     0.028 H 
ATOM    159  H91 LEU d   1      19.023 -21.920  13.549  0.00  0.00     0.028 H 
ATOM    160  H92 LEU d   1      19.889 -20.637  14.461  0.00  0.00     0.028 H 
ENDBRANCH 155 157
BRANCH 155 161
ATOM    161  CD2 LEU d   1      19.872 -21.081  11.033  0.00  0.00    -0.073 C 
ATOM    162  H93 LEU d   1      19.806 -20.359  10.206  0.00  0.00     0.028 H 
ATOM    163  H94 LEU d   1      19.035 -21.791  10.968  0.00  0.00     0.028 H 
ATOM    164  H95 LEU d   1      20.824 -21.629  10.966  0.00  0.00     0.028 H 
ENDBRANCH 155 161
ENDBRANCH 152 155
ENDBRANCH 150 152
BRANCH 150 165
ATOM    165  C   LEU d   1      17.119 -17.639  11.600  0.00  0.00     0.241 C 
ATOM    166  O   LEU d   1      16.409 -17.966  10.663  0.00  0.00    -0.271 OA
ATOM    167  N   ALA d   1      16.686 -16.860  12.577  0.00  0.00    -0.346 N 
ATOM    168  H96 ALA d   1      17.318 -16.581  13.300  0.00  0.00     0.163 HD
BRANCH 167 169
ATOM    169  CA  ALA d   1      15.303 -16.402  12.617  0.00  0.00     0.086 C 
ATOM    170  H97 ALA d   1      14.637 -17.277  12.619  0.00  0.00     0.086 H 
BRANCH 169 171
ATOM    171  CB  ALA d   1      15.039 -15.578  13.904  0.00  0.00    -0.049 C 
ATOM    172  H98 ALA d   1      13.992 -15.242  13.916  0.00  0.00     0.030 H 
ATOM    173  H99 ALA d   1      15.705 -14.703  13.922  0.00  0.00     0.030 H 
ATOM    174 0H10 ALA d   1      15.233 -16.205  14.787  0.00  0.00     0.030 H 
ENDBRANCH 169 171
BRANCH 169 175
ATOM    175  C   ALA d   1      15.023 -15.575  11.375  0.00  0.00     0.243 C 
ATOM    176  O   ALA d   1      15.622 -14.505  11.202  0.00  0.00    -0.271 OA
ATOM    177  N   PRO d   1      14.129 -16.074  10.481  0.00  0.00    -0.337 N 
ATOM    178  CA  PRO d   1      13.667 -15.137   9.451  0.00  0.00     0.091 C 
ATOM    179  CD  PRO d   1      13.476 -17.395  10.353  0.00  0.00    -0.001 C 
ATOM    180  CB  PRO d   1      12.619 -15.945   8.665  0.00  0.00    -0.036 C 
ATOM    181 1H10 PRO d   1      14.475 -14.769   8.802  0.00  0.00     0.087 H 
ATOM    182  CG  PRO d   1      12.893 -17.350   8.976  0.00  0.00    -0.048 C 
ATOM    183 2H10 PRO d   1      12.724 -15.763   7.585  0.00  0.00     0.036 H 
ATOM    184 3H10 PRO d   1      11.603 -15.671   8.986  0.00  0.00     0.036 H 
ATOM    185 4H10 PRO d   1      11.960 -17.932   8.943  0.00  0.00     0.035 H 
ATOM    186 5H10 PRO d   1      13.609 -17.764   8.250  0.00  0.00     0.035 H 
ATOM    187 6H10 PRO d   1      12.690 -17.522  11.111  0.00  0.00     0.064 H 
ATOM    188 7H10 PRO d   1      14.210 -18.209  10.445  0.00  0.00     0.064 H 
BRANCH 178 189
ATOM    189  C   PRO d   1      13.007 -14.001  10.240  0.00  0.00     0.241 C 
ATOM    190  O   PRO d   1      12.451 -14.250  11.328  0.00  0.00    -0.271 OA
ATOM    191  N   ALA d   1      13.104 -12.771   9.744  0.00  0.00    -0.349 N 
ATOM    192 8H10 ALA d   1      13.448 -12.631   8.815  0.00  0.00     0.163 HD
BRANCH 191 193
ATOM    193  CA  ALA d   1      12.707 -11.623  10.559  0.00  0.00     0.059 C 
ATOM    194 9H10 ALA d   1      11.654 -11.761  10.847  0.00  0.00     0.083 H 
BRANCH 193 195
ATOM    195  CB  ALA d   1      13.561 -11.566  11.855  0.00  0.00    -0.051 C 
ATOM    196 1H11 ALA d   1      13.254 -10.700  12.459  0.00  0.00     0.030 H 
ATOM    197 2H11 ALA d   1      14.624 -11.469  11.590  0.00  0.00     0.030 H 
ATOM    198 3H11 ALA d   1      13.410 -12.489  12.434  0.00  0.00     0.030 H 
ENDBRANCH 193 195
BRANCH 193 199
ATOM    199  C   ALA d   1      12.813 -10.311   9.791  0.00  0.00     0.109 C 
ATOM    200  O   ALA d   1      12.934  -9.234  10.415  0.00  0.00    -0.305 OA
ATOM    201 0H11 ALA d   1      12.784 -10.311   8.702  0.00  0.00     0.146 H 
ENDBRANCH 193 199
ENDBRANCH 191 193
ENDBRANCH 178 189
ENDBRANCH 169 175
ENDBRANCH 167 169
ENDBRANCH 150 165
ENDBRANCH 148 150
ENDBRANCH 131 146
ENDBRANCH 129 131
ENDBRANCH 112 127
ENDBRANCH 110 112
ENDBRANCH   1 108
TORSDOF 56
