REMARK  7 active torsions:
REMARK  status: ('A' for Active; 'I' for Inactive)
REMARK    1  A    between atoms: C2_2  and  C34_23 
REMARK    2  A    between atoms: C2_2  and  C35_24 
REMARK       I    between atoms: N10_8  and  C17_13 
REMARK    3  A    between atoms: C16_12  and  C11_9 
REMARK    4  A    between atoms: C17_13  and  C19_14 
REMARK    5  A    between atoms: O25_18  and  C22_27 
REMARK    6  A    between atoms: C26_28  and  O25_18 
REMARK    7  A    between atoms: C27_19  and  C26_28 
ROOT
ATOM      1  C1  XNI d   1      28.462   4.646  31.102  0.00  0.00     0.001 C 
ATOM      2  C2  XNI d   1      27.514   3.836  31.993  0.00  0.00    -0.036 C 
ATOM      3  C3  XNI d   1      26.215   3.623  31.237  0.00  0.00    -0.019 C 
ATOM      4  C4  XNI d   1      25.585   4.833  30.582  0.00  0.00     0.022 C 
ATOM      5  C5  XNI d   1      26.361   5.885  30.169  0.00  0.00     0.038 C 
ATOM      6  C6  XNI d   1      27.807   5.845  30.462  0.00  0.00     0.160 C 
ATOM      7  C8  XNI d   1      23.185   5.475  29.973  0.00  0.00     0.059 A 
ATOM      8  N10 XNI d   1      24.760   6.657  28.600  0.00  0.00    -0.302 N 
ATOM      9  C11 XNI d   1      25.807   7.141  29.494  0.00  0.00     0.076 C 
ATOM     10  C12 XNI d   1      21.908   5.290  30.469  0.00  0.00    -0.055 A 
ATOM     11  C15 XNI d   1      22.411   7.371  28.742  0.00  0.00    -0.055 A 
ATOM     12  C17 XNI d   1      25.099   6.230  27.306  0.00  0.00     0.221 C 
ATOM     13  O33 XNI d   1      28.497   6.796  30.215  0.00  0.00    -0.293 OA
ATOM     14  O18 XNI d   1      26.249   6.345  26.924  0.00  0.00    -0.273 OA
ATOM     15  C9  XNI d   1      23.444   6.516  29.112  0.00  0.00     0.065 A 
ATOM     16  C14 XNI d   1      21.128   7.190  29.234  0.00  0.00    -0.081 A 
ATOM     17  C13 XNI d   1      20.882   6.145  30.106  0.00  0.00    -0.081 A 
ATOM     18  N7  XNI d   1      24.213   4.631  30.438  0.00  0.00    -0.357 N 
ATOM     19  H1  XNI d   1      28.838   3.988  30.305  0.00  0.00     0.046 H 
ATOM     20  H2  XNI d   1      29.304   4.996  31.717  0.00  0.00     0.046 H 
ATOM     21  H3  XNI d   1      25.482   3.214  31.948  0.00  0.00     0.043 H 
ATOM     22  H4  XNI d   1      26.411   2.884  30.446  0.00  0.00     0.043 H 
ATOM     23  H5  XNI d   1      26.615   7.587  28.896  0.00  0.00     0.089 H 
ATOM     24  H6  XNI d   1      21.709   4.469  31.148  0.00  0.00     0.087 H 
ATOM     25  H7  XNI d   1      22.612   8.189  28.060  0.00  0.00     0.087 H 
ATOM     26  H27 XNI d   1      20.328   7.859  28.939  0.00  0.00     0.083 H 
ATOM     27  H28 XNI d   1      19.885   5.996  30.505  0.00  0.00     0.083 H 
ATOM     28  H29 XNI d   1      23.893   3.695  30.723  0.00  0.00     0.166 HD
ENDROOT
BRANCH   9  29
ATOM     29  C16 XNI d   1      25.272   8.248  30.411  0.00  0.00    -0.029 A 
ATOM     30  C24 XNI d   1      24.853   7.962  31.693  0.00  0.00    -0.072 A 
ATOM     31  C23 XNI d   1      24.375   8.957  32.505  0.00  0.00    -0.049 A 
ATOM     32  H12 XNI d   1      24.902   6.944  32.061  0.00  0.00     0.084 H 
ATOM     33  C22 XNI d   1      24.315  10.255  32.044  0.00  0.00     0.090 A 
ATOM     34  H11 XNI d   1      24.044   8.723  33.510  0.00  0.00     0.087 H 
ATOM     35  C21 XNI d   1      24.737  10.547  30.773  0.00  0.00     0.068 A 
ATOM     36 CL36 XNI d   1      24.668  12.175  30.253  0.00  0.00    -0.081 Cl
ATOM     37  C20 XNI d   1      25.218   9.553  29.950  0.00  0.00    -0.051 A 
ATOM     38  H22 XNI d   1      25.553   9.791  28.947  0.00  0.00     0.087 H 
BRANCH  33  39
ATOM     39  O25 XNI d   1      23.829  11.251  32.828  0.00  0.00    -0.345 OA
BRANCH  39  40
ATOM     40  C26 XNI d   1      23.672  11.058  34.233  0.00  0.00     0.050 C 
ATOM     41  H23 XNI d   1      23.100  10.135  34.409  0.00  0.00     0.082 H 
ATOM     42  H24 XNI d   1      23.126  11.914  34.656  0.00  0.00     0.082 H 
BRANCH  40  43
ATOM     43  C27 XNI d   1      25.025  10.943  34.916  0.00  0.00    -0.034 A 
ATOM     44  C32 XNI d   1      26.111  11.643  34.395  0.00  0.00    -0.075 A 
ATOM     45  C31 XNI d   1      27.351  11.562  34.997  0.00  0.00    -0.082 A 
ATOM     46  H15 XNI d   1      25.982  12.256  33.510  0.00  0.00     0.084 H 
ATOM     47  C30 XNI d   1      27.511  10.765  36.124  0.00  0.00    -0.083 A 
ATOM     48  H14 XNI d   1      28.192  12.115  34.594  0.00  0.00     0.083 H 
ATOM     49  C29 XNI d   1      26.437  10.063  36.651  0.00  0.00    -0.082 A 
ATOM     50  H13 XNI d   1      28.484  10.691  36.596  0.00  0.00     0.083 H 
ATOM     51  C28 XNI d   1      25.188  10.151  36.044  0.00  0.00    -0.075 A 
ATOM     52  H25 XNI d   1      26.570   9.447  37.533  0.00  0.00     0.083 H 
ATOM     53  H26 XNI d   1      24.346   9.603  36.450  0.00  0.00     0.084 H 
ENDBRANCH  40  43
ENDBRANCH  39  40
ENDBRANCH  33  39
ENDBRANCH   9  29
BRANCH  12  54
ATOM     54  C19 XNI d   1      24.059   5.664  26.363  0.00  0.00    -0.002 C 
ATOM     55  H8  XNI d   1      24.537   5.394  25.410  0.00  0.00     0.040 H 
ATOM     56  H9  XNI d   1      23.279   6.418  26.182  0.00  0.00     0.040 H 
ATOM     57  H10 XNI d   1      23.606   4.768  26.812  0.00  0.00     0.040 H 
ENDBRANCH  12  54
BRANCH   2  58
ATOM     58  C34 XNI d   1      28.160   2.481  32.337  0.00  0.00    -0.069 C 
ATOM     59  H16 XNI d   1      29.099   2.651  32.884  0.00  0.00     0.028 H 
ATOM     60  H17 XNI d   1      28.371   1.929  31.409  0.00  0.00     0.028 H 
ATOM     61  H18 XNI d   1      27.472   1.895  32.964  0.00  0.00     0.028 H 
ENDBRANCH   2  58
BRANCH   2  62
ATOM     62  C35 XNI d   1      27.165   4.610  33.277  0.00  0.00    -0.069 C 
ATOM     63  H19 XNI d   1      26.705   5.573  33.011  0.00  0.00     0.028 H 
ATOM     64  H20 XNI d   1      28.082   4.789  33.858  0.00  0.00     0.028 H 
ATOM     65  H21 XNI d   1      26.458   4.021  33.880  0.00  0.00     0.028 H 
ENDBRANCH   2  62
TORSDOF 7
