REMARK  11 active torsions:
REMARK  status: ('A' for Active; 'I' for Inactive)
REMARK    1  A    between atoms: C1_1  and  O23_23 
REMARK    2  A    between atoms: N22_22  and  C7_7 
REMARK    3  A    between atoms: RU_42  and  C27_26 
REMARK    4  A    between atoms: C30_29  and  C34_33 
REMARK    5  A    between atoms: C33_32  and  C32_31 
REMARK       I    between atoms: C34_33  and  N39_38 
REMARK    6  A    between atoms: C35_34  and  C36_35 
REMARK    7  A    between atoms: C35_34  and  C37_36 
REMARK    8  A    between atoms: C35_34  and  C38_37 
REMARK    9  A    between atoms: N39_38  and  C35_34 
REMARK   10  A    between atoms: C37_36  and  O41_40 
REMARK   11  A    between atoms: C38_37  and  O42_41 
ROOT
ATOM      1  C1  E52 d   1      51.510  15.834  28.980  0.00  0.00     0.066 A 
ATOM      2  C2  E52 d   1      51.987  16.994  29.781  0.00  0.00    -0.049 A 
ATOM      3  C3  E52 d   1      51.180  17.672  30.747  0.00  0.00    -0.043 A 
ATOM      4  C4  E52 d   1      49.910  17.156  30.953  0.00  0.00     0.184 A 
ATOM      5  C5  E52 d   1      49.397  16.062  30.159  0.00  0.00     0.018 A 
ATOM      6  C6  E52 d   1      50.192  15.325  29.158  0.00  0.00    -0.038 A 
ATOM      7  C8  E52 d   1      47.858  16.676  31.524  0.00  0.00     0.214 A 
ATOM      8  C9  E52 d   1      48.065  15.731  30.516  0.00  0.00     0.033 A 
ATOM      9  C10 E52 d   1      46.726  16.853  32.218  0.00  0.00     0.106 A 
ATOM     10  C11 E52 d   1      45.585  15.899  31.922  0.00  0.00     0.015 A 
ATOM     11  C12 E52 d   1      45.752  14.908  30.931  0.00  0.00     0.061 A 
ATOM     12  C13 E52 d   1      46.924  14.817  30.259  0.00  0.00     0.062 A 
ATOM     13  C14 E52 d   1      46.849  13.660  29.251  0.00  0.00     0.262 A 
ATOM     14  C15 E52 d   1      45.569  18.059  33.855  0.00  0.00     0.040 A 
ATOM     15  C16 E52 d   1      44.426  17.165  33.618  0.00  0.00     0.134 A 
ATOM     16  C17 E52 d   1      44.427  16.116  32.700  0.00  0.00    -0.031 A 
ATOM     17  C18 E52 d   1      44.823  13.872  30.409  0.00  0.00     0.262 A 
ATOM     18  F   E52 d   1      43.416  17.342  34.262  0.00  0.00    -0.205 F 
ATOM     19  N20 E52 d   1      46.676  17.901  33.188  0.00  0.00    -0.255 N 
ATOM     20  N21 E52 d   1      48.884  17.545  31.745  0.00  0.00     0.159 N 
ATOM     21  N22 E52 d   1      45.599  13.239  29.484  0.00  0.00    -0.284 N 
ATOM     22  O24 E52 d   1      43.706  13.628  30.700  0.00  0.00    -0.267 OA
ATOM     23  O25 E52 d   1      47.539  13.140  28.442  0.00  0.00    -0.267 OA
ATOM     24  C29 E52 d   1      49.414  20.179  34.398  0.00  0.00    -0.019 A 
ATOM     25  C30 E52 d   1      48.258  19.812  35.021  0.00  0.00    -0.002 C 
ATOM     26  C31 E52 d   1      48.247  18.372  35.183  0.00  0.00    -0.015 A 
ATOM     27  C32 E52 d   1      49.470  17.865  34.621  0.00  0.00    -0.041 A 
ATOM     28  C33 E52 d   1      50.190  18.919  34.142  0.00  0.00    -0.053 A 
ATOM     29 RU   E52 d   1      48.385  18.871  33.210  0.00  0.00     0.000 Ru
ATOM     30  H1  E52 d   1      53.001  17.344  29.624  0.00  0.00     0.087 H 
ATOM     31  H2  E52 d   1      51.541  18.540  31.287  0.00  0.00     0.087 H 
ATOM     32  H3  E52 d   1      49.808  14.473  28.608  0.00  0.00     0.089 H 
ATOM     33  H7  E52 d   1      45.490  18.853  34.588  0.00  0.00     0.119 H 
ATOM     34  H8  E52 d   1      43.557  15.480  32.586  0.00  0.00     0.089 H 
ATOM     35  H9  E52 d   1      48.880  18.346  32.392  0.00  0.00     0.331 HD
ATOM     36  H13 E52 d   1      49.717  21.192  34.136  0.00  0.00     0.048 H 
ATOM     37  H14 E52 d   1      47.457  17.782  35.646  0.00  0.00     0.049 H 
ATOM     38  H15 E52 d   1      49.770  16.819  34.584  0.00  0.00     0.041 H 
ATOM     39  H16 E52 d   1      51.161  18.970  34.656  0.00  0.00     0.034 H 
ATOM     40  H17 E52 d   1      50.353  18.797  33.061  0.00  0.00     0.034 H 
ENDROOT
BRANCH  29  41
ATOM     41  C27 E52 d   1      48.156  20.272  31.882  0.00  0.00     0.055 C 
ATOM     42  O28 E52 d   1      47.818  21.122  31.180  0.00  0.00    -0.315 OA
ATOM     43  H11 E52 d   1      48.595  20.508  32.850  0.00  0.00     0.130 H 
ATOM     44  H12 E52 d   1      48.037  19.234  31.576  0.00  0.00     0.130 H 
ENDBRANCH  29  41
BRANCH  25  45
ATOM     45  C34 E52 d   1      47.175  20.712  35.475  0.00  0.00     0.245 C 
ATOM     46  N39 E52 d   1      47.432  22.031  35.234  0.00  0.00    -0.344 N 
ATOM     47  H25 E52 d   1      48.278  22.249  34.748  0.00  0.00     0.163 HD
ATOM     48  O40 E52 d   1      46.160  20.299  36.005  0.00  0.00    -0.268 OA
BRANCH  46  49
ATOM     49  C35 E52 d   1      46.574  23.162  35.626  0.00  0.00     0.071 C 
BRANCH  49  50
ATOM     50  C36 E52 d   1      47.188  23.791  36.891  0.00  0.00    -0.049 C 
ATOM     51  H18 E52 d   1      46.571  24.642  37.214  0.00  0.00     0.031 H 
ATOM     52  H19 E52 d   1      48.207  24.140  36.669  0.00  0.00     0.031 H 
ATOM     53  H20 E52 d   1      47.224  23.040  37.694  0.00  0.00     0.031 H 
ENDBRANCH  49  50
BRANCH  49  54
ATOM     54  C37 E52 d   1      45.101  22.824  35.898  0.00  0.00     0.042 C 
ATOM     55  H21 E52 d   1      44.517  23.755  35.942  0.00  0.00     0.077 H 
ATOM     56  H22 E52 d   1      45.022  22.296  36.859  0.00  0.00     0.077 H 
BRANCH  54  57
ATOM     57  O41 E52 d   1      44.589  22.001  34.870  0.00  0.00    -0.398 OA
ATOM     58  H26 E52 d   1      45.091  21.195  34.831  0.00  0.00     0.209 HD
ENDBRANCH  54  57
ENDBRANCH  49  54
BRANCH  49  59
ATOM     59  C38 E52 d   1      46.654  24.155  34.457  0.00  0.00     0.042 C 
ATOM     60  H23 E52 d   1      46.218  25.117  34.763  0.00  0.00     0.077 H 
ATOM     61  H24 E52 d   1      46.096  23.756  33.598  0.00  0.00     0.077 H 
BRANCH  59  62
ATOM     62  O42 E52 d   1      48.008  24.346  34.092  0.00  0.00    -0.398 OA
ATOM     63  H27 E52 d   1      48.056  24.960  33.369  0.00  0.00     0.209 HD
ENDBRANCH  59  62
ENDBRANCH  49  59
ENDBRANCH  46  49
ENDBRANCH  25  45
BRANCH   1  64
ATOM     64  O23 E52 d   1      52.326  15.224  28.007  0.00  0.00    -0.361 OA
ATOM     65  H10 E52 d   1      52.441  14.306  28.222  0.00  0.00     0.217 HD
ENDBRANCH   1  64
BRANCH  21  66
ATOM     66  C7  E52 d   1      45.013  12.120  28.751  0.00  0.00    -0.008 C 
ATOM     67  H4  E52 d   1      45.754  11.715  28.046  0.00  0.00     0.057 H 
ATOM     68  H5  E52 d   1      44.130  12.468  28.195  0.00  0.00     0.057 H 
ATOM     69  H6  E52 d   1      44.713  11.334  29.460  0.00  0.00     0.057 H 
ENDBRANCH  21  66
TORSDOF 11
