REMARK  6 active torsions:
REMARK  status: ('A' for Active; 'I' for Inactive)
REMARK    1  A    between atoms: C20_20  and  C11_11 
REMARK    2  A    between atoms: N23_23  and  C12_12 
REMARK    3  A    between atoms: C13_13  and  O27_27 
REMARK    4  A    between atoms: O27_27  and  C14_14 
REMARK    5  A    between atoms: C17_17  and  N22_22 
REMARK    6  A    between atoms: C18_18  and  C20_20 
REMARK       I    between atoms: N24_24  and  C18_18 
REMARK       I    between atoms: C19_19  and  N23_23 
REMARK       I    between atoms: C19_19  and  N24_24 
ROOT
ATOM      1  C3  319 d   1       0.919   8.066  54.999  0.00  0.00    -0.054 A 
ATOM      2  C4  319 d   1       1.035   9.286  55.669  0.00  0.00    -0.045 A 
ATOM      3  C8  319 d   1       0.292   9.247  52.984  0.00  0.00    -0.017 A 
ATOM      4  C12 319 d   1       0.552   8.048  53.644  0.00  0.00     0.039 A 
ATOM      5  C13 319 d   1       0.764  10.483  55.004  0.00  0.00     0.114 A 
ATOM      6  C16 319 d   1       0.391  10.457  53.660  0.00  0.00     0.152 A 
ATOM      7  F29 319 d   1       0.117  11.594  52.989  0.00  0.00    -0.203 F 
ATOM      8  H3  319 d   1       1.111   7.137  55.523  0.00  0.00     0.087 H 
ATOM      9  H4  319 d   1       1.337   9.303  56.710  0.00  0.00     0.088 H 
ATOM     10  H8  319 d   1       0.011   9.236  51.937  0.00  0.00     0.091 H 
ENDROOT
BRANCH   4  11
ATOM     11  N23 319 d   1       0.449   6.803  52.992  0.00  0.00    -0.309 N 
ATOM     12  C19 319 d   1      -0.105   6.613  51.741  0.00  0.00     0.327 C 
ATOM     13  N24 319 d   1      -0.648   5.356  51.552  0.00  0.00    -0.279 N 
ATOM     14  O26 319 d   1      -0.158   7.426  50.829  0.00  0.00    -0.247 OA
ATOM     15  C18 319 d   1      -0.644   4.308  52.461  0.00  0.00     0.229 C 
ATOM     16  H16 319 d   1      -1.088   5.185  50.671  0.00  0.00     0.173 HD
ATOM     17  O25 319 d   1       0.010   4.322  53.488  0.00  0.00    -0.273 OA
ATOM     18  H15 319 d   1       0.803   5.999  53.470  0.00  0.00     0.170 HD
BRANCH  15  19
ATOM     19  C20 319 d   1      -1.103   3.038  51.784  0.00  0.00     0.033 C 
ATOM     20  H11 319 d   1      -2.147   3.156  51.457  0.00  0.00     0.054 H 
ATOM     21  H12 319 d   1      -0.465   2.841  50.910  0.00  0.00     0.054 H 
BRANCH  19  22
ATOM     22  C11 319 d   1      -1.010   1.891  52.732  0.00  0.00    -0.049 A 
ATOM     23  C1  319 d   1       0.114   1.053  52.675  0.00  0.00    -0.073 A 
ATOM     24  C5  319 d   1       0.213  -0.013  53.553  0.00  0.00    -0.045 A 
ATOM     25  H1  319 d   1       0.898   1.239  51.950  0.00  0.00     0.084 H 
ATOM     26  C15 319 d   1      -0.798  -0.231  54.488  0.00  0.00     0.116 A 
ATOM     27  H5  319 d   1       1.071  -0.674  53.514  0.00  0.00     0.088 H 
ATOM     28  C6  319 d   1      -1.921   0.598  54.572  0.00  0.00    -0.045 A 
ATOM     29  F28 319 d   1      -0.681  -1.265  55.325  0.00  0.00    -0.206 F 
ATOM     30  C2  319 d   1      -2.030   1.669  53.684  0.00  0.00    -0.073 A 
ATOM     31  H6  319 d   1      -2.691   0.412  55.312  0.00  0.00     0.088 H 
ATOM     32  H2  319 d   1      -2.891   2.326  53.724  0.00  0.00     0.084 H 
ENDBRANCH  19  22
ENDBRANCH  15  19
ENDBRANCH   4  11
BRANCH   5  33
ATOM     33  O27 319 d   1       0.860  11.692  55.657  0.00  0.00    -0.308 OA
BRANCH  33  34
ATOM     34  C14 319 d   1      -0.191  12.054  56.490  0.00  0.00     0.081 A 
ATOM     35  C7  319 d   1      -1.492  11.564  56.384  0.00  0.00    -0.033 A 
ATOM     36  C10 319 d   1      -2.436  12.023  57.286  0.00  0.00     0.007 A 
ATOM     37  H7  319 d   1      -1.756  10.845  55.617  0.00  0.00     0.090 H 
ATOM     38  N21 319 d   1      -2.175  12.928  58.264  0.00  0.00    -0.244 NA
ATOM     39  H10 319 d   1      -3.446  11.636  57.207  0.00  0.00     0.115 H 
ATOM     40  C17 319 d   1      -0.909  13.403  58.363  0.00  0.00     0.123 A 
ATOM     41  C9  319 d   1       0.104  12.981  57.491  0.00  0.00    -0.006 A 
ATOM     42  H9  319 d   1       1.110  13.372  57.593  0.00  0.00     0.093 H 
BRANCH  40  43
ATOM     43  N22 319 d   1      -0.602  14.345  59.377  0.00  0.00    -0.384 N 
ATOM     44  H13 319 d   1      -1.337  14.663  60.024  0.00  0.00     0.157 HD
ATOM     45  H14 319 d   1       0.356  14.711  59.467  0.00  0.00     0.157 HD
ENDBRANCH  40  43
ENDBRANCH  33  34
ENDBRANCH   5  33
TORSDOF 6
