REMARK  5 active torsions:
REMARK  status: ('A' for Active; 'I' for Inactive)
REMARK    1  A    between atoms: C23_7  and  C22_8 
REMARK    2  A    between atoms: C22_8  and  C21_9 
REMARK       I    between atoms: C21_9  and  N20_11 
REMARK       I    between atoms: N20_11  and  C19_12 
REMARK       I    between atoms: C19_12  and  N18_14 
REMARK    3  A    between atoms: N18_14  and  C14_15 
REMARK    4  A    between atoms: C11_21  and  O10_22 
REMARK    5  A    between atoms: O10_22  and  C6_23 
ROOT
ATOM      1  C14 320 d   1       0.357   7.797  54.055  0.00  0.00     0.039 A 
ATOM      2  C15 320 d   1       0.049   8.974  53.260  0.00  0.00    -0.017 A 
ATOM      3  C16 320 d   1       0.129  10.189  53.857  0.00  0.00     0.152 A 
ATOM      4  F17 320 d   1      -0.176  11.371  53.147  0.00  0.00    -0.203 F 
ATOM      5  C13 320 d   1       0.735   7.870  55.361  0.00  0.00    -0.054 A 
ATOM      6  C12 320 d   1       0.858   9.128  55.988  0.00  0.00    -0.045 A 
ATOM      7  C11 320 d   1       0.567  10.274  55.286  0.00  0.00     0.114 A 
ATOM      8  H9  320 d   1      -0.237   8.883  52.218  0.00  0.00     0.091 H 
ATOM      9  H10 320 d   1       0.941   6.963  55.918  0.00  0.00     0.087 H 
ATOM     10  H11 320 d   1       1.181   9.191  57.021  0.00  0.00     0.088 H 
ENDROOT
BRANCH   1  11
ATOM     11  N18 320 d   1       0.232   6.552  53.387  0.00  0.00    -0.309 N 
ATOM     12  C19 320 d   1      -0.400   6.358  52.153  0.00  0.00     0.327 C 
ATOM     13  N20 320 d   1      -0.894   5.148  51.854  0.00  0.00    -0.279 N 
ATOM     14  O24 320 d   1      -0.543   7.167  51.269  0.00  0.00    -0.247 OA
ATOM     15  C21 320 d   1      -0.609   3.975  52.560  0.00  0.00     0.229 C 
ATOM     16  H7  320 d   1      -1.511   5.079  51.070  0.00  0.00     0.173 HD
ATOM     17  O25 320 d   1      -0.200   4.199  53.747  0.00  0.00    -0.273 OA
ATOM     18  H8  320 d   1       0.627   5.749  53.833  0.00  0.00     0.170 HD
BRANCH  15  19
ATOM     19  C22 320 d   1      -0.874   2.594  51.887  0.00  0.00     0.033 C 
ATOM     20  H5  320 d   1      -1.816   2.610  51.319  0.00  0.00     0.054 H 
ATOM     21  H6  320 d   1      -0.046   2.320  51.216  0.00  0.00     0.054 H 
BRANCH  19  22
ATOM     22  C23 320 d   1      -0.966   1.606  53.085  0.00  0.00    -0.049 A 
ATOM     23  C30 320 d   1      -2.080   1.678  54.092  0.00  0.00    -0.073 A 
ATOM     24  C29 320 d   1      -2.163   0.824  55.127  0.00  0.00    -0.045 A 
ATOM     25  H2  320 d   1      -2.840   2.443  53.980  0.00  0.00     0.084 H 
ATOM     26  C28 320 d   1      -1.105  -0.183  55.219  0.00  0.00     0.116 A 
ATOM     27  H1  320 d   1      -2.967   0.878  55.852  0.00  0.00     0.088 H 
ATOM     28  F31 320 d   1      -1.096  -1.049  56.225  0.00  0.00    -0.206 F 
ATOM     29  C27 320 d   1      -0.100  -0.270  54.328  0.00  0.00    -0.045 A 
ATOM     30  C26 320 d   1      -0.067   0.682  53.242  0.00  0.00    -0.073 A 
ATOM     31  H3  320 d   1       0.664  -1.034  54.423  0.00  0.00     0.088 H 
ATOM     32  H4  320 d   1       0.745   0.623  52.526  0.00  0.00     0.084 H 
ENDBRANCH  19  22
ENDBRANCH  15  19
ENDBRANCH   1  11
BRANCH   7  33
ATOM     33  O10 320 d   1       0.631  11.675  55.767  0.00  0.00    -0.307 OA
BRANCH  33  34
ATOM     34  C6  320 d   1      -0.450  12.034  56.679  0.00  0.00     0.091 A 
ATOM     35  C5  320 d   1      -1.750  11.644  56.531  0.00  0.00    -0.032 A 
ATOM     36  C4  320 d   1      -2.732  12.056  57.534  0.00  0.00     0.007 A 
ATOM     37  H12 320 d   1      -2.050  11.038  55.683  0.00  0.00     0.090 H 
ATOM     38  N3  320 d   1      -2.326  12.795  58.514  0.00  0.00    -0.242 NA
ATOM     39  H13 320 d   1      -3.769  11.751  57.458  0.00  0.00     0.115 H 
ATOM     40  C2  320 d   1      -1.066  13.213  58.689  0.00  0.00     0.140 A 
ATOM     41  C1  320 d   1      -0.137  12.855  57.818  0.00  0.00     0.045 A 
ATOM     42  N9  320 d   1      -0.493  14.015  59.741  0.00  0.00    -0.350 N 
ATOM     43  C7  320 d   1       1.162  13.424  58.248  0.00  0.00    -0.052 A 
ATOM     44  C8  320 d   1       0.931  14.105  59.425  0.00  0.00    -0.020 A 
ATOM     45  H16 320 d   1       2.116  13.324  57.733  0.00  0.00     0.087 H 
ATOM     46  H15 320 d   1       1.683  14.623  60.019  0.00  0.00     0.111 H 
ATOM     47  H14 320 d   1      -0.983  14.435  60.544  0.00  0.00     0.166 HD
ENDBRANCH  33  34
ENDBRANCH   7  33
TORSDOF 5
