REMARK  16 active torsions:
REMARK  status: ('A' for Active; 'I' for Inactive)
REMARK    1  A    between atoms: N1_1  and  C2_16 
REMARK       I    between atoms: C14_21  and  N1_1 
REMARK    2  A    between atoms: C4_2  and  C10_7 
REMARK    3  A    between atoms: C5_3  and  O8_26 
REMARK    4  A    between atoms: C6_4  and  N16_28 
REMARK    5  A    between atoms: C10_7  and  C13_8 
REMARK    6  A    between atoms: C10_7  and  C11_19 
REMARK    7  A    between atoms: C10_7  and  C12_20 
REMARK    8  A    between atoms: S17_29  and  C20_11 
REMARK    9  A    between atoms: C23_24  and  C24_13 
REMARK   10  A    between atoms: C26_14  and  C14_21 
REMARK   11  A    between atoms: C76_42  and  C1_15 
REMARK   12  A    between atoms: O8_26  and  C9_18 
REMARK   13  A    between atoms: N16_28  and  S17_29 
REMARK   14  A    between atoms: N49_34  and  C48_33 
REMARK   15  A    between atoms: C61_39  and  C53_38 
REMARK       I    between atoms: N75_41  and  C61_39 
REMARK   16  A    between atoms: N75_41  and  C76_42 
ROOT
ATOM      1  N1  337 d   1      33.670  36.773  12.773  0.00  0.00    -0.320 N 
ATOM      2  C14 337 d   1      33.528  37.831  13.658  0.00  0.00     0.256 C 
ATOM      3  O15 337 d   1      32.412  38.261  13.973  0.00  0.00    -0.267 OA
ATOM      4  H1  337 d   1      34.593  36.461  12.546  0.00  0.00     0.169 HD
ENDROOT
BRANCH   2   5
ATOM      5  C26 337 d   1      34.783  38.409  14.174  0.00  0.00     0.034 A 
ATOM      6  C25 337 d   1      36.011  38.357  13.453  0.00  0.00    -0.067 A 
ATOM      7  C22 337 d   1      37.167  38.943  14.017  0.00  0.00    -0.074 A 
ATOM      8  H28 337 d   1      36.058  37.874  12.484  0.00  0.00     0.085 H 
ATOM      9  C23 337 d   1      37.120  39.583  15.289  0.00  0.00    -0.034 A 
ATOM     10  H12 337 d   1      38.104  38.905  13.473  0.00  0.00     0.084 H 
ATOM     11  C48 337 d   1      35.894  39.637  16.016  0.00  0.00     0.061 A 
ATOM     12  C47 337 d   1      34.754  39.045  15.434  0.00  0.00    -0.040 A 
ATOM     13  H30 337 d   1      33.816  39.080  15.977  0.00  0.00     0.088 H 
BRANCH   9  14
ATOM     14  C24 337 d   1      38.393  40.190  15.823  0.00  0.00    -0.049 C 
ATOM     15  H13 337 d   1      39.207  40.031  15.100  0.00  0.00     0.033 H 
ATOM     16  H14 337 d   1      38.654  39.713  16.779  0.00  0.00     0.033 H 
ATOM     17  H15 337 d   1      38.247  41.269  15.979  0.00  0.00     0.033 H 
ENDBRANCH   9  14
BRANCH  11  18
ATOM     18  N49 337 d   1      35.730  40.237  17.279  0.00  0.00    -0.246 N 
ATOM     19  C50 337 d   1      35.450  41.541  17.585  0.00  0.00     0.035 A 
ATOM     20  C53 337 d   1      35.409  41.576  18.952  0.00  0.00     0.159 A 
ATOM     21  H31 337 d   1      35.294  42.368  16.893  0.00  0.00     0.118 H 
ATOM     22  N52 337 d   1      35.660  40.323  19.388  0.00  0.00    -0.153 NA
ATOM     23  N51 337 d   1      35.873  39.421  18.388  0.00  0.00     0.010 NA
BRANCH  20  24
ATOM     24  C61 337 d   1      35.140  42.732  19.798  0.00  0.00     0.273 C 
ATOM     25  O62 337 d   1      35.119  43.901  19.433  0.00  0.00    -0.266 OA
ATOM     26  N75 337 d   1      34.885  42.349  21.070  0.00  0.00    -0.351 N 
ATOM     27  H32 337 d   1      34.926  41.372  21.279  0.00  0.00     0.163 HD
BRANCH  26  28
ATOM     28  C76 337 d   1      34.553  43.266  22.162  0.00  0.00     0.019 C 
ATOM     29  H33 337 d   1      35.010  42.902  23.094  0.00  0.00     0.071 H 
ATOM     30  H34 337 d   1      34.944  44.267  21.928  0.00  0.00     0.071 H 
BRANCH  28  31
ATOM     31  C1  337 d   1      33.043  43.344  22.338  0.00  0.00    -0.041 A 
ATOM     32  C8  337 d   1      32.165  42.493  21.596  0.00  0.00    -0.075 A 
ATOM     33  C15 337 d   1      30.761  42.547  21.780  0.00  0.00    -0.082 A 
ATOM     34  H3  337 d   1      32.581  41.794  20.880  0.00  0.00     0.084 H 
ATOM     35  C16 337 d   1      30.215  43.447  22.720  0.00  0.00    -0.083 A 
ATOM     36  H7  337 d   1      30.110  41.901  21.202  0.00  0.00     0.083 H 
ATOM     37  C17 337 d   1      31.074  44.288  23.476  0.00  0.00    -0.082 A 
ATOM     38  H26 337 d   1      29.142  43.496  22.865  0.00  0.00     0.083 H 
ATOM     39  C18 337 d   1      32.481  44.230  23.287  0.00  0.00    -0.075 A 
ATOM     40  H8  337 d   1      30.655  44.977  24.200  0.00  0.00     0.083 H 
ATOM     41  H27 337 d   1      33.129  44.870  23.875  0.00  0.00     0.084 H 
ENDBRANCH  28  31
ENDBRANCH  26  28
ENDBRANCH  20  24
ENDBRANCH  11  18
ENDBRANCH   2   5
BRANCH   1  42
ATOM     42  C2  337 d   1      32.590  36.127  12.187  0.00  0.00     0.071 A 
ATOM     43  C5  337 d   1      32.549  34.703  12.116  0.00  0.00     0.122 A 
ATOM     44  C6  337 d   1      31.421  34.057  11.504  0.00  0.00     0.078 A 
ATOM     45  C7  337 d   1      30.358  34.830  10.971  0.00  0.00    -0.047 A 
ATOM     46  C4  337 d   1      30.373  36.272  11.027  0.00  0.00    -0.046 A 
ATOM     47  H2  337 d   1      29.515  34.326  10.511  0.00  0.00     0.088 H 
ATOM     48  C3  337 d   1      31.512  36.884  11.641  0.00  0.00    -0.047 A 
ATOM     49  H16 337 d   1      31.557  37.966  11.693  0.00  0.00     0.087 H 
BRANCH  43  50
ATOM     50  O8  337 d   1      33.576  33.901  12.630  0.00  0.00    -0.351 OA
BRANCH  50  51
ATOM     51  C9  337 d   1      33.440  33.656  14.033  0.00  0.00     0.011 C 
ATOM     52  H17 337 d   1      34.272  33.024  14.377  0.00  0.00     0.067 H 
ATOM     53  H18 337 d   1      32.486  33.143  14.225  0.00  0.00     0.067 H 
ATOM     54  H19 337 d   1      33.458  34.613  14.576  0.00  0.00     0.067 H 
ENDBRANCH  50  51
ENDBRANCH  43  50
BRANCH  44  55
ATOM     55  N16 337 d   1      31.348  32.690  11.425  0.00  0.00    -0.282 N 
ATOM     56  H29 337 d   1      30.678  32.209  11.991  0.00  0.00     0.178 HD
BRANCH  55  57
ATOM     57  S17 337 d   1      32.325  31.811  10.430  0.00  0.00     0.227 S 
ATOM     58  O18 337 d   1      31.494  30.830   9.818  0.00  0.00    -0.206 OA
ATOM     59  O19 337 d   1      33.362  31.313  11.304  0.00  0.00    -0.206 OA
BRANCH  57  60
ATOM     60  C20 337 d   1      33.037  32.822   9.159  0.00  0.00     0.033 C 
ATOM     61  H9  337 d   1      33.681  32.204   8.516  0.00  0.00     0.051 H 
ATOM     62  H10 337 d   1      33.637  33.621   9.619  0.00  0.00     0.051 H 
ATOM     63  H11 337 d   1      32.235  33.269   8.553  0.00  0.00     0.051 H 
ENDBRANCH  57  60
ENDBRANCH  55  57
ENDBRANCH  44  55
BRANCH  46  64
ATOM     64  C10 337 d   1      29.237  37.176  10.467  0.00  0.00    -0.024 C 
BRANCH  64  65
ATOM     65  C13 337 d   1      29.799  38.109   9.362  0.00  0.00    -0.066 C 
ATOM     66  H4  337 d   1      28.990  38.744   8.972  0.00  0.00     0.028 H 
ATOM     67  H5  337 d   1      30.214  37.501   8.545  0.00  0.00     0.028 H 
ATOM     68  H6  337 d   1      30.591  38.744   9.786  0.00  0.00     0.028 H 
ENDBRANCH  64  65
BRANCH  64  69
ATOM     69  C11 337 d   1      28.633  38.030  11.615  0.00  0.00    -0.066 C 
ATOM     70  H20 337 d   1      28.236  37.365  12.396  0.00  0.00     0.028 H 
ATOM     71  H21 337 d   1      27.820  38.656  11.218  0.00  0.00     0.028 H 
ATOM     72  H22 337 d   1      29.415  38.673  12.044  0.00  0.00     0.028 H 
ENDBRANCH  64  69
BRANCH  64  73
ATOM     73  C12 337 d   1      28.058  36.377   9.838  0.00  0.00    -0.066 C 
ATOM     74  H23 337 d   1      28.436  35.753   9.015  0.00  0.00     0.028 H 
ATOM     75  H24 337 d   1      27.305  37.079   9.450  0.00  0.00     0.028 H 
ATOM     76  H25 337 d   1      27.600  35.735  10.605  0.00  0.00     0.028 H 
ENDBRANCH  64  73
ENDBRANCH  46  64
ENDBRANCH   1  42
TORSDOF 16
