REMARK  12 active torsions:
REMARK  status: ('A' for Active; 'I' for Inactive)
REMARK    1  A    between atoms: PA_1  and  O3A_4 
REMARK    2  A    between atoms: PA_1  and  O5'_5 
REMARK    3  A    between atoms: O3A_4  and  PB_6 
REMARK    4  A    between atoms: O5'_5  and  C5'_14 
REMARK    5  A    between atoms: PB_6  and  O3B_9 
REMARK    6  A    between atoms: O3B_9  and  PC_10 
REMARK    7  A    between atoms: C5'_14  and  C4'_15 
REMARK    8  A    between atoms: C3'_17  and  O3'_18 
REMARK    9  A    between atoms: C2'_19  and  O2'_20 
REMARK   10  A    between atoms: C1'_21  and  N9_22 
REMARK   11  A    between atoms: N7_24  and  CM7_25 
REMARK   12  A    between atoms: C2_30  and  N2_31 
ROOT
ATOM      1  C4' MGP d   1      29.581  20.788  -1.650  0.00  0.00     0.089 C 
ATOM      2  O4' MGP d   1      30.173  19.607  -1.019  0.00  0.00    -0.353 OA
ATOM      3  C3' MGP d   1      28.694  20.253  -2.778  0.00  0.00     0.091 C 
ATOM      4  C2' MGP d   1      29.478  19.024  -3.245  0.00  0.00     0.105 C 
ATOM      5  C1' MGP d   1      30.080  18.485  -1.932  0.00  0.00     0.139 C 
ATOM      6  H3  MGP d   1      30.376  21.425  -2.064  0.00  0.00     0.090 H 
ATOM      7  H4  MGP d   1      27.686  19.989  -2.427  0.00  0.00     0.091 H 
ATOM      8  H6  MGP d   1      28.826  18.285  -3.734  0.00  0.00     0.093 H 
ATOM      9  H8  MGP d   1      31.071  18.046  -2.116  0.00  0.00     0.122 H 
ENDROOT
BRANCH   5  10
ATOM     10  N9  MGP d   1      29.176  17.475  -1.325  0.00  0.00    -0.296 N 
ATOM     11  C8  MGP d   1      28.265  17.691  -0.373  0.00  0.00     0.049 A 
ATOM     12  N7  MGP d   1      27.653  16.541  -0.113  0.00  0.00    -0.340 N 
ATOM     13  H9  MGP d   1      28.059  18.646   0.108  0.00  0.00     0.141 H 
ATOM     14  C5  MGP d   1      28.157  15.567  -0.879  0.00  0.00     0.149 A 
ATOM     15  C6  MGP d   1      27.934  14.192  -1.035  0.00  0.00     0.290 A 
ATOM     16  C4  MGP d   1      29.136  16.187  -1.654  0.00  0.00     0.159 A 
ATOM     17  O6  MGP d   1      27.095  13.579  -0.371  0.00  0.00    -0.265 OA
ATOM     18  N1  MGP d   1      28.695  13.498  -1.977  0.00  0.00    -0.154 N 
ATOM     19  C2  MGP d   1      29.661  14.187  -2.724  0.00  0.00     0.680 A 
ATOM     20  H13 MGP d   1      28.553  12.518  -2.118  0.00  0.00     0.187 HD
ATOM     21  N3  MGP d   1      29.846  15.497  -2.553  0.00  0.00    -0.174 N 
ATOM     22  H16 MGP d   1      30.549  15.986  -3.124  0.00  0.00     0.186 HD
BRANCH  12  23
ATOM     23  CM7 MGP d   1      26.580  16.415   0.905  0.00  0.00    -0.013 C 
ATOM     24  H10 MGP d   1      26.392  17.397   1.363  0.00  0.00     0.057 H 
ATOM     25  H11 MGP d   1      26.893  15.702   1.682  0.00  0.00     0.057 H 
ATOM     26  H12 MGP d   1      25.659  16.052   0.424  0.00  0.00     0.057 H 
ENDBRANCH  12  23
BRANCH  19  27
ATOM     27  N2  MGP d   1      30.411  13.558  -3.623  0.00  0.00    -0.234 N 
ATOM     28  H14 MGP d   1      31.116  14.081  -4.162  0.00  0.00     0.174 HD
ATOM     29  H15 MGP d   1      30.288  12.548  -3.780  0.00  0.00     0.174 HD
ENDBRANCH  19  27
ENDBRANCH   5  10
BRANCH   4  30
ATOM     30  O2' MGP d   1      30.540  19.418  -4.124  0.00  0.00    -0.388 OA
ATOM     31  H7  MGP d   1      31.018  18.647  -4.406  0.00  0.00     0.210 HD
ENDBRANCH   4  30
BRANCH   1  32
ATOM     32  C5' MGP d   1      28.745  21.618  -0.664  0.00  0.00     0.058 C 
ATOM     33  H1  MGP d   1      29.421  22.262  -0.083  0.00  0.00     0.079 H 
ATOM     34  H2  MGP d   1      28.044  22.244  -1.236  0.00  0.00     0.079 H 
BRANCH  32  35
ATOM     35  O5' MGP d   1      27.996  20.800   0.244  0.00  0.00    -0.287 OA
BRANCH  35  36
ATOM     36  PA  MGP d   1      26.430  21.075   0.589  0.00  0.00     0.417 P 
ATOM     37  O1A MGP d   1      25.622  19.989  -0.029  0.00  0.00    -0.624 OA
ATOM     38  O2A MGP d   1      26.095  22.500   0.292  0.00  0.00    -0.624 OA
BRANCH  36  39
ATOM     39  O3A MGP d   1      26.429  20.832   2.180  0.00  0.00    -0.180 OA
BRANCH  39  40
ATOM     40  PB  MGP d   1      27.443  21.627   3.144  0.00  0.00     0.428 P 
ATOM     41  O1B MGP d   1      27.308  23.079   2.882  0.00  0.00    -0.624 OA
ATOM     42  O2B MGP d   1      28.776  20.992   3.068  0.00  0.00    -0.624 OA
BRANCH  40  43
ATOM     43  O3B MGP d   1      26.793  21.312   4.578  0.00  0.00    -0.173 OA
BRANCH  43  44
ATOM     44  PC  MGP d   1      26.761  19.820   5.197  0.00  0.00     0.431 P 
ATOM     45  O1C MGP d   1      28.099  19.217   5.433  0.00  0.00    -0.616 OA
ATOM     46  O2C MGP d   1      25.834  18.894   4.247  0.00  0.00    -0.616 OA
ATOM     47  O3C MGP d   1      25.929  19.996   6.579  0.00  0.00    -0.616 OA
ENDBRANCH  43  44
ENDBRANCH  40  43
ENDBRANCH  39  40
ENDBRANCH  36  39
ENDBRANCH  35  36
ENDBRANCH  32  35
ENDBRANCH   1  32
BRANCH   3  48
ATOM     48  O3' MGP d   1      28.624  21.239  -3.826  0.00  0.00    -0.390 OA
ATOM     49  H5  MGP d   1      28.253  22.042  -3.479  0.00  0.00     0.210 HD
ENDBRANCH   3  48
TORSDOF 12
