REMARK  11 active torsions:
REMARK  status: ('A' for Active; 'I' for Inactive)
REMARK    1  A    between atoms: C5_2  and  N26_16 
REMARK    2  A    between atoms: C7_4  and  C9_23 
REMARK    3  A    between atoms: C8_5  and  O32_32 
REMARK    4  A    between atoms: C21_11  and  C15_8 
REMARK    5  A    between atoms: C21_11  and  C17_9 
REMARK    6  A    between atoms: N24_27  and  C20_10 
REMARK    7  A    between atoms: C20_10  and  C19_33 
REMARK    8  A    between atoms: C19_33  and  C21_11 
REMARK    9  A    between atoms: C21_11  and  C16_34 
REMARK   10  A    between atoms: S34_13  and  C18_15 
REMARK   11  A    between atoms: N26_16  and  S34_13 
ROOT
ATOM      1  C7  N34 d   1      96.798   8.437  54.229  0.00  0.00     0.111 C 
ATOM      2  C8  N34 d   1      97.234   7.514  53.335  0.00  0.00     0.096 C 
ATOM      3  C10 N34 d   1      96.049   9.628  53.707  0.00  0.00     0.284 C 
ATOM      4  C13 N34 d   1      98.205   9.670  51.115  0.00  0.00     0.105 C 
ATOM      5  O27 N34 d   1      95.352  10.274  54.503  0.00  0.00    -0.265 OA
ATOM      6  N24 N34 d   1      96.100   9.877  52.341  0.00  0.00    -0.173 N 
ATOM      7  N25 N34 d   1      96.878   9.122  51.450  0.00  0.00     0.023 N 
ATOM      8  C11 N34 d   1      98.762   8.528  50.284  0.00  0.00    -0.038 C 
ATOM      9  C14 N34 d   1      97.031   7.703  51.834  0.00  0.00     0.172 C 
ATOM     10  C12 N34 d   1      98.201   7.270  50.936  0.00  0.00    -0.029 C 
ATOM     11  H1  N34 d   1      98.810   9.852  52.015  0.00  0.00     0.079 H 
ATOM     12  H2  N34 d   1      98.127  10.599  50.531  0.00  0.00     0.079 H 
ATOM     13  H19 N34 d   1      96.356   9.125  50.588  0.00  0.00     0.310 HD
ATOM     14  H20 N34 d   1      99.862   8.525  50.316  0.00  0.00     0.035 H 
ATOM     15  H21 N34 d   1      98.426   8.607  49.240  0.00  0.00     0.035 H 
ATOM     16  H22 N34 d   1      96.129   7.138  51.555  0.00  0.00     0.099 H 
ATOM     17  H23 N34 d   1      98.979   6.781  51.541  0.00  0.00     0.036 H 
ATOM     18  H24 N34 d   1      97.844   6.573  50.164  0.00  0.00     0.036 H 
ENDROOT
BRANCH   1  19
ATOM     19  C9  N34 d   1      96.914   8.315  55.702  0.00  0.00     0.156 C 
ATOM     20  N23 N34 d   1      97.840   7.326  56.153  0.00  0.00    -0.263 N 
ATOM     21  S33 N34 d   1      97.895   6.844  57.783  0.00  0.00     0.266 S 
ATOM     22  H17 N34 d   1      98.469   6.908  55.497  0.00  0.00     0.180 HD
ATOM     23  C6  N34 d   1      97.210   8.239  58.606  0.00  0.00     0.110 A 
ATOM     24  O28 N34 d   1      99.278   6.723  58.169  0.00  0.00    -0.200 OA
ATOM     25  O29 N34 d   1      96.962   5.771  58.014  0.00  0.00    -0.200 OA
ATOM     26  C4  N34 d   1      96.435   9.159  57.871  0.00  0.00     0.082 A 
ATOM     27  C3  N34 d   1      97.433   8.398  59.987  0.00  0.00    -0.032 A 
ATOM     28  N22 N34 d   1      96.180   9.063  56.488  0.00  0.00    -0.228 NA
ATOM     29  C1  N34 d   1      95.900  10.273  58.556  0.00  0.00    -0.051 A 
ATOM     30  C2  N34 d   1      96.110  10.438  59.929  0.00  0.00    -0.054 A 
ATOM     31  H18 N34 d   1      95.320  11.009  58.011  0.00  0.00     0.087 H 
ATOM     32  C5  N34 d   1      96.868   9.501  60.647  0.00  0.00     0.043 A 
ATOM     33  H15 N34 d   1      95.685  11.294  60.441  0.00  0.00     0.087 H 
ATOM     34  H16 N34 d   1      98.033   7.679  60.533  0.00  0.00     0.089 H 
BRANCH  32  35
ATOM     35  N26 N34 d   1      97.066   9.720  62.047  0.00  0.00    -0.285 N 
ATOM     36  H14 N34 d   1      97.091  10.656  62.397  0.00  0.00     0.178 HD
BRANCH  35  37
ATOM     37  S34 N34 d   1      97.261   8.413  63.135  0.00  0.00     0.227 S 
ATOM     38  O31 N34 d   1      96.766   7.169  62.574  0.00  0.00    -0.206 OA
ATOM     39  O30 N34 d   1      96.852   8.833  64.460  0.00  0.00    -0.206 OA
BRANCH  37  40
ATOM     40  C18 N34 d   1      99.030   8.297  63.228  0.00  0.00     0.033 C 
ATOM     41  H11 N34 d   1      99.428   7.980  62.253  0.00  0.00     0.051 H 
ATOM     42  H12 N34 d   1      99.309   7.560  63.995  0.00  0.00     0.051 H 
ATOM     43  H13 N34 d   1      99.448   9.279  63.493  0.00  0.00     0.051 H 
ENDBRANCH  37  40
ENDBRANCH  35  37
ENDBRANCH  32  35
ENDBRANCH   1  19
BRANCH   2  44
ATOM     44  O32 N34 d   1      97.845   6.325  53.667  0.00  0.00    -0.362 OA
ATOM     45  H25 N34 d   1      97.940   6.272  54.611  0.00  0.00     0.217 HD
ENDBRANCH   2  44
BRANCH   6  46
ATOM     46  C20 N34 d   1      95.238  10.864  51.730  0.00  0.00     0.026 C 
ATOM     47  H9  N34 d   1      95.657  11.211  50.774  0.00  0.00     0.067 H 
ATOM     48  H10 N34 d   1      95.091  11.724  52.400  0.00  0.00     0.067 H 
BRANCH  46  49
ATOM     49  C19 N34 d   1      93.926  10.120  51.508  0.00  0.00    -0.042 C 
ATOM     50  H26 N34 d   1      93.562   9.820  52.502  0.00  0.00     0.036 H 
ATOM     51  H27 N34 d   1      94.168   9.222  50.920  0.00  0.00     0.036 H 
BRANCH  49  52
ATOM     52  C21 N34 d   1      92.743  10.811  50.793  0.00  0.00    -0.050 C 
BRANCH  52  53
ATOM     53  C15 N34 d   1      92.324  12.096  51.532  0.00  0.00    -0.070 C 
ATOM     54  H3  N34 d   1      91.482  12.566  51.002  0.00  0.00     0.028 H 
ATOM     55  H4  N34 d   1      93.173  12.794  51.563  0.00  0.00     0.028 H 
ATOM     56  H5  N34 d   1      92.017  11.845  52.558  0.00  0.00     0.028 H 
ENDBRANCH  52  53
BRANCH  52  57
ATOM     57  C17 N34 d   1      93.142  11.162  49.343  0.00  0.00    -0.070 C 
ATOM     58  H6  N34 d   1      93.442  10.246  48.813  0.00  0.00     0.028 H 
ATOM     59  H7  N34 d   1      93.984  11.870  49.355  0.00  0.00     0.028 H 
ATOM     60  H8  N34 d   1      92.285  11.620  48.828  0.00  0.00     0.028 H 
ENDBRANCH  52  57
BRANCH  52  61
ATOM     61  C16 N34 d   1      91.551   9.838  50.742  0.00  0.00    -0.070 C 
ATOM     62  H28 N34 d   1      90.704  10.322  50.234  0.00  0.00     0.028 H 
ATOM     63  H29 N34 d   1      91.257   9.565  51.766  0.00  0.00     0.028 H 
ATOM     64  H30 N34 d   1      91.841   8.932  50.189  0.00  0.00     0.028 H 
ENDBRANCH  52  61
ENDBRANCH  49  52
ENDBRANCH  46  49
ENDBRANCH   6  46
TORSDOF 11
