REMARK  7 active torsions:
REMARK  status: ('A' for Active; 'I' for Inactive)
REMARK    1  A    between atoms: C56_2  and  C55_3 
REMARK    2  A    between atoms: C56_2  and  C20_9 
REMARK    3  A    between atoms: C20_9  and  C4_10 
REMARK    4  A    between atoms: C20_9  and  C44_16 
REMARK    5  A    between atoms: C44_16  and  C36_17 
REMARK    6  A    between atoms: C39_21  and  C45_24 
REMARK    7  A    between atoms: C45_24  and  P48_27 
ROOT
ATOM      1  C20 825 d   1      24.405  23.912  -0.533  0.00  0.00     0.038 C 
ATOM      2  H6  825 d   1      23.349  23.936  -0.227  0.00  0.00     0.060 H 
ENDROOT
BRANCH   1   3
ATOM      3  C56 825 d   1      24.752  25.227  -1.172  0.00  0.00     0.168 C 
ATOM      4  O57 825 d   1      25.924  25.607  -1.175  0.00  0.00    -0.292 OA
BRANCH   3   5
ATOM      5  C55 825 d   1      23.678  26.058  -1.837  0.00  0.00     0.010 A 
ATOM      6  C62 825 d   1      22.352  25.617  -1.883  0.00  0.00    -0.070 A 
ATOM      7  C61 825 d   1      21.375  26.411  -2.493  0.00  0.00    -0.082 A 
ATOM      8  H1  825 d   1      22.082  24.662  -1.447  0.00  0.00     0.085 H 
ATOM      9  C60 825 d   1      21.731  27.640  -3.041  0.00  0.00    -0.083 A 
ATOM     10  H2  825 d   1      20.347  26.071  -2.539  0.00  0.00     0.083 H 
ATOM     11  C59 825 d   1      23.041  28.087  -3.006  0.00  0.00    -0.082 A 
ATOM     12  H3  825 d   1      20.970  28.258  -3.503  0.00  0.00     0.083 H 
ATOM     13  C58 825 d   1      24.017  27.297  -2.396  0.00  0.00    -0.070 A 
ATOM     14  H4  825 d   1      23.306  29.041  -3.448  0.00  0.00     0.083 H 
ATOM     15  H5  825 d   1      25.043  27.644  -2.355  0.00  0.00     0.085 H 
ENDBRANCH   3   5
ENDBRANCH   1   3
BRANCH   1  16
ATOM     16  C4  825 d   1      24.577  22.806  -1.529  0.00  0.00    -0.046 A 
ATOM     17  C3  825 d   1      23.455  22.081  -1.947  0.00  0.00    -0.076 A 
ATOM     18  C2  825 d   1      23.584  21.041  -2.876  0.00  0.00    -0.082 A 
ATOM     19  H7  825 d   1      22.477  22.327  -1.548  0.00  0.00     0.084 H 
ATOM     20  C1  825 d   1      24.852  20.737  -3.385  0.00  0.00    -0.083 A 
ATOM     21  H8  825 d   1      22.714  20.479  -3.196  0.00  0.00     0.083 H 
ATOM     22  C6  825 d   1      25.979  21.463  -2.981  0.00  0.00    -0.082 A 
ATOM     23  H11 825 d   1      24.963  19.930  -4.100  0.00  0.00     0.083 H 
ATOM     24  C5  825 d   1      25.850  22.505  -2.055  0.00  0.00    -0.076 A 
ATOM     25  H10 825 d   1      26.954  21.218  -3.386  0.00  0.00     0.083 H 
ATOM     26  H9  825 d   1      26.719  23.074  -1.746  0.00  0.00     0.084 H 
ENDBRANCH   1  16
BRANCH   1  27
ATOM     27  C44 825 d   1      25.272  23.709   0.736  0.00  0.00    -0.027 C 
ATOM     28  H12 825 d   1      25.224  24.616   1.356  0.00  0.00     0.041 H 
ATOM     29  H13 825 d   1      26.314  23.524   0.437  0.00  0.00     0.041 H 
BRANCH  27  30
ATOM     30  C36 825 d   1      24.768  22.530   1.539  0.00  0.00    -0.056 A 
ATOM     31  C37 825 d   1      25.305  21.245   1.314  0.00  0.00    -0.059 A 
ATOM     32  C38 825 d   1      24.855  20.141   2.021  0.00  0.00     0.024 A 
ATOM     33  H14 825 d   1      26.086  21.118   0.573  0.00  0.00     0.086 H 
ATOM     34 BR1  825 d   1      25.594  18.518   1.632  0.00  0.00    -0.050 Br
ATOM     35  C39 825 d   1      23.812  20.358   3.076  0.00  0.00     0.045 A 
ATOM     36  C40 825 d   1      23.288  21.652   3.265  0.00  0.00    -0.069 A 
ATOM     37  C35 825 d   1      23.783  22.719   2.513  0.00  0.00    -0.076 A 
ATOM     38  H15 825 d   1      22.502  21.819   3.993  0.00  0.00     0.084 H 
ATOM     39  H16 825 d   1      23.395  23.716   2.688  0.00  0.00     0.084 H 
BRANCH  35  40
ATOM     40  C45 825 d   1      23.199  19.244   3.887  0.00  0.00     0.381 C 
ATOM     41  F46 825 d   1      23.145  18.135   3.150  0.00  0.00    -0.185 F 
ATOM     42  F47 825 d   1      21.931  19.605   4.108  0.00  0.00    -0.185 F 
BRANCH  40  43
ATOM     43  P48 825 d   1      23.955  18.892   5.526  0.00  0.00     0.339 P 
ATOM     44  O49 825 d   1      23.909  20.206   6.250  0.00  0.00    -0.635 OA
ATOM     45  O50 825 d   1      25.353  18.406   5.276  0.00  0.00    -0.635 OA
ATOM     46  O51 825 d   1      23.039  17.814   6.062  0.00  0.00    -0.635 OA
ENDBRANCH  40  43
ENDBRANCH  35  40
ENDBRANCH  27  30
ENDBRANCH   1  27
TORSDOF 7
