REMARK  11 active torsions:
REMARK  status: ('A' for Active; 'I' for Inactive)
REMARK    1  A    between atoms: S35_2  and  C19_4 
REMARK    2  A    between atoms: S35_2  and  N26_5 
REMARK    3  A    between atoms: N26_5  and  C8_6 
REMARK    4  A    between atoms: C14_14  and  C13_18 
REMARK    5  A    between atoms: C15_19  and  O32_20 
REMARK    6  A    between atoms: N25_23  and  C21_24 
REMARK    7  A    between atoms: C21_24  and  C20_25 
REMARK    8  A    between atoms: C20_25  and  C22_26 
REMARK    9  A    between atoms: C22_26  and  C18_27 
REMARK   10  A    between atoms: C22_26  and  C17_28 
REMARK   11  A    between atoms: C12_30  and  C10_31 
ROOT
ATOM      1  C13 321 d   1      96.053   8.133  53.204  0.00  0.00     0.096 C 
ATOM      2  C15 321 d   1      96.656   7.410  52.234  0.00  0.00     0.115 C 
ATOM      3  C16 321 d   1      95.131   9.249  52.782  0.00  0.00     0.279 C 
ATOM      4  O27 321 d   1      94.473   9.875  53.628  0.00  0.00    -0.265 OA
ATOM      5  N25 321 d   1      95.075   9.526  51.416  0.00  0.00    -0.233 N 
ATOM      6  N23 321 d   1      95.897   8.943  50.492  0.00  0.00    -0.166 NA
ATOM      7  C12 321 d   1      96.563   7.882  50.829  0.00  0.00     0.128 C 
ENDROOT
BRANCH   1   8
ATOM      8  C14 321 d   1      96.275   7.947  54.623  0.00  0.00     0.062 A 
ATOM      9  C11 321 d   1      96.850   6.807  55.048  0.00  0.00     0.039 A 
ATOM     10  S34 321 d   1      97.145   6.541  56.724  0.00  0.00     0.201 S 
ATOM     11  H7  321 d   1      97.132   6.044  54.324  0.00  0.00     0.106 H 
ATOM     12  C9  321 d   1      96.582   8.007  57.562  0.00  0.00     0.092 A 
ATOM     13  O28 321 d   1      96.270   5.457  57.122  0.00  0.00    -0.218 OA
ATOM     14  O29 321 d   1      98.579   6.432  56.912  0.00  0.00    -0.218 OA
ATOM     15  C5  321 d   1      96.688   8.114  58.962  0.00  0.00    -0.033 A 
ATOM     16  C7  321 d   1      96.015   9.054  56.812  0.00  0.00     0.054 A 
ATOM     17  C8  321 d   1      96.229   9.279  59.607  0.00  0.00     0.043 A 
ATOM     18  H6  321 d   1      97.120   7.305  59.540  0.00  0.00     0.089 H 
ATOM     19  C3  321 d   1      95.668  10.315  58.856  0.00  0.00    -0.054 A 
ATOM     20  C2  321 d   1      95.564  10.206  57.469  0.00  0.00    -0.053 A 
ATOM     21  H5  321 d   1      95.311  11.209  59.354  0.00  0.00     0.087 H 
ATOM     22  H9  321 d   1      95.131  11.018  56.896  0.00  0.00     0.087 H 
ATOM     23  N24 321 d   1      95.890   8.996  55.426  0.00  0.00    -0.354 N 
ATOM     24  H8  321 d   1      95.471   9.813  54.959  0.00  0.00     0.166 HD
BRANCH  17  25
ATOM     25  N26 321 d   1      96.289   9.497  61.023  0.00  0.00    -0.285 N 
ATOM     26  H4  321 d   1      95.887  10.339  61.383  0.00  0.00     0.178 HD
BRANCH  25  27
ATOM     27  S35 321 d   1      97.008   8.405  62.144  0.00  0.00     0.227 S 
ATOM     28  O31 321 d   1      96.511   7.059  61.925  0.00  0.00    -0.206 OA
ATOM     29  O30 321 d   1      96.942   9.015  63.454  0.00  0.00    -0.206 OA
BRANCH  27  30
ATOM     30  C19 321 d   1      98.734   8.472  61.714  0.00  0.00     0.033 C 
ATOM     31  H1  321 d   1      98.882   8.024  60.720  0.00  0.00     0.051 H 
ATOM     32  H2  321 d   1      99.319   7.913  62.459  0.00  0.00     0.051 H 
ATOM     33  H3  321 d   1      99.067   9.520  61.697  0.00  0.00     0.051 H 
ENDBRANCH  27  30
ENDBRANCH  25  27
ENDBRANCH  17  25
ENDBRANCH   1   8
BRANCH   2  34
ATOM     34  O32 321 d   1      97.375   6.252  52.476  0.00  0.00    -0.357 OA
ATOM     35  H10 321 d   1      97.710   5.911  51.655  0.00  0.00     0.217 HD
ENDBRANCH   2  34
BRANCH   7  36
ATOM     36  C10 321 d   1      97.457   7.276  49.839  0.00  0.00     0.038 A 
ATOM     37  C4  321 d   1      97.951   5.992  49.780  0.00  0.00    -0.064 A 
ATOM     38  C1  321 d   1      98.805   5.808  48.659  0.00  0.00    -0.075 A 
ATOM     39  H22 321 d   1      97.716   5.213  50.504  0.00  0.00     0.085 H 
ATOM     40  C6  321 d   1      98.940   6.953  47.910  0.00  0.00    -0.044 A 
ATOM     41  H24 321 d   1      99.297   4.866  48.420  0.00  0.00     0.084 H 
ATOM     42  S33 321 d   1      98.030   8.247  48.557  0.00  0.00    -0.100 SA
ATOM     43  H23 321 d   1      99.553   7.027  47.013  0.00  0.00     0.095 H 
ENDBRANCH   7  36
BRANCH   5  44
ATOM     44  C21 321 d   1      94.368  10.704  50.928  0.00  0.00     0.021 C 
ATOM     45  H11 321 d   1      94.825  11.020  49.978  0.00  0.00     0.067 H 
ATOM     46  H12 321 d   1      94.472  11.509  51.670  0.00  0.00     0.067 H 
BRANCH  44  47
ATOM     47  C20 321 d   1      92.878  10.447  50.692  0.00  0.00    -0.045 C 
ATOM     48  H13 321 d   1      92.467  11.322  50.168  0.00  0.00     0.036 H 
ATOM     49  H14 321 d   1      92.396  10.349  51.676  0.00  0.00     0.036 H 
BRANCH  47  50
ATOM     50  C22 321 d   1      92.517   9.191  49.864  0.00  0.00    -0.060 C 
ATOM     51  H15 321 d   1      93.115   8.358  50.261  0.00  0.00     0.038 H 
BRANCH  50  52
ATOM     52  C18 321 d   1      91.043   8.800  49.978  0.00  0.00    -0.073 C 
ATOM     53  H16 321 d   1      90.853   7.904  49.369  0.00  0.00     0.028 H 
ATOM     54  H17 321 d   1      90.415   9.628  49.618  0.00  0.00     0.028 H 
ATOM     55  H18 321 d   1      90.800   8.587  51.029  0.00  0.00     0.028 H 
ENDBRANCH  50  52
BRANCH  50  56
ATOM     56  C17 321 d   1      92.874   9.367  48.381  0.00  0.00    -0.073 C 
ATOM     57  H19 321 d   1      93.933   9.649  48.290  0.00  0.00     0.028 H 
ATOM     58  H20 321 d   1      92.246  10.157  47.944  0.00  0.00     0.028 H 
ATOM     59  H21 321 d   1      92.699   8.421  47.847  0.00  0.00     0.028 H 
ENDBRANCH  50  56
ENDBRANCH  47  50
ENDBRANCH  44  47
ENDBRANCH   5  44
TORSDOF 11
