REMARK  13 active torsions:
REMARK  status: ('A' for Active; 'I' for Inactive)
REMARK    1  A    between atoms: C1_1  and  C16_16 
REMARK    2  A    between atoms: C1_1  and  C17_17 
REMARK    3  A    between atoms: C5_5  and  C18_18 
REMARK    4  A    between atoms: C6_6  and  C7_7 
REMARK    5  A    between atoms: C7_7  and  C8_8 
REMARK    6  A    between atoms: C8_8  and  C9_9 
REMARK    7  A    between atoms: C9_9  and  C10_10 
REMARK    8  A    between atoms: C9_9  and  C19_19 
REMARK    9  A    between atoms: C10_10  and  C11_11 
REMARK   10  A    between atoms: C11_11  and  C12_12 
REMARK   11  A    between atoms: C12_12  and  C13_13 
REMARK   12  A    between atoms: C13_13  and  C20_20 
REMARK   13  A    between atoms: C14_14  and  C15_15 
ROOT
ATOM      1  C7  REA d   1      22.499  25.957  18.031  0.00  0.00    -0.075 C 
ATOM      2  H7  REA d   1      23.574  25.976  17.859  0.00  0.00     0.084 H 
ENDROOT
BRANCH   1   3
ATOM      3  C6  REA d   1      21.607  26.559  17.010  0.00  0.00    -0.048 C 
ATOM      4  C1  REA d   1      22.092  27.883  16.493  0.00  0.00    -0.020 C 
ATOM      5  C2  REA d   1      20.968  28.557  15.648  0.00  0.00    -0.054 C 
ATOM      6  C3  REA d   1      20.234  27.605  14.695  0.00  0.00    -0.061 C 
ATOM      7  H1  REA d   1      21.422  29.360  15.049  0.00  0.00     0.034 H 
ATOM      8  H2  REA d   1      20.229  28.988  16.340  0.00  0.00     0.034 H 
ATOM      9  C4  REA d   1      19.576  26.476  15.441  0.00  0.00    -0.044 C 
ATOM     10  H3  REA d   1      20.958  27.187  13.980  0.00  0.00     0.033 H 
ATOM     11  H4  REA d   1      19.464  28.169  14.149  0.00  0.00     0.033 H 
ATOM     12  C5  REA d   1      20.492  25.911  16.510  0.00  0.00    -0.077 C 
ATOM     13  H5  REA d   1      19.321  25.677  14.729  0.00  0.00     0.039 H 
ATOM     14  H6  REA d   1      18.657  26.849  15.918  0.00  0.00     0.039 H 
BRANCH   4  15
ATOM     15  C16 REA d   1      22.482  28.745  17.695  0.00  0.00    -0.065 C 
ATOM     16  H13 REA d   1      23.275  28.240  18.267  0.00  0.00     0.028 H 
ATOM     17  H14 REA d   1      21.603  28.894  18.340  0.00  0.00     0.028 H 
ATOM     18  H15 REA d   1      22.848  29.721  17.343  0.00  0.00     0.028 H 
ENDBRANCH   4  15
BRANCH   4  19
ATOM     19  C17 REA d   1      23.380  27.634  15.692  0.00  0.00    -0.065 C 
ATOM     20  H16 REA d   1      23.151  27.015  14.812  0.00  0.00     0.028 H 
ATOM     21  H17 REA d   1      24.111  27.113  16.327  0.00  0.00     0.028 H 
ATOM     22  H18 REA d   1      23.799  28.596  15.364  0.00  0.00     0.028 H 
ENDBRANCH   4  19
BRANCH  12  23
ATOM     23  C18 REA d   1      20.066  24.564  16.983  0.00  0.00    -0.054 C 
ATOM     24  H19 REA d   1      20.765  24.208  17.754  0.00  0.00     0.033 H 
ATOM     25  H20 REA d   1      20.065  23.862  16.137  0.00  0.00     0.033 H 
ATOM     26  H21 REA d   1      19.053  24.628  17.408  0.00  0.00     0.033 H 
ENDBRANCH  12  23
ENDBRANCH   1   3
BRANCH   1  27
ATOM     27  C8  REA d   1      22.018  25.363  19.210  0.00  0.00    -0.077 C 
ATOM     28  H8  REA d   1      20.951  25.418  19.422  0.00  0.00     0.084 H 
BRANCH  27  29
ATOM     29  C9  REA d   1      22.878  24.679  20.159  0.00  0.00    -0.062 C 
BRANCH  29  30
ATOM     30  C10 REA d   1      22.158  24.025  21.233  0.00  0.00    -0.077 C 
ATOM     31  H9  REA d   1      21.069  24.047  21.243  0.00  0.00     0.084 H 
BRANCH  30  32
ATOM     32  C11 REA d   1      22.865  23.347  22.287  0.00  0.00    -0.082 C 
ATOM     33  H10 REA d   1      23.950  23.272  22.346  0.00  0.00     0.083 H 
BRANCH  32  34
ATOM     34  C12 REA d   1      21.949  22.773  23.267  0.00  0.00    -0.077 C 
ATOM     35  H11 REA d   1      20.879  22.948  23.167  0.00  0.00     0.084 H 
BRANCH  34  36
ATOM     36  C13 REA d   1      22.429  21.992  24.345  0.00  0.00    -0.056 C 
ATOM     37  C14 REA d   1      21.415  21.693  25.283  0.00  0.00    -0.004 C 
ATOM     38  H12 REA d   1      20.429  22.128  25.129  0.00  0.00     0.094 H 
BRANCH  37  39
ATOM     39  C15 REA d   1      21.612  20.845  26.431  0.00  0.00     0.199 C 
ATOM     40  O1  REA d   1      22.498  19.938  26.395  0.00  0.00    -0.644 OA
ATOM     41  O2  REA d   1      20.826  21.052  27.423  0.00  0.00    -0.644 OA
ENDBRANCH  37  39
BRANCH  36  42
ATOM     42  C20 REA d   1      23.848  21.610  24.390  0.00  0.00    -0.051 C 
ATOM     43  H25 REA d   1      24.362  22.005  23.502  0.00  0.00     0.033 H 
ATOM     44  H26 REA d   1      23.932  20.513  24.405  0.00  0.00     0.033 H 
ATOM     45  H27 REA d   1      24.311  22.026  25.297  0.00  0.00     0.033 H 
ENDBRANCH  36  42
ENDBRANCH  34  36
ENDBRANCH  32  34
ENDBRANCH  30  32
ENDBRANCH  29  30
BRANCH  29  46
ATOM     46  C19 REA d   1      24.362  24.690  20.042  0.00  0.00    -0.051 C 
ATOM     47  H22 REA d   1      24.655  25.251  19.142  0.00  0.00     0.033 H 
ATOM     48  H23 REA d   1      24.732  23.657  19.966  0.00  0.00     0.033 H 
ATOM     49  H24 REA d   1      24.796  25.170  20.931  0.00  0.00     0.033 H 
ENDBRANCH  29  46
ENDBRANCH  27  29
ENDBRANCH   1  27
TORSDOF 13
