REMARK  26 active torsions:
REMARK  status: ('A' for Active; 'I' for Inactive)
REMARK    1  A    between atoms: C6_2  and  O6_3 
REMARK    2  A    between atoms: C6_2  and  C7_16 
REMARK    3  A    between atoms: O6_3  and  C5_4 
REMARK    4  A    between atoms: C5_4  and  C4_5 
REMARK    5  A    between atoms: C4_5  and  O5_6 
REMARK    6  A    between atoms: C4_5  and  C3_7 
REMARK    7  A    between atoms: C3_7  and  O1_8 
REMARK    8  A    between atoms: O1_8  and  P1_9 
REMARK    9  A    between atoms: P1_9  and  O2_11 
REMARK   10  A    between atoms: O2_11  and  C1_12 
REMARK   11  A    between atoms: C1_12  and  C2_13 
REMARK   12  A    between atoms: C2_13  and  N1_14 
REMARK   13  A    between atoms: C7_16  and  C8_17 
REMARK   14  A    between atoms: C8_17  and  C9_18 
REMARK   15  A    between atoms: C9_18  and  C10_19 
REMARK   16  A    between atoms: C10_19  and  C11_20 
REMARK   17  A    between atoms: C11_20  and  C12_21 
REMARK   18  A    between atoms: C12_21  and  C13_22 
REMARK   19  A    between atoms: C13_22  and  C14_23 
REMARK   20  A    between atoms: C14_23  and  C15_24 
REMARK   21  A    between atoms: C15_24  and  C16_25 
REMARK   22  A    between atoms: C16_25  and  C17_26 
REMARK   23  A    between atoms: C17_26  and  C18_27 
REMARK   24  A    between atoms: C18_27  and  C19_28 
REMARK   25  A    between atoms: C19_28  and  C20_29 
REMARK   26  A    between atoms: C20_29  and  C21_30 
ROOT
ATOM      1  C9  LPX d   1     -36.025   6.769  -8.982  0.00  0.00    -0.065 C 
ATOM      2  H   LPX d   1     -36.405   7.016  -7.991  0.00  0.00     0.033 H 
ATOM      3  H   LPX d   1     -36.012   7.602  -9.685  0.00  0.00     0.033 H 
ENDROOT
BRANCH   1   4
ATOM      4  C8  LPX d   1     -36.957   5.710  -9.564  0.00  0.00    -0.057 C 
ATOM      5  H   LPX d   1     -37.860   5.730  -8.954  0.00  0.00     0.033 H 
ATOM      6  H   LPX d   1     -37.084   5.961 -10.617  0.00  0.00     0.033 H 
BRANCH   4   7
ATOM      7  C7  LPX d   1     -36.444   4.263  -9.526  0.00  0.00     0.016 C 
ATOM      8  H   LPX d   1     -35.770   4.149  -8.677  0.00  0.00     0.048 H 
ATOM      9  H   LPX d   1     -37.295   3.588  -9.432  0.00  0.00     0.048 H 
BRANCH   7  10
ATOM     10  C6  LPX d   1     -35.691   3.931 -10.800  0.00  0.00     0.258 C 
ATOM     11  O7  LPX d   1     -35.421   4.807 -11.601  0.00  0.00    -0.265 OA
BRANCH  10  12
ATOM     12  O6  LPX d   1     -35.277   2.585 -11.126  0.00  0.00    -0.319 OA
BRANCH  12  13
ATOM     13  C5  LPX d   1     -36.140   1.517 -10.789  0.00  0.00     0.054 C 
ATOM     14  H   LPX d   1     -37.130   1.707 -11.203  0.00  0.00     0.079 H 
ATOM     15  H   LPX d   1     -36.207   1.434  -9.704  0.00  0.00     0.079 H 
BRANCH  13  16
ATOM     16  C4  LPX d   1     -35.593   0.220 -11.362  0.00  0.00     0.077 C 
ATOM     17  H   LPX d   1     -35.682  -0.535 -10.581  0.00  0.00     0.089 H 
BRANCH  16  18
ATOM     18  O5  LPX d   1     -34.239   0.419 -11.765  0.00  0.00    -0.391 OA
ATOM     19  H   LPX d   1     -33.891  -0.399 -12.127  0.00  0.00     0.210 HD
ENDBRANCH  16  18
BRANCH  16  20
ATOM     20  C3  LPX d   1     -36.360  -0.243 -12.577  0.00  0.00     0.057 C 
ATOM     21  H   LPX d   1     -37.151   0.469 -12.813  0.00  0.00     0.079 H 
ATOM     22  H   LPX d   1     -36.818  -1.213 -12.382  0.00  0.00     0.079 H 
BRANCH  20  23
ATOM     23  O1  LPX d   1     -35.460  -0.342 -13.660  0.00  0.00    -0.287 OA
BRANCH  23  24
ATOM     24  P1  LPX d   1     -35.816   0.104 -15.168  0.00  0.00     0.408 P 
ATOM     25  O3  LPX d   1     -35.609  -1.051 -16.159  0.00  0.00    -0.624 OA
ATOM     26  O4  LPX d   1     -37.162   0.807 -15.129  0.00  0.00    -0.624 OA
BRANCH  24  27
ATOM     27  O2  LPX d   1     -34.681   1.214 -15.469  0.00  0.00    -0.288 OA
BRANCH  27  28
ATOM     28  C1  LPX d   1     -34.980   2.303 -16.339  0.00  0.00     0.054 C 
ATOM     29  H   LPX d   1     -35.456   3.106 -15.776  0.00  0.00     0.077 H 
ATOM     30  H   LPX d   1     -35.661   1.972 -17.124  0.00  0.00     0.077 H 
BRANCH  28  31
ATOM     31  C2  LPX d   1     -33.688   2.805 -16.957  0.00  0.00     0.100 C 
ATOM     32  H   LPX d   1     -32.957   3.000 -16.173  0.00  0.00     0.078 H 
ATOM     33  H   LPX d   1     -33.877   3.729 -17.504  0.00  0.00     0.078 H 
BRANCH  31  34
ATOM     34  N1  LPX d   1     -33.175   1.795 -17.864  0.00  0.00    -0.077 N 
ATOM     35  H   LPX d   1     -32.306   2.126 -18.283  0.00  0.00     0.274 HD
ATOM     36  H   LPX d   1     -32.998   0.934 -17.347  0.00  0.00     0.274 HD
ATOM     37  H   LPX d   1     -33.862   1.618 -18.597  0.00  0.00     0.274 HD
ENDBRANCH  31  34
ENDBRANCH  28  31
ENDBRANCH  27  28
ENDBRANCH  24  27
ENDBRANCH  23  24
ENDBRANCH  20  23
ENDBRANCH  16  20
ENDBRANCH  13  16
ENDBRANCH  12  13
ENDBRANCH  10  12
ENDBRANCH   7  10
ENDBRANCH   4   7
ENDBRANCH   1   4
BRANCH   1  38
ATOM     38  C10 LPX d   1     -34.584   6.318  -8.804  0.00  0.00    -0.065 C 
ATOM     39  H   LPX d   1     -33.957   6.825  -9.537  0.00  0.00     0.033 H 
ATOM     40  H   LPX d   1     -34.527   5.239  -8.945  0.00  0.00     0.033 H 
BRANCH  38  41
ATOM     41  C11 LPX d   1     -34.104   6.661  -7.424  0.00  0.00    -0.065 C 
ATOM     42  H   LPX d   1     -33.580   5.804  -7.001  0.00  0.00     0.033 H 
ATOM     43  H   LPX d   1     -34.959   6.917  -6.798  0.00  0.00     0.033 H 
BRANCH  41  44
ATOM     44  C12 LPX d   1     -33.163   7.838  -7.488  0.00  0.00    -0.065 C 
ATOM     45  H   LPX d   1     -33.601   8.687  -6.963  0.00  0.00     0.033 H 
ATOM     46  H   LPX d   1     -32.990   8.114  -8.528  0.00  0.00     0.033 H 
BRANCH  44  47
ATOM     47  C13 LPX d   1     -31.853   7.457  -6.837  0.00  0.00    -0.065 C 
ATOM     48  H   LPX d   1     -31.935   6.410  -6.546  0.00  0.00     0.033 H 
ATOM     49  H   LPX d   1     -31.697   8.148  -6.008  0.00  0.00     0.033 H 
BRANCH  47  50
ATOM     50  C14 LPX d   1     -30.641   7.571  -7.741  0.00  0.00    -0.065 C 
ATOM     51  H   LPX d   1     -29.835   8.075  -7.207  0.00  0.00     0.033 H 
ATOM     52  H   LPX d   1     -30.903   8.146  -8.629  0.00  0.00     0.033 H 
BRANCH  50  53
ATOM     53  C15 LPX d   1     -30.182   6.172  -8.155  0.00  0.00    -0.065 C 
ATOM     54  H   LPX d   1     -30.908   5.786  -8.871  0.00  0.00     0.033 H 
ATOM     55  H   LPX d   1     -30.106   5.570  -7.250  0.00  0.00     0.033 H 
BRANCH  53  56
ATOM     56  C16 LPX d   1     -28.807   6.159  -8.837  0.00  0.00    -0.065 C 
ATOM     57  H   LPX d   1     -28.105   5.941  -8.032  0.00  0.00     0.033 H 
ATOM     58  H   LPX d   1     -28.753   7.113  -9.362  0.00  0.00     0.033 H 
BRANCH  56  59
ATOM     59  C17 LPX d   1     -28.501   5.127  -9.896  0.00  0.00    -0.065 C 
ATOM     60  H   LPX d   1     -27.812   4.397  -9.472  0.00  0.00     0.033 H 
ATOM     61  H   LPX d   1     -28.073   5.639 -10.758  0.00  0.00     0.033 H 
BRANCH  59  62
ATOM     62  C18 LPX d   1     -29.753   4.390 -10.353  0.00  0.00    -0.065 C 
ATOM     63  H   LPX d   1     -29.988   4.686 -11.375  0.00  0.00     0.033 H 
ATOM     64  H   LPX d   1     -30.579   4.643  -9.688  0.00  0.00     0.033 H 
BRANCH  62  65
ATOM     65  C19 LPX d   1     -29.522   2.881 -10.311  0.00  0.00    -0.065 C 
ATOM     66  H   LPX d   1     -28.744   2.674  -9.577  0.00  0.00     0.033 H 
ATOM     67  H   LPX d   1     -29.236   2.551 -11.310  0.00  0.00     0.033 H 
BRANCH  65  68
ATOM     68  C20 LPX d   1     -30.776   2.128  -9.901  0.00  0.00    -0.069 C 
ATOM     69  H   LPX d   1     -30.470   1.367  -9.183  0.00  0.00     0.032 H 
ATOM     70  H   LPX d   1     -31.224   1.736 -10.814  0.00  0.00     0.032 H 
BRANCH  68  71
ATOM     71  C21 LPX d   1     -31.839   2.986  -9.215  0.00  0.00    -0.077 C 
ATOM     72  H   LPX d   1     -31.422   3.423  -8.308  0.00  0.00     0.027 H 
ATOM     73  H   LPX d   1     -32.154   3.781  -9.891  0.00  0.00     0.027 H 
ATOM     74  H   LPX d   1     -32.697   2.364  -8.959  0.00  0.00     0.027 H 
ENDBRANCH  68  71
ENDBRANCH  65  68
ENDBRANCH  62  65
ENDBRANCH  59  62
ENDBRANCH  56  59
ENDBRANCH  53  56
ENDBRANCH  50  53
ENDBRANCH  47  50
ENDBRANCH  44  47
ENDBRANCH  41  44
ENDBRANCH  38  41
ENDBRANCH   1  38
TORSDOF 26
