REMARK  1 active torsions:
REMARK  status: ('A' for Active; 'I' for Inactive)
REMARK    1  A    between atoms: N1V_11  and  C1A_12 
ROOT
ATOM      1  C1K MB9 d   1     -15.253  33.874  -0.924  0.00  0.00    -0.018 C 
ATOM      2  C1I MB9 d   1     -14.200  33.623  -2.004  0.00  0.00     0.084 C 
ATOM      3  N1M MB9 d   1     -13.423  34.848  -2.374  0.00  0.00    -0.075 N 
ATOM      4  C1J MB9 d   1     -14.259  36.025  -2.653  0.00  0.00     0.084 C 
ATOM      5  C1L MB9 d   1     -15.208  36.314  -1.496  0.00  0.00    -0.018 C 
ATOM      6  C1W MB9 d   1     -16.093  35.095  -1.161  0.00  0.00     0.056 C 
ATOM      7  N1N MB9 d   1     -16.892  34.857  -2.386  0.00  0.00    -0.345 N 
ATOM      8  C1O MB9 d   1     -17.955  35.686  -2.686  0.00  0.00     0.269 C 
ATOM      9  O1C MB9 d   1     -18.544  35.466  -3.741  0.00  0.00    -0.266 OA
ATOM     10  C1Q MB9 d   1     -18.506  36.504  -1.705  0.00  0.00     0.111 A 
ATOM     11  N1V MB9 d   1     -19.487  37.411  -1.726  0.00  0.00    -0.346 N 
ATOM     12  C1T MB9 d   1     -19.715  37.917  -0.511  0.00  0.00     0.047 A 
ATOM     13  C1H MB9 d   1     -20.591  38.905  -0.052  0.00  0.00    -0.035 A 
ATOM     14  C1P MB9 d   1     -20.593  39.202   1.307  0.00  0.00     0.036 A 
ATOM     15 CL1D MB9 d   1     -21.702  40.405   1.877  0.00  0.00    -0.084 Cl
ATOM     16  C1F MB9 d   1     -19.736  38.558   2.207  0.00  0.00    -0.061 A 
ATOM     17  C1G MB9 d   1     -18.834  37.614   1.736  0.00  0.00    -0.069 A 
ATOM     18  C1S MB9 d   1     -18.826  37.298   0.382  0.00  0.00     0.001 A 
ATOM     19  C1R MB9 d   1     -18.060  36.402  -0.370  0.00  0.00     0.007 A 
ATOM     20  C1U MB9 d   1     -16.952  35.429   0.047  0.00  0.00     0.083 C 
ATOM     21  C1E MB9 d   1     -17.561  34.221   0.631  0.00  0.00     0.071 C 
ATOM     22  N1B MB9 d   1     -18.056  33.289   1.038  0.00  0.00    -0.196 NA
ATOM     23  H   MB9 d   1     -14.722  34.025   0.016  0.00  0.00     0.039 H 
ATOM     24  H   MB9 d   1     -15.925  33.015  -0.922  0.00  0.00     0.039 H 
ATOM     25  H   MB9 d   1     -14.722  33.283  -2.898  0.00  0.00     0.075 H 
ATOM     26  H   MB9 d   1     -13.493  32.893  -1.610  0.00  0.00     0.075 H 
ATOM     27  H   MB9 d   1     -12.908  34.633  -3.228  0.00  0.00     0.277 HD
ATOM     28  H   MB9 d   1     -12.829  35.081  -1.579  0.00  0.00     0.277 HD
ATOM     29  H   MB9 d   1     -14.851  35.828  -3.547  0.00  0.00     0.075 H 
ATOM     30  H   MB9 d   1     -13.608  36.888  -2.793  0.00  0.00     0.075 H 
ATOM     31  H   MB9 d   1     -15.858  37.140  -1.785  0.00  0.00     0.039 H 
ATOM     32  H   MB9 d   1     -14.611  36.556  -0.616  0.00  0.00     0.039 H 
ATOM     33  H   MB9 d   1     -16.657  34.082  -3.007  0.00  0.00     0.163 HD
ATOM     34  H   MB9 d   1     -21.255  39.428  -0.740  0.00  0.00     0.089 H 
ATOM     35  H   MB9 d   1     -19.777  38.796   3.270  0.00  0.00     0.086 H 
ATOM     36  H   MB9 d   1     -18.140  37.126   2.420  0.00  0.00     0.085 H 
ATOM     37  H   MB9 d   1     -16.310  35.884   0.801  0.00  0.00     0.074 H 
ENDROOT
BRANCH  11  38
ATOM     38  C1A MB9 d   1     -20.197  37.845  -2.946  0.00  0.00    -0.013 C 
ATOM     39  H   MB9 d   1     -19.483  38.279  -3.646  0.00  0.00     0.057 H 
ATOM     40  H   MB9 d   1     -20.683  36.985  -3.407  0.00  0.00     0.057 H 
ATOM     41  H   MB9 d   1     -20.947  38.590  -2.682  0.00  0.00     0.057 H 
ENDBRANCH  11  38
TORSDOF 1
