REMARK  26 active torsions:
REMARK  status: ('A' for Active; 'I' for Inactive)
REMARK    1  A    between atoms: S1_77  and  N1_1 
REMARK    2  A    between atoms: C05_8  and  O02_56 
REMARK    3  A    between atoms: C12_15  and  O05_59 
REMARK    4  A    between atoms: O08_62  and  C19_22 
REMARK    5  A    between atoms: C25_28  and  O09_63 
REMARK    6  A    between atoms: C32_35  and  O03_57 
REMARK    7  A    between atoms: C39_42  and  O06_60 
REMARK    8  A    between atoms: O03_57  and  C51_48 
REMARK    9  A    between atoms: O09_63  and  C56_50 
REMARK   10  A    between atoms: O02_56  and  C58_52 
REMARK   11  A    between atoms: C58_52  and  C71_79 
REMARK   12  A    between atoms: O06_60  and  C59_53 
REMARK   13  A    between atoms: O05_59  and  CT5_82 
REMARK   14  A    between atoms: CT3_101  and  O08_62 
REMARK   15  A    between atoms: C61_67  and  S1_77 
REMARK   16  A    between atoms: C68_73  and  C65_70 
REMARK   17  A    between atoms: C69_74  and  C68_73 
REMARK   18  A    between atoms: N4_81  and  C69_74 
REMARK   19  A    between atoms: CT5_82  and  CN5_83 
REMARK   20  A    between atoms: NN9_87  and  CI5_88 
REMARK   21  A    between atoms: CI5_88  and  CI6_89 
REMARK   22  A    between atoms: CI6_89  and  CO5_90 
REMARK   23  A    between atoms: CI4_97  and  CO3_93 
REMARK   24  A    between atoms: CI3_96  and  CI4_97 
REMARK   25  A    between atoms: NN6_100  and  CI3_96 
REMARK   26  A    between atoms: CT3_101  and  CN3_102 
ROOT
ATOM      1  C01 0CR d   1      21.688  -2.941  34.981  0.00  0.00    -0.016 C 
ATOM      2  C02 0CR d   1      21.591  -2.378  33.587  0.00  0.00    -0.044 A 
ATOM      3  C03 0CR d   1      21.023  -3.260  32.633  0.00  0.00    -0.041 A 
ATOM      4  C04 0CR d   1      20.848  -2.934  31.247  0.00  0.00     0.108 A 
ATOM      5  C05 0CR d   1      21.274  -1.629  30.820  0.00  0.00     0.103 A 
ATOM      6  C06 0CR d   1      21.840  -0.752  31.796  0.00  0.00    -0.041 A 
ATOM      7  C07 0CR d   1      22.013  -1.087  33.169  0.00  0.00    -0.044 A 
ATOM      8  C08 0CR d   1      22.648   0.007  34.018  0.00  0.00    -0.016 C 
ATOM      9  C09 0CR d   1      24.129   0.167  34.228  0.00  0.00    -0.044 A 
ATOM     10  C10 0CR d   1      24.777   1.138  33.410  0.00  0.00    -0.041 A 
ATOM     11  C11 0CR d   1      26.177   1.426  33.467  0.00  0.00     0.102 A 
ATOM     12  C12 0CR d   1      26.957   0.668  34.427  0.00  0.00     0.103 A 
ATOM     13  C13 0CR d   1      26.294  -0.301  35.240  0.00  0.00    -0.041 A 
ATOM     14  C14 0CR d   1      24.899  -0.586  35.181  0.00  0.00    -0.044 A 
ATOM     15  C15 0CR d   1      24.427  -1.674  36.167  0.00  0.00    -0.016 C 
ATOM     16  C16 0CR d   1      24.185  -3.141  35.762  0.00  0.00    -0.044 A 
ATOM     17  C17 0CR d   1      25.306  -3.999  35.937  0.00  0.00    -0.041 A 
ATOM     18  C18 0CR d   1      25.290  -5.397  35.623  0.00  0.00     0.108 A 
ATOM     19  C19 0CR d   1      24.082  -5.980  35.105  0.00  0.00     0.103 A 
ATOM     20  C20 0CR d   1      22.968  -5.111  34.931  0.00  0.00    -0.041 A 
ATOM     21  C21 0CR d   1      22.978  -3.710  35.240  0.00  0.00    -0.044 A 
ATOM     22  C22 0CR d   1      28.992  -3.678  28.056  0.00  0.00    -0.016 C 
ATOM     23  C23 0CR d   1      28.911  -4.517  29.336  0.00  0.00    -0.044 A 
ATOM     24  C24 0CR d   1      29.360  -3.816  30.485  0.00  0.00    -0.041 A 
ATOM     25  C25 0CR d   1      29.379  -4.356  31.788  0.00  0.00     0.102 A 
ATOM     26  C26 0CR d   1      28.915  -5.708  31.965  0.00  0.00     0.108 A 
ATOM     27  C27 0CR d   1      28.467  -6.416  30.803  0.00  0.00    -0.041 A 
ATOM     28  C28 0CR d   1      28.444  -5.868  29.469  0.00  0.00    -0.044 A 
ATOM     29  C29 0CR d   1      27.923  -6.766  28.319  0.00  0.00    -0.016 C 
ATOM     30  C30 0CR d   1      26.386  -6.580  28.319  0.00  0.00    -0.044 A 
ATOM     31  C31 0CR d   1      25.706  -7.515  29.161  0.00  0.00    -0.041 A 
ATOM     32  C32 0CR d   1      24.304  -7.541  29.328  0.00  0.00     0.102 A 
ATOM     33  C33 0CR d   1      23.527  -6.568  28.610  0.00  0.00     0.108 A 
ATOM     34  C34 0CR d   1      24.195  -5.632  27.760  0.00  0.00    -0.041 A 
ATOM     35  C35 0CR d   1      25.619  -5.599  27.581  0.00  0.00    -0.044 A 
ATOM     36  C36 0CR d   1      26.163  -4.520  26.615  0.00  0.00    -0.016 C 
ATOM     37  C37 0CR d   1      26.479  -3.156  27.232  0.00  0.00    -0.044 A 
ATOM     38  C38 0CR d   1      25.437  -2.167  27.155  0.00  0.00    -0.041 A 
ATOM     39  C39 0CR d   1      25.577  -0.845  27.681  0.00  0.00     0.102 A 
ATOM     40  C40 0CR d   1      26.814  -0.501  28.314  0.00  0.00     0.102 A 
ATOM     41  C41 0CR d   1      27.842  -1.479  28.383  0.00  0.00    -0.041 A 
ATOM     42  C42 0CR d   1      27.726  -2.805  27.862  0.00  0.00    -0.044 A 
ATOM     43  C46 0CR d   1      21.533  -6.336  30.003  0.00  0.00     0.041 C 
ATOM     44  C47 0CR d   1      20.772  -5.289  30.681  0.00  0.00     0.041 C 
ATOM     45  C52 0CR d   1      26.833   0.989  30.251  0.00  0.00     0.046 C 
ATOM     46  C57 0CR d   1      27.393  -6.699  35.018  0.00  0.00     0.041 C 
ATOM     47  C60 0CR d   1      26.892   2.322  31.116  0.00  0.00     0.046 C 
ATOM     48  O01 0CR d   1      20.228  -3.989  30.329  0.00  0.00    -0.318 OA
ATOM     49  O04 0CR d   1      26.817   2.466  32.580  0.00  0.00    -0.346 OA
ATOM     50  O07 0CR d   1      26.619  -6.011  35.909  0.00  0.00    -0.318 OA
ATOM     51  O10 0CR d   1      28.926  -6.266  33.350  0.00  0.00    -0.318 OA
ATOM     52  O11 0CR d   1      22.073  -6.610  28.804  0.00  0.00    -0.318 OA
ATOM     53  O12 0CR d   1      26.901   0.773  28.807  0.00  0.00    -0.346 OA
ATOM     54  C70 0CR d   1      27.765  -5.779  34.091  0.00  0.00     0.041 C 
ATOM     55  H3  0CR d   1      20.839  -3.622  35.141  0.00  0.00     0.047 H 
ATOM     56  H4  0CR d   1      21.630  -2.108  35.697  0.00  0.00     0.047 H 
ATOM     57  H5  0CR d   1      20.702  -4.239  32.971  0.00  0.00     0.088 H 
ATOM     58  H6  0CR d   1      22.158   0.232  31.470  0.00  0.00     0.088 H 
ATOM     59  H7  0CR d   1      22.217  -0.110  35.023  0.00  0.00     0.047 H 
ATOM     60  H8  0CR d   1      22.306   0.957  33.581  0.00  0.00     0.047 H 
ATOM     61  H9  0CR d   1      24.172   1.692  32.702  0.00  0.00     0.088 H 
ATOM     62  H10 0CR d   1      26.893  -0.858  35.951  0.00  0.00     0.088 H 
ATOM     63  H11 0CR d   1      23.472  -1.314  36.578  0.00  0.00     0.047 H 
ATOM     64  H12 0CR d   1      25.182  -1.703  36.966  0.00  0.00     0.047 H 
ATOM     65  H13 0CR d   1      26.222  -3.572  36.329  0.00  0.00     0.088 H 
ATOM     66  H14 0CR d   1      22.051  -5.536  34.539  0.00  0.00     0.088 H 
ATOM     67  H15 0CR d   1      29.095  -4.353  27.193  0.00  0.00     0.047 H 
ATOM     68  H16 0CR d   1      29.872  -3.021  28.115  0.00  0.00     0.047 H 
ATOM     69  H17 0CR d   1      29.711  -2.799  30.353  0.00  0.00     0.088 H 
ATOM     70  H18 0CR d   1      28.121  -7.435  30.936  0.00  0.00     0.088 H 
ATOM     71  H19 0CR d   1      28.184  -7.819  28.504  0.00  0.00     0.047 H 
ATOM     72  H20 0CR d   1      28.350  -6.446  27.357  0.00  0.00     0.047 H 
ATOM     73  H21 0CR d   1      26.300  -8.244  29.701  0.00  0.00     0.088 H 
ATOM     74  H22 0CR d   1      23.594  -4.908  27.222  0.00  0.00     0.088 H 
ATOM     75  H23 0CR d   1      25.411  -4.365  25.827  0.00  0.00     0.047 H 
ATOM     76  H24 0CR d   1      27.090  -4.908  26.167  0.00  0.00     0.047 H 
ATOM     77  H25 0CR d   1      24.503  -2.437  26.676  0.00  0.00     0.088 H 
ATOM     78  H26 0CR d   1      28.774  -1.202  28.861  0.00  0.00     0.088 H 
ATOM     79  H27 0CR d   1      21.724  -7.159  30.691  0.00  0.00     0.126 H 
ATOM     80  H28 0CR d   1      20.558  -5.551  31.716  0.00  0.00     0.126 H 
ATOM     81  H32 0CR d   1      25.875   0.532  30.540  0.00  0.00     0.078 H 
ATOM     82  H33 0CR d   1      27.662   0.384  30.646  0.00  0.00     0.078 H 
ATOM     83  H37 0CR d   1      27.655  -7.756  35.045  0.00  0.00     0.126 H 
ATOM     84  H43 0CR d   1      26.063   2.936  30.735  0.00  0.00     0.078 H 
ATOM     85  H44 0CR d   1      27.850   2.788  30.841  0.00  0.00     0.078 H 
ATOM     86  H53 0CR d   1      27.272  -4.822  33.925  0.00  0.00     0.126 H 
ENDROOT
BRANCH   5  87
ATOM     87  O02 0CR d   1      21.091  -1.294  29.344  0.00  0.00    -0.342 OA
BRANCH  87  88
ATOM     88  C58 0CR d   1      19.788  -1.279  28.739  0.00  0.00     0.068 C 
ATOM     89  H38 0CR d   1      19.577  -0.260  28.383  0.00  0.00     0.085 H 
ATOM     90  H39 0CR d   1      19.044  -1.564  29.498  0.00  0.00     0.085 H 
BRANCH  88  91
ATOM     91  C71 0CR d   1      19.683  -2.179  27.636  0.00  0.00     0.093 A 
ATOM     92  N2  0CR d   1      20.654  -3.026  27.110  0.00  0.00    -0.161 NA
ATOM     93  N3  0CR d   1      20.128  -3.697  26.079  0.00  0.00     0.004 NA
ATOM     94  N4  0CR d   1      18.832  -3.278  25.952  0.00  0.00    -0.283 N 
ATOM     95  C72 0CR d   1      18.559  -2.379  26.869  0.00  0.00     0.022 A 
ATOM     96  H54 0CR d   1      17.602  -1.876  27.000  0.00  0.00     0.116 H 
BRANCH  94  97
ATOM     97  C69 0CR d   1      17.919  -3.796  24.918  0.00  0.00     0.017 C 
ATOM     98  H51 0CR d   1      18.379  -3.585  23.941  0.00  0.00     0.067 H 
ATOM     99  H52 0CR d   1      17.846  -4.884  25.062  0.00  0.00     0.067 H 
BRANCH  97 100
ATOM    100  C68 0CR d   1      16.460  -3.235  24.875  0.00  0.00    -0.025 C 
ATOM    101  H49 0CR d   1      16.233  -2.904  25.899  0.00  0.00     0.042 H 
ATOM    102  H50 0CR d   1      16.491  -2.362  24.206  0.00  0.00     0.042 H 
BRANCH 100 103
ATOM    103  C65 0CR d   1      15.273  -4.058  24.431  0.00  0.00    -0.057 A 
ATOM    104  C64 0CR d   1      15.416  -5.422  24.021  0.00  0.00    -0.075 A 
ATOM    105  C62 0CR d   1      14.292  -6.199  23.597  0.00  0.00    -0.060 A 
ATOM    106  H46 0CR d   1      16.400  -5.877  24.032  0.00  0.00     0.084 H 
ATOM    107  C61 0CR d   1      12.999  -5.590  23.584  0.00  0.00     0.079 A 
ATOM    108  H45 0CR d   1      14.419  -7.231  23.291  0.00  0.00     0.085 H 
ATOM    109  C67 0CR d   1      12.869  -4.233  23.994  0.00  0.00    -0.060 A 
ATOM    110  C66 0CR d   1      13.984  -3.459  24.418  0.00  0.00    -0.075 A 
ATOM    111  H48 0CR d   1      11.887  -3.774  23.983  0.00  0.00     0.085 H 
ATOM    112  H47 0CR d   1      13.853  -2.428  24.727  0.00  0.00     0.084 H 
BRANCH 107 113
ATOM    113  S1  0CR d   1      11.676  -6.600  23.047  0.00  0.00     0.256 S 
ATOM    114  O13 0CR d   1      11.498  -7.722  24.025  0.00  0.00    -0.201 OA
ATOM    115  O14 0CR d   1      10.375  -5.811  23.073  0.00  0.00    -0.201 OA
BRANCH 113 116
ATOM    116  N1  0CR d   1      12.218  -7.226  21.621  0.00  0.00    -0.324 N 
ATOM    117  H1  0CR d   1      11.639  -7.851  21.097  0.00  0.00     0.169 HD
ATOM    118  H2  0CR d   1      13.126  -6.981  21.280  0.00  0.00     0.169 HD
ENDBRANCH 113 116
ENDBRANCH 107 113
ENDBRANCH 100 103
ENDBRANCH  97 100
ENDBRANCH  94  97
ENDBRANCH  88  91
ENDBRANCH  87  88
ENDBRANCH   5  87
BRANCH  19 119
ATOM    119  O08 0CR d   1      23.752  -7.407  34.686  0.00  0.00    -0.342 OA
BRANCH 119 120
ATOM    120  CT3 0CR d   1      24.442  -8.517  35.244  0.00  0.00     0.069 C 
ATOM    121  H66 0CR d   1      25.415  -8.456  34.734  0.00  0.00     0.085 H 
ATOM    122  H67 0CR d   1      23.869  -9.364  34.839  0.00  0.00     0.085 H 
BRANCH 120 123
ATOM    123  CN3 0CR d   1      24.793  -8.976  36.444  0.00  0.00     0.099 A 
ATOM    124  NN4 0CR d   1      24.748  -8.752  37.804  0.00  0.00    -0.133 NA
ATOM    125  NN5 0CR d   1      25.357  -9.695  38.426  0.00  0.00    -0.066 NA
ATOM    126  NN6 0CR d   1      25.852 -10.608  37.592  0.00  0.00    -0.260 N 
ATOM    127  CN4 0CR d   1      25.508 -10.181  36.324  0.00  0.00     0.028 A 
ATOM    128  H68 0CR d   1      25.749 -10.690  35.392  0.00  0.00     0.117 H 
BRANCH 126 129
ATOM    129  CI3 0CR d   1      26.557 -11.743  37.874  0.00  0.00     0.027 C 
ATOM    130  H62 0CR d   1      26.006 -12.339  38.616  0.00  0.00     0.068 H 
ATOM    131  H63 0CR d   1      26.685 -12.331  36.953  0.00  0.00     0.068 H 
BRANCH 129 132
ATOM    132  CI4 0CR d   1      27.728 -11.433  38.354  0.00  0.00     0.032 C 
ATOM    133  H64 0CR d   1      28.503 -11.620  37.596  0.00  0.00     0.051 H 
ATOM    134  H65 0CR d   1      27.744 -10.371  38.641  0.00  0.00     0.051 H 
BRANCH 132 135
ATOM    135  CO3 0CR d   1      27.985 -12.310  39.589  0.00  0.00     0.174 C 
ATOM    136  O31 0CR d   1      27.444 -12.012  40.702  0.00  0.00    -0.648 OA
ATOM    137  O32 0CR d   1      28.761 -13.361  39.517  0.00  0.00    -0.648 OA
ENDBRANCH 132 135
ENDBRANCH 129 132
ENDBRANCH 126 129
ENDBRANCH 120 123
ENDBRANCH 119 120
ENDBRANCH  19 119
BRANCH  32 138
ATOM    138  O03 0CR d   1      23.560  -8.471  30.173  0.00  0.00    -0.353 OA
BRANCH 138 139
ATOM    139  C51 0CR d   1      23.931  -9.029  31.479  0.00  0.00     0.010 C 
ATOM    140  H29 0CR d   1      23.133  -9.699  31.831  0.00  0.00     0.066 H 
ATOM    141  H30 0CR d   1      24.069  -8.211  32.202  0.00  0.00     0.066 H 
ATOM    142  H31 0CR d   1      24.869  -9.595  31.383  0.00  0.00     0.066 H 
ENDBRANCH 138 139
ENDBRANCH  32 138
BRANCH  12 143
ATOM    143  O05 0CR d   1      28.451   0.771  34.694  0.00  0.00    -0.342 OA
BRANCH 143 144
ATOM    144  CT5 0CR d   1      29.284   1.592  34.074  0.00  0.00     0.068 C 
ATOM    145  H55 0CR d   1      29.804   2.120  34.887  0.00  0.00     0.085 H 
ATOM    146  H56 0CR d   1      28.629   2.296  33.540  0.00  0.00     0.085 H 
BRANCH 144 147
ATOM    147  CN5 0CR d   1      30.211   1.313  33.229  0.00  0.00     0.093 A 
ATOM    148  CN6 0CR d   1      30.478   2.038  32.068  0.00  0.00     0.022 A 
ATOM    149  NN9 0CR d   1      31.519   1.420  31.463  0.00  0.00    -0.283 N 
ATOM    150  H57 0CR d   1      29.953   2.925  31.718  0.00  0.00     0.116 H 
ATOM    151  NN8 0CR d   1      31.941   0.308  32.201  0.00  0.00     0.004 NA
ATOM    152  NN7 0CR d   1      31.128   0.272  33.264  0.00  0.00    -0.161 NA
BRANCH 149 153
ATOM    153  CI5 0CR d   1      32.141   1.823  30.217  0.00  0.00     0.022 C 
ATOM    154  H58 0CR d   1      33.197   2.043  30.435  0.00  0.00     0.067 H 
ATOM    155  H59 0CR d   1      31.637   2.742  29.883  0.00  0.00     0.067 H 
BRANCH 153 156
ATOM    156  CI6 0CR d   1      32.114   0.794  28.991  0.00  0.00     0.032 C 
ATOM    157  H60 0CR d   1      31.846   1.361  28.087  0.00  0.00     0.051 H 
ATOM    158  H61 0CR d   1      31.333   0.048  29.201  0.00  0.00     0.051 H 
BRANCH 156 159
ATOM    159  CO5 0CR d   1      33.385   0.050  28.699  0.00  0.00     0.174 C 
ATOM    160  O51 0CR d   1      34.264  -0.780  29.282  0.00  0.00    -0.648 OA
ATOM    161  O52 0CR d   1      33.894   0.194  27.483  0.00  0.00    -0.648 OA
ENDBRANCH 156 159
ENDBRANCH 153 156
ENDBRANCH 149 153
ENDBRANCH 144 147
ENDBRANCH 143 144
ENDBRANCH  12 143
BRANCH  39 162
ATOM    162  O06 0CR d   1      24.519   0.206  27.609  0.00  0.00    -0.353 OA
BRANCH 162 163
ATOM    163  C59 0CR d   1      23.598   0.430  28.790  0.00  0.00     0.010 C 
ATOM    164  H40 0CR d   1      22.890   1.238  28.554  0.00  0.00     0.066 H 
ATOM    165  H41 0CR d   1      24.194   0.710  29.672  0.00  0.00     0.066 H 
ATOM    166  H42 0CR d   1      23.042  -0.495  29.002  0.00  0.00     0.066 H 
ENDBRANCH 162 163
ENDBRANCH  39 162
BRANCH  25 167
ATOM    167  O09 0CR d   1      29.824  -3.649  32.948  0.00  0.00    -0.353 OA
BRANCH 167 168
ATOM    168  C56 0CR d   1      29.105  -2.408  33.383  0.00  0.00     0.010 C 
ATOM    169  H34 0CR d   1      29.585  -2.004  34.287  0.00  0.00     0.066 H 
ATOM    170  H35 0CR d   1      28.055  -2.651  33.603  0.00  0.00     0.066 H 
ATOM    171  H36 0CR d   1      29.148  -1.659  32.579  0.00  0.00     0.066 H 
ENDBRANCH 167 168
ENDBRANCH  25 167
TORSDOF 26
