REMARK WARNING: 32 MAX_TORS EXCEEDED!!!
REMARK  39 active torsions:
REMARK  status: ('A' for Active; 'I' for Inactive)
REMARK    1  A    between atoms: N_1  and  CA_2 
REMARK    2  A    between atoms: CA_2  and  C_3 
REMARK    3  A    between atoms: CA_2  and  CB_5 
REMARK       I    between atoms: C_3  and  N_12 
REMARK    4  A    between atoms: CB_5  and  CG_6 
REMARK    5  A    between atoms: CG_6  and  CD_7 
REMARK    6  A    between atoms: CD_7  and  NE_8 
REMARK       I    between atoms: NE_8  and  CZ_9 
REMARK       I    between atoms: CZ_9  and  NH1_10 
REMARK       I    between atoms: CZ_9  and  NH2_11 
REMARK    7  A    between atoms: CA_13  and  C_14 
REMARK       I    between atoms: C_14  and  N_19 
REMARK    8  A    between atoms: N_19  and  CA_20 
REMARK    9  A    between atoms: CA_20  and  C_21 
REMARK   10  A    between atoms: CA_20  and  CB_23 
REMARK       I    between atoms: C_21  and  N_30 
REMARK   11  A    between atoms: CB_23  and  CG_24 
REMARK   12  A    between atoms: CG_24  and  CD_25 
REMARK   13  A    between atoms: CD_25  and  NE_26 
REMARK       I    between atoms: NE_26  and  CZ_27 
REMARK       I    between atoms: CZ_27  and  NH1_28 
REMARK   14  A    between atoms: CA_31  and  C_32 
REMARK       I    between atoms: C_32  and  N_37 
REMARK   15  A    between atoms: N_37  and  CA_38 
REMARK   16  A    between atoms: CA_38  and  C_39 
REMARK   17  A    between atoms: CA_38  and  CB_41 
REMARK       I    between atoms: C_39  and  N_45 
REMARK   18  A    between atoms: CB_41  and  CG_42 
REMARK   19  A    between atoms: N_45  and  CA_46 
REMARK   20  A    between atoms: CA_46  and  C_47 
REMARK   21  A    between atoms: CA_46  and  CB_49 
REMARK       I    between atoms: C_47  and  N_53 
REMARK   22  A    between atoms: CB_49  and  CG_50 
REMARK   23  A    between atoms: N_53  and  CA_54 
REMARK   24  A    between atoms: CA_54  and  C_55 
REMARK   25  A    between atoms: CA_54  and  CB_57 
REMARK       I    between atoms: C_55  and  N_61 
REMARK   26  A    between atoms: CB_57  and  CG_58 
REMARK   27  A    between atoms: CG_58  and  CD1_59 
REMARK   28  A    between atoms: CG_58  and  CD2_60 
REMARK   29  A    between atoms: N_61  and  CA_62 
REMARK   30  A    between atoms: CA_62  and  C_63 
REMARK   31  A    between atoms: CA_62  and  CB_65 
REMARK       I    between atoms: C_63  and  N_70 
REMARK   32  A    between atoms: CB_65  and  CG_66 
REMARK   33  A    between atoms: CG_66  and  CD_67 
REMARK   34  A    between atoms: N_70  and  CA_71 
REMARK   35  A    between atoms: CA_71  and  C_72 
REMARK   36  A    between atoms: CA_71  and  CB_74 
REMARK   37  A    between atoms: CB_74  and  CG1_75 
REMARK   38  A    between atoms: CB_74  and  CG2_76 
REMARK   39  A    between atoms: CG1_75  and  CD1_77 
ROOT
ATOM      1  C   PRO d   1       6.401  -2.815  27.493  0.00  0.00     0.241 C 
ATOM      2  O   PRO d   1       7.454  -2.931  26.872  0.00  0.00    -0.271 OA
ATOM      3  N   ASP d   1       5.417  -3.716  27.445  0.00  0.00    -0.346 N 
ATOM      4  H43 ASP d   1       4.572  -3.531  27.946  0.00  0.00     0.163 HD
ENDROOT
BRANCH   1   5
ATOM      5  CA  PRO d   1       6.177  -1.579  28.368  0.00  0.00     0.091 C 
ATOM      6  N   PRO d   1       4.765  -1.203  28.543  0.00  0.00    -0.337 N 
ATOM      7  C   ARG d   1       3.987  -0.855  27.499  0.00  0.00     0.243 C 
ATOM      8  CD  PRO d   1       4.395  -1.192  29.974  0.00  0.00    -0.001 C 
ATOM      9  O   ARG d   1       4.439  -0.660  26.368  0.00  0.00    -0.271 OA
ATOM     10  CG  PRO d   1       5.733  -1.011  30.666  0.00  0.00    -0.048 C 
ATOM     11  H41 PRO d   1       3.922  -2.140  30.268  0.00  0.00     0.064 H 
ATOM     12  H42 PRO d   1       3.716  -0.357  30.201  0.00  0.00     0.064 H 
ATOM     13  CB  PRO d   1       6.651  -1.845  29.802  0.00  0.00    -0.036 C 
ATOM     14  H39 PRO d   1       6.040   0.045  30.672  0.00  0.00     0.035 H 
ATOM     15  H40 PRO d   1       5.703  -1.389  31.698  0.00  0.00     0.035 H 
ATOM     16  H37 PRO d   1       7.697  -1.530  29.930  0.00  0.00     0.036 H 
ATOM     17  H38 PRO d   1       6.556  -2.912  30.051  0.00  0.00     0.036 H 
ATOM     18  H36 PRO d   1       6.733  -0.738  27.927  0.00  0.00     0.087 H 
BRANCH   7  19
ATOM     19  CA  ARG d   1       2.499  -0.643  27.772  0.00  0.00     0.089 C 
ATOM     20  H24 ARG d   1       2.376  -0.258  28.795  0.00  0.00     0.087 H 
BRANCH  19  21
ATOM     21  N   ARG d   1       1.971   0.331  26.834  0.00  0.00    -0.346 N 
ATOM     22  C   PRO d   1       1.661   1.563  27.210  0.00  0.00     0.241 C 
ATOM     23  O   PRO d   1       1.711   1.944  28.385  0.00  0.00    -0.271 OA
ATOM     24  H23 ARG d   1       1.838   0.065  25.879  0.00  0.00     0.163 HD
BRANCH  22  25
ATOM     25  CA  PRO d   1       1.226   2.523  26.097  0.00  0.00     0.091 C 
ATOM     26  N   PRO d   1      -0.122   3.045  26.318  0.00  0.00    -0.337 N 
ATOM     27  C   ARG d   1      -1.162   2.195  26.452  0.00  0.00     0.251 C 
ATOM     28  CD  PRO d   1      -0.128   4.518  26.377  0.00  0.00    -0.001 C 
ATOM     29  O   ARG d   1      -1.027   0.970  26.425  0.00  0.00    -0.271 OA
ATOM     30  CG  PRO d   1       1.183   4.884  25.750  0.00  0.00    -0.048 C 
ATOM     31  H21 PRO d   1      -0.182   4.872  27.417  0.00  0.00     0.064 H 
ATOM     32  H22 PRO d   1      -0.970   4.934  25.804  0.00  0.00     0.064 H 
ATOM     33  CB  PRO d   1       2.101   3.783  26.117  0.00  0.00    -0.036 C 
ATOM     34  H19 PRO d   1       1.083   4.956  24.657  0.00  0.00     0.035 H 
ATOM     35  H20 PRO d   1       1.549   5.842  26.149  0.00  0.00     0.035 H 
ATOM     36  H17 PRO d   1       2.918   3.699  25.386  0.00  0.00     0.036 H 
ATOM     37  H18 PRO d   1       2.522   3.947  27.120  0.00  0.00     0.036 H 
ATOM     38  H16 PRO d   1       1.291   2.010  25.126  0.00  0.00     0.087 H 
BRANCH  27  39
ATOM     39  CA  ARG d   1      -2.547   2.803  26.650  0.00  0.00     0.176 C 
ATOM     40  H4  ARG d   1      -2.433   3.858  26.938  0.00  0.00     0.099 H 
BRANCH  39  41
ATOM     41  N   ARG d   1      -3.333   2.732  25.386  0.00  0.00    -0.067 N 
ATOM     42  H1  ARG d   1      -4.244   3.137  25.534  0.00  0.00     0.275 HD
ATOM     43  H2  ARG d   1      -3.435   1.769  25.107  0.00  0.00     0.275 HD
ATOM     44  H3  ARG d   1      -2.852   3.242  24.662  0.00  0.00     0.275 HD
ENDBRANCH  39  41
BRANCH  39  45
ATOM     45  CB  ARG d   1      -3.283   2.062  27.764  0.00  0.00    -0.029 C 
ATOM     46  H5  ARG d   1      -3.060   0.990  27.660  0.00  0.00     0.036 H 
ATOM     47  H6  ARG d   1      -4.361   2.228  27.623  0.00  0.00     0.036 H 
BRANCH  45  48
ATOM     48  CG  ARG d   1      -2.930   2.475  29.188  0.00  0.00    -0.047 C 
ATOM     49  H7  ARG d   1      -1.904   2.871  29.210  0.00  0.00     0.035 H 
ATOM     50  H8  ARG d   1      -2.999   1.600  29.851  0.00  0.00     0.035 H 
BRANCH  48  51
ATOM     51  CD  ARG d   1      -3.888   3.538  29.660  0.00  0.00     0.009 C 
ATOM     52  H9  ARG d   1      -4.819   3.452  29.081  0.00  0.00     0.064 H 
ATOM     53  H10 ARG d   1      -3.434   4.524  29.480  0.00  0.00     0.064 H 
BRANCH  51  54
ATOM     54  NE  ARG d   1      -4.212   3.426  31.085  0.00  0.00    -0.227 N 
ATOM     55  CZ  ARG d   1      -5.261   4.007  31.667  0.00  0.00     0.665 C 
ATOM     56  NH1 ARG d   1      -6.109   4.746  30.951  0.00  0.00    -0.235 N 
ATOM     57  NH2 ARG d   1      -5.464   3.852  32.971  0.00  0.00    -0.235 N 
ATOM     58  H12 ARG d   1      -6.917   5.191  31.409  0.00  0.00     0.174 HD
ATOM     59  H13 ARG d   1      -5.956   4.871  29.940  0.00  0.00     0.174 HD
ATOM     60  H14 ARG d   1      -4.812   3.282  33.529  0.00  0.00     0.174 HD
ATOM     61  H15 ARG d   1      -6.273   4.301  33.423  0.00  0.00     0.174 HD
ATOM     62  H11 ARG d   1      -3.587   2.860  31.677  0.00  0.00     0.177 HD
ENDBRANCH  51  54
ENDBRANCH  48  51
ENDBRANCH  45  48
ENDBRANCH  39  45
ENDBRANCH  27  39
ENDBRANCH  22  25
ENDBRANCH  19  21
BRANCH  19  63
ATOM     63  CB  ARG d   1       1.738  -1.957  27.650  0.00  0.00    -0.036 C 
ATOM     64  H25 ARG d   1       2.238  -2.705  28.284  0.00  0.00     0.036 H 
ATOM     65  H26 ARG d   1       1.777  -2.281  26.600  0.00  0.00     0.036 H 
BRANCH  63  66
ATOM     66  CG  ARG d   1       0.302  -1.877  28.063  0.00  0.00    -0.048 C 
ATOM     67  H27 ARG d   1      -0.221  -1.157  27.416  0.00  0.00     0.035 H 
ATOM     68  H28 ARG d   1       0.244  -1.540  29.109  0.00  0.00     0.035 H 
BRANCH  66  69
ATOM     69  CD  ARG d   1      -0.357  -3.225  27.939  0.00  0.00     0.009 C 
ATOM     70  H29 ARG d   1      -0.419  -3.490  26.873  0.00  0.00     0.064 H 
ATOM     71  H30 ARG d   1      -1.371  -3.161  28.360  0.00  0.00     0.064 H 
BRANCH  69  72
ATOM     72  NE  ARG d   1       0.380  -4.284  28.645  0.00  0.00    -0.227 N 
ATOM     73  CZ  ARG d   1       0.132  -4.684  29.894  0.00  0.00     0.665 C 
ATOM     74  NH1 ARG d   1       0.858  -5.659  30.433  0.00  0.00    -0.235 N 
ATOM     75  NH2 ARG d   1      -0.835  -4.117  30.609  0.00  0.00    -0.235 N 
ATOM     76  H32 ARG d   1       0.669  -5.970  31.397  0.00  0.00     0.174 HD
ATOM     77  H33 ARG d   1       1.610  -6.104  29.887  0.00  0.00     0.174 HD
ATOM     78  H34 ARG d   1      -1.403  -3.361  30.200  0.00  0.00     0.174 HD
ATOM     79  H35 ARG d   1      -1.017  -4.434  31.572  0.00  0.00     0.174 HD
ATOM     80  H31 ARG d   1       1.145  -4.752  28.138  0.00  0.00     0.177 HD
ENDBRANCH  69  72
ENDBRANCH  66  69
ENDBRANCH  63  66
ENDBRANCH  19  63
ENDBRANCH   7  19
ENDBRANCH   1   5
BRANCH   3  81
ATOM     81  CA  ASP d   1       5.526  -4.959  26.691  0.00  0.00     0.098 C 
ATOM     82  H44 ASP d   1       6.600  -5.177  26.599  0.00  0.00     0.088 H 
BRANCH  81  83
ATOM     83  C   ASP d   1       4.977  -4.864  25.261  0.00  0.00     0.241 C 
ATOM     84  O   ASP d   1       4.965  -5.857  24.526  0.00  0.00    -0.271 OA
ATOM     85  N   ASP d   1       4.515  -3.671  24.874  0.00  0.00    -0.345 N 
ATOM     86  H47 ASP d   1       4.426  -2.942  25.552  0.00  0.00     0.163 HD
BRANCH  85  87
ATOM     87  CA  ASP d   1       4.135  -3.401  23.483  0.00  0.00     0.098 C 
ATOM     88  H48 ASP d   1       3.315  -4.075  23.194  0.00  0.00     0.088 H 
BRANCH  87  89
ATOM     89  C   ASP d   1       5.344  -3.658  22.593  0.00  0.00     0.241 C 
ATOM     90  O   ASP d   1       6.478  -3.582  23.048  0.00  0.00    -0.271 OA
ATOM     91  N   LEU d   1       5.104  -3.988  21.326  0.00  0.00    -0.346 N 
ATOM     92  H51 LEU d   1       4.160  -4.107  21.017  0.00  0.00     0.163 HD
BRANCH  91  93
ATOM     93  CA  LEU d   1       6.192  -4.177  20.391  0.00  0.00     0.089 C 
ATOM     94  H52 LEU d   1       7.122  -4.332  20.958  0.00  0.00     0.087 H 
BRANCH  93  95
ATOM     95  C   LEU d   1       6.345  -2.913  19.545  0.00  0.00     0.241 C 
ATOM     96  O   LEU d   1       5.480  -2.593  18.733  0.00  0.00    -0.271 OA
ATOM     97  N   GLU d   1       7.433  -2.182  19.775  0.00  0.00    -0.346 N 
ATOM     98  H62 GLU d   1       8.060  -2.466  20.500  0.00  0.00     0.163 HD
BRANCH  97  99
ATOM     99  CA  GLU d   1       7.742  -0.984  19.009  0.00  0.00     0.090 C 
ATOM    100  H63 GLU d   1       6.840  -0.672  18.462  0.00  0.00     0.087 H 
BRANCH  99 101
ATOM    101  C   GLU d   1       8.841  -1.290  18.013  0.00  0.00     0.241 C 
ATOM    102  O   GLU d   1       9.931  -1.705  18.389  0.00  0.00    -0.271 OA
ATOM    103  N   ILE d   1       8.536  -1.103  16.735  0.00  0.00    -0.344 N 
ATOM    104  H68 ILE d   1       7.638  -0.732  16.500  0.00  0.00     0.163 HD
BRANCH 103 105
ATOM    105  CA  ILE d   1       9.472  -1.422  15.665  0.00  0.00     0.099 C 
ATOM    106  H69 ILE d   1      10.446  -1.641  16.127  0.00  0.00     0.090 H 
BRANCH 105 107
ATOM    107  C   ILE d   1       9.652  -0.223  14.738  0.00  0.00     0.197 C 
ATOM    108  O   ILE d   1      10.572  -0.190  13.918  0.00  0.00    -0.646 OA
ATOM    109  OXT ILE d   1       8.885   0.741  14.806  0.00  0.00    -0.646 OA
ENDBRANCH 105 107
BRANCH 105 110
ATOM    110  CB  ILE d   1       9.037  -2.681  14.868  0.00  0.00    -0.029 C 
ATOM    111  H70 ILE d   1       9.665  -2.754  13.968  0.00  0.00     0.043 H 
BRANCH 110 112
ATOM    112  CG1 ILE d   1       7.575  -2.552  14.412  0.00  0.00    -0.063 C 
ATOM    113  H71 ILE d   1       7.399  -1.508  14.115  0.00  0.00     0.033 H 
ATOM    114  H72 ILE d   1       6.926  -2.805  15.264  0.00  0.00     0.033 H 
BRANCH 112 115
ATOM    115  CD1 ILE d   1       7.190  -3.458  13.231  0.00  0.00    -0.076 C 
ATOM    116  H76 ILE d   1       6.132  -3.298  12.976  0.00  0.00     0.027 H 
ATOM    117  H77 ILE d   1       7.345  -4.511  13.511  0.00  0.00     0.027 H 
ATOM    118  H78 ILE d   1       7.818  -3.213  12.361  0.00  0.00     0.027 H 
ENDBRANCH 112 115
ENDBRANCH 110 112
BRANCH 110 119
ATOM    119  CG2 ILE d   1       9.271  -3.930  15.706  0.00  0.00    -0.070 C 
ATOM    120  H73 ILE d   1      10.328  -3.977  16.007  0.00  0.00     0.028 H 
ATOM    121  H74 ILE d   1       9.018  -4.822  15.114  0.00  0.00     0.028 H 
ATOM    122  H75 ILE d   1       8.636  -3.894  16.603  0.00  0.00     0.028 H 
ENDBRANCH 110 119
ENDBRANCH 105 110
ENDBRANCH 103 105
ENDBRANCH  99 101
BRANCH  99 123
ATOM    123  CB  GLU d   1       8.176   0.156  19.926  0.00  0.00    -0.029 C 
ATOM    124  H64 GLU d   1       8.494   1.003  19.300  0.00  0.00     0.037 H 
ATOM    125  H65 GLU d   1       9.025  -0.191  20.533  0.00  0.00     0.037 H 
BRANCH 123 126
ATOM    126  CG  GLU d   1       7.083   0.636  20.862  0.00  0.00     0.018 C 
ATOM    127  H66 GLU d   1       6.716  -0.222  21.445  0.00  0.00     0.049 H 
ATOM    128  H67 GLU d   1       6.260   1.049  20.260  0.00  0.00     0.049 H 
BRANCH 126 129
ATOM    129  CD  GLU d   1       7.563   1.697  21.815  0.00  0.00     0.172 C 
ATOM    130  OE1 GLU d   1       7.997   2.776  21.349  0.00  0.00    -0.648 OA
ATOM    131  OE2 GLU d   1       7.503   1.452  23.035  0.00  0.00    -0.648 OA
ENDBRANCH 126 129
ENDBRANCH 123 126
ENDBRANCH  99 123
ENDBRANCH  97  99
ENDBRANCH  93  95
BRANCH  93 132
ATOM    132  CB  LEU d   1       5.948  -5.418  19.522  0.00  0.00    -0.035 C 
ATOM    133  H53 LEU d   1       4.956  -5.307  19.061  0.00  0.00     0.037 H 
ATOM    134  H54 LEU d   1       5.946  -6.292  20.190  0.00  0.00     0.037 H 
BRANCH 132 135
ATOM    135  CG  LEU d   1       6.947  -5.703  18.397  0.00  0.00    -0.059 C 
ATOM    136  H55 LEU d   1       7.000  -4.807  17.761  0.00  0.00     0.038 H 
BRANCH 135 137
ATOM    137  CD1 LEU d   1       8.353  -5.963  18.948  0.00  0.00    -0.073 C 
ATOM    138  H56 LEU d   1       9.042  -6.163  18.114  0.00  0.00     0.028 H 
ATOM    139  H57 LEU d   1       8.328  -6.833  19.620  0.00  0.00     0.028 H 
ATOM    140  H58 LEU d   1       8.698  -5.079  19.505  0.00  0.00     0.028 H 
ENDBRANCH 135 137
BRANCH 135 141
ATOM    141  CD2 LEU d   1       6.465  -6.851  17.536  0.00  0.00    -0.073 C 
ATOM    142  H59 LEU d   1       5.455  -6.628  17.160  0.00  0.00     0.028 H 
ATOM    143  H60 LEU d   1       6.438  -7.773  18.136  0.00  0.00     0.028 H 
ATOM    144  H61 LEU d   1       7.151  -6.986  16.687  0.00  0.00     0.028 H 
ENDBRANCH 135 141
ENDBRANCH 132 135
ENDBRANCH  93 132
ENDBRANCH  91  93
ENDBRANCH  87  89
BRANCH  87 145
ATOM    145  CB  ASP d   1       3.673  -1.951  23.314  0.00  0.00     0.043 C 
ATOM    146  H49 ASP d   1       3.658  -1.713  22.240  0.00  0.00     0.052 H 
ATOM    147  H50 ASP d   1       4.392  -1.294  23.825  0.00  0.00     0.052 H 
BRANCH 145 148
ATOM    148  CG  ASP d   1       2.279  -1.687  23.890  0.00  0.00     0.175 C 
ATOM    149  OD1 ASP d   1       1.518  -2.635  24.118  0.00  0.00    -0.648 OA
ATOM    150  OD2 ASP d   1       1.923  -0.509  24.105  0.00  0.00    -0.648 OA
ENDBRANCH 145 148
ENDBRANCH  87 145
ENDBRANCH  85  87
ENDBRANCH  81  83
BRANCH  81 151
ATOM    151  CB  ASP d   1       4.891  -6.136  27.469  0.00  0.00     0.043 C 
ATOM    152  H45 ASP d   1       5.508  -6.340  28.357  0.00  0.00     0.052 H 
ATOM    153  H46 ASP d   1       4.884  -7.021  26.816  0.00  0.00     0.052 H 
BRANCH 151 154
ATOM    154  CG  ASP d   1       3.452  -5.861  27.930  0.00  0.00     0.175 C 
ATOM    155  OD1 ASP d   1       2.890  -6.710  28.660  0.00  0.00    -0.648 OA
ATOM    156  OD2 ASP d   1       2.871  -4.821  27.571  0.00  0.00    -0.648 OA
ENDBRANCH 151 154
ENDBRANCH  81 151
ENDBRANCH   3  81
TORSDOF 39
