REMARK  5 active torsions:
REMARK  status: ('A' for Active; 'I' for Inactive)
REMARK    1  A    between atoms: CAO_3  and  OAC_4 
REMARK    2  A    between atoms: CAR_7  and  CAU_8 
REMARK    3  A    between atoms: CAP_16  and  OAL_17 
REMARK    4  A    between atoms: OAL_17  and  CAA_18 
REMARK    5  A    between atoms: CAQ_20  and  OAD_21 
ROOT
ATOM      1  CAU SAK d   1      16.558  15.307 -10.929  0.00  0.00     0.077 C 
ATOM      2  OAM SAK d   1      15.774  15.929 -11.995  0.00  0.00    -0.340 OA
ATOM      3  CAK SAK d   1      15.856  14.000 -10.512  0.00  0.00     0.024 C 
ATOM      4  CAN SAK d   1      14.384  14.316 -10.221  0.00  0.00     0.167 C 
ATOM      5  OAB SAK d   1      13.836  13.572  -9.400  0.00  0.00    -0.292 OA
ATOM      6  CAT SAK d   1      13.695  15.369 -10.835  0.00  0.00     0.076 A 
ATOM      7  CAS SAK d   1      14.450  16.182 -11.721  0.00  0.00     0.089 A 
ATOM      8  CAJ SAK d   1      13.844  17.271 -12.378  0.00  0.00    -0.018 A 
ATOM      9  CAP SAK d   1      12.483  17.563 -12.153  0.00  0.00     0.073 A 
ATOM     10  CAI SAK d   1      11.734  16.755 -11.273  0.00  0.00    -0.018 A 
ATOM     11  CAQ SAK d   1      12.326  15.662 -10.622  0.00  0.00     0.085 A 
ATOM     12  H6  SAK d   1      16.576  15.986 -10.064  0.00  0.00     0.092 H 
ATOM     13  H7  SAK d   1      16.334  13.592  -9.609  0.00  0.00     0.049 H 
ATOM     14  H8  SAK d   1      15.924  13.265 -11.327  0.00  0.00     0.049 H 
ATOM     15  H9  SAK d   1      14.425  17.885 -13.057  0.00  0.00     0.092 H 
ATOM     16  H13 SAK d   1      10.688  16.981 -11.097  0.00  0.00     0.092 H 
ENDROOT
BRANCH   1  17
ATOM     17  CAR SAK d   1      18.010  15.062 -11.367  0.00  0.00    -0.028 A 
ATOM     18  CAG SAK d   1      18.881  16.172 -11.460  0.00  0.00    -0.072 A 
ATOM     19  CAE SAK d   1      20.210  15.974 -11.867  0.00  0.00    -0.050 A 
ATOM     20  H1  SAK d   1      18.526  17.167 -11.219  0.00  0.00     0.084 H 
ATOM     21  CAO SAK d   1      20.655  14.663 -12.177  0.00  0.00     0.065 A 
ATOM     22  H2  SAK d   1      20.890  16.815 -11.944  0.00  0.00     0.087 H 
ATOM     23  CAF SAK d   1      19.788  13.551 -12.093  0.00  0.00    -0.050 A 
ATOM     24  CAH SAK d   1      18.453  13.752 -11.676  0.00  0.00    -0.072 A 
ATOM     25  H4  SAK d   1      20.142  12.558 -12.345  0.00  0.00     0.087 H 
ATOM     26  H5  SAK d   1      17.774  12.911 -11.593  0.00  0.00     0.084 H 
BRANCH  21  27
ATOM     27  OAC SAK d   1      21.935  14.471 -12.568  0.00  0.00    -0.361 OA
ATOM     28  H3  SAK d   1      22.101  14.969 -13.360  0.00  0.00     0.217 HD
ENDBRANCH  21  27
ENDBRANCH   1  17
BRANCH  11  29
ATOM     29  OAD SAK d   1      11.524  14.942  -9.786  0.00  0.00    -0.360 OA
ATOM     30  H14 SAK d   1      12.025  14.232  -9.402  0.00  0.00     0.217 HD
ENDBRANCH  11  29
BRANCH   9  31
ATOM     31  OAL SAK d   1      11.973  18.623 -12.861  0.00  0.00    -0.356 OA
BRANCH  31  32
ATOM     32  CAA SAK d   1      10.752  19.267 -12.439  0.00  0.00     0.010 C 
ATOM     33  H10 SAK d   1      10.512  20.087 -13.131  0.00  0.00     0.066 H 
ATOM     34  H11 SAK d   1      10.882  19.670 -11.424  0.00  0.00     0.066 H 
ATOM     35  H12 SAK d   1       9.932  18.534 -12.440  0.00  0.00     0.066 H 
ENDBRANCH  31  32
ENDBRANCH   9  31
TORSDOF 5
