REMARK  6 active torsions:
REMARK  status: ('A' for Active; 'I' for Inactive)
REMARK    1  A    between atoms: C27_2  and  C12_7 
REMARK    2  A    between atoms: C18_26  and  C23_3 
REMARK    3  A    between atoms: N22_29  and  C15_6 
REMARK    4  A    between atoms: C12_7  and  C11_9 
REMARK       I    between atoms: C14_8  and  N22_29 
REMARK       I    between atoms: N13_30  and  C14_8 
REMARK    5  A    between atoms: C11_9  and  N10_21 
REMARK    6  A    between atoms: N10_21  and  C9_10 
ROOT
ATOM      1  C31 AK1 d   1      -9.059  27.557  76.628  0.00  0.00     0.018 A 
ATOM      2  C27 AK1 d   1      -8.738  27.502  77.938  0.00  0.00     0.005 A 
ATOM      3  C14 AK1 d   1     -10.970  23.659  77.979  0.00  0.00     0.326 C 
ATOM      4  N30 AK1 d   1      -9.725  26.536  76.238  0.00  0.00    -0.235 NA
ATOM      5  C29 AK1 d   1      -9.961  25.687  77.236  0.00  0.00     0.174 A 
ATOM      6  S28 AK1 d   1      -9.302  26.184  78.584  0.00  0.00    -0.055 SA
ATOM      7  N22 AK1 d   1     -11.735  22.624  77.593  0.00  0.00    -0.309 N 
ATOM      8  N13 AK1 d   1     -10.687  24.572  77.043  0.00  0.00    -0.287 N 
ATOM      9  O16 AK1 d   1     -10.541  23.765  79.123  0.00  0.00    -0.247 OA
ATOM     10  H1  AK1 d   1      -8.781  28.382  75.973  0.00  0.00     0.116 H 
ATOM     11  H14 AK1 d   1     -11.937  22.544  76.617  0.00  0.00     0.170 HD
ATOM     12  H15 AK1 d   1     -11.045  24.412  76.123  0.00  0.00     0.172 HD
ENDROOT
BRANCH   2  13
ATOM     13  C12 AK1 d   1      -7.954  28.594  78.672  0.00  0.00    -0.019 C 
ATOM     14  H4  AK1 d   1      -8.598  29.026  79.452  0.00  0.00     0.043 H 
ATOM     15  H5  AK1 d   1      -7.679  29.376  77.949  0.00  0.00     0.043 H 
BRANCH  13  16
ATOM     16  C11 AK1 d   1      -6.675  28.064  79.330  0.00  0.00    -0.002 C 
ATOM     17  H6  AK1 d   1      -5.999  27.689  78.547  0.00  0.00     0.064 H 
ATOM     18  H7  AK1 d   1      -6.938  27.242  80.012  0.00  0.00     0.064 H 
BRANCH  16  19
ATOM     19  N10 AK1 d   1      -5.980  29.124  80.099  0.00  0.00    -0.373 N 
ATOM     20  H11 AK1 d   1      -6.163  29.161  81.112  0.00  0.00     0.161 HD
BRANCH  19  21
ATOM     21  C9  AK1 d   1      -5.137  30.038  79.603  0.00  0.00     0.144 A 
ATOM     22  C4  AK1 d   1      -4.524  30.978  80.386  0.00  0.00     0.079 A 
ATOM     23  C3  AK1 d   1      -3.699  31.879  79.857  0.00  0.00     0.079 A 
ATOM     24  S5  AK1 d   1      -4.621  31.209  82.052  0.00  0.00    -0.096 SA
ATOM     25  C2  AK1 d   1      -3.195  32.703  80.674  0.00  0.00    -0.047 A 
ATOM     26  N6  AK1 d   1      -3.478  31.880  78.541  0.00  0.00    -0.241 NA
ATOM     27  C1  AK1 d   1      -3.577  32.506  81.877  0.00  0.00    -0.042 A 
ATOM     28  H9  AK1 d   1      -2.508  33.496  80.383  0.00  0.00     0.087 H 
ATOM     29  H10 AK1 d   1      -3.253  33.125  82.712  0.00  0.00     0.095 H 
ATOM     30  C7  AK1 d   1      -4.061  30.959  77.586  0.00  0.00     0.089 A 
ATOM     31  N8  AK1 d   1      -4.935  30.015  78.275  0.00  0.00    -0.223 NA
ATOM     32  H8  AK1 d   1      -3.875  30.970  76.518  0.00  0.00     0.146 H 
ENDBRANCH  19  21
ENDBRANCH  16  19
ENDBRANCH  13  16
ENDBRANCH   2  13
BRANCH   7  33
ATOM     33  C15 AK1 d   1     -12.257  21.679  78.414  0.00  0.00     0.037 A 
ATOM     34  C17 AK1 d   1     -12.955  20.597  77.859  0.00  0.00    -0.043 A 
ATOM     35  C18 AK1 d   1     -13.503  19.611  78.687  0.00  0.00     0.050 A 
ATOM     36  H2  AK1 d   1     -13.071  20.524  76.784  0.00  0.00     0.088 H 
ATOM     37  C19 AK1 d   1     -13.361  19.704  80.068  0.00  0.00    -0.068 A 
ATOM     38  C20 AK1 d   1     -12.673  20.777  80.627  0.00  0.00    -0.080 A 
ATOM     39  H12 AK1 d   1     -13.787  18.940  80.709  0.00  0.00     0.084 H 
ATOM     40  C21 AK1 d   1     -12.125  21.759  79.805  0.00  0.00    -0.057 A 
ATOM     41  H3  AK1 d   1     -12.563  20.849  81.703  0.00  0.00     0.083 H 
ATOM     42  H13 AK1 d   1     -11.591  22.593  80.247  0.00  0.00     0.086 H 
BRANCH  35  43
ATOM     43  C23 AK1 d   1     -14.261  18.446  78.112  0.00  0.00     0.417 C 
ATOM     44  F26 AK1 d   1     -14.625  18.703  76.870  0.00  0.00    -0.166 F 
ATOM     45  F24 AK1 d   1     -13.509  17.365  78.136  0.00  0.00    -0.166 F 
ATOM     46  F25 AK1 d   1     -15.339  18.221  78.832  0.00  0.00    -0.166 F 
ENDBRANCH  35  43
ENDBRANCH   7  33
TORSDOF 6
