REMARK  25 active torsions:
REMARK  status: ('A' for Active; 'I' for Inactive)
REMARK    1  A    between atoms: N_1  and  CA_2 
REMARK    2  A    between atoms: CA_2  and  C_3 
REMARK       I    between atoms: C_3  and  N_5 
REMARK    3  A    between atoms: N_5  and  CA_6 
REMARK    4  A    between atoms: CA_6  and  C_7 
REMARK    5  A    between atoms: CA_6  and  CB_9 
REMARK       I    between atoms: C_7  and  N_14 
REMARK    6  A    between atoms: CB_9  and  CG_10 
REMARK    7  A    between atoms: CG_10  and  CD_11 
REMARK       I    between atoms: CD_11  and  NE2_13 
REMARK    8  A    between atoms: N_14  and  CA_15 
REMARK    9  A    between atoms: CA_15  and  C_16 
REMARK   10  A    between atoms: CA_15  and  CB_18 
REMARK       I    between atoms: C_16  and  N_22 
REMARK   11  A    between atoms: CB_18  and  CG_19 
REMARK   12  A    between atoms: CG_19  and  CD1_20 
REMARK   13  A    between atoms: CG_19  and  CD2_21 
REMARK   14  A    between atoms: N_22  and  CA_23 
REMARK   15  A    between atoms: CA_23  and  C_24 
REMARK       I    between atoms: C_24  and  N_26 
REMARK   16  A    between atoms: N_26  and  CA_27 
REMARK   17  A    between atoms: CA_27  and  C_28 
REMARK   18  A    between atoms: CA_27  and  CB_30 
REMARK       I    between atoms: C_28  and  N_34 
REMARK   19  A    between atoms: CB_30  and  CG_31 
REMARK   20  A    between atoms: CG_31  and  CD1_32 
REMARK   21  A    between atoms: CG_31  and  CD2_33 
REMARK   22  A    between atoms: N_34  and  CA_35 
REMARK   23  A    between atoms: CA_35  and  C_36 
REMARK   24  A    between atoms: CA_35  and  CB_38 
REMARK   25  A    between atoms: CB_38  and  CG_39 
ROOT
ATOM      1  N   GLY d   1     -67.459 -71.764 -66.018  0.00  0.00    -0.351 N 
ATOM      2  H25 GLY d   1     -66.515 -71.885 -65.711  0.00  0.00     0.163 HD
ATOM      3  C   LEU d   1     -68.348 -71.191 -65.214  0.00  0.00     0.240 C 
ATOM      4  O   LEU d   1     -69.523 -71.018 -65.536  0.00  0.00    -0.271 OA
ENDROOT
BRANCH   1   5
ATOM      5  CA  GLY d   1     -67.853 -72.214 -67.339  0.00  0.00     0.069 C 
ATOM      6  H26 GLY d   1     -67.185 -71.746 -68.077  0.00  0.00     0.078 H 
ATOM      7  H27 GLY d   1     -68.888 -71.888 -67.522  0.00  0.00     0.078 H 
BRANCH   5   8
ATOM      8  C   GLY d   1     -67.788 -73.717 -67.522  0.00  0.00     0.236 C 
ATOM      9  O   GLY d   1     -66.874 -74.373 -67.020  0.00  0.00    -0.272 OA
ATOM     10  N   LEU d   1     -68.767 -74.261 -68.242  0.00  0.00    -0.346 N 
ATOM     11  H28 LEU d   1     -69.484 -73.667 -68.606  0.00  0.00     0.163 HD
BRANCH  10  12
ATOM     12  CA  LEU d   1     -68.831 -75.693 -68.519  0.00  0.00     0.089 C 
ATOM     13  H29 LEU d   1     -68.700 -76.245 -67.576  0.00  0.00     0.087 H 
BRANCH  12  14
ATOM     14  C   LEU d   1     -67.729 -76.094 -69.493  0.00  0.00     0.241 C 
ATOM     15  O   LEU d   1     -67.154 -77.174 -69.386  0.00  0.00    -0.271 OA
ATOM     16  N   PHE d   1     -67.449 -75.216 -70.449  0.00  0.00    -0.344 N 
ATOM     17  H39 PHE d   1     -67.956 -74.354 -70.480  0.00  0.00     0.163 HD
BRANCH  16  18
ATOM     18  CA  PHE d   1     -66.427 -75.470 -71.453  0.00  0.00     0.100 C 
ATOM     19  H40 PHE d   1     -65.592 -76.014 -70.987  0.00  0.00     0.090 H 
BRANCH  18  20
ATOM     20  C   PHE d   1     -65.904 -74.151 -72.019  0.00  0.00     0.197 C 
ATOM     21  O   PHE d   1     -65.383 -74.160 -73.158  0.00  0.00    -0.646 OA
ATOM     22  OXT PHE d   1     -66.013 -73.127 -71.309  0.00  0.00    -0.646 OA
ENDBRANCH  18  20
BRANCH  18  23
ATOM     23  CB  PHE d   1     -67.019 -76.328 -72.576  0.00  0.00    -0.013 C 
ATOM     24  H41 PHE d   1     -67.269 -77.316 -72.162  0.00  0.00     0.043 H 
ATOM     25  H42 PHE d   1     -66.259 -76.442 -73.363  0.00  0.00     0.043 H 
BRANCH  23  26
ATOM     26  CG  PHE d   1     -68.262 -75.744 -73.197  0.00  0.00    -0.056 A 
ATOM     27  CD1 PHE d   1     -68.186 -74.643 -74.046  0.00  0.00    -0.077 A 
ATOM     28  CE1 PHE d   1     -69.340 -74.083 -74.598  0.00  0.00    -0.082 A 
ATOM     29  H43 PHE d   1     -67.218 -74.215 -74.281  0.00  0.00     0.084 H 
ATOM     30  CZ  PHE d   1     -70.584 -74.627 -74.300  0.00  0.00    -0.083 A 
ATOM     31  H45 PHE d   1     -69.266 -73.226 -75.257  0.00  0.00     0.083 H 
ATOM     32  CE2 PHE d   1     -70.672 -75.727 -73.455  0.00  0.00    -0.082 A 
ATOM     33  H47 PHE d   1     -71.483 -74.195 -74.725  0.00  0.00     0.083 H 
ATOM     34  CD2 PHE d   1     -69.515 -76.279 -72.909  0.00  0.00    -0.077 A 
ATOM     35  H46 PHE d   1     -71.640 -76.155 -73.221  0.00  0.00     0.083 H 
ATOM     36  H44 PHE d   1     -69.591 -77.137 -72.251  0.00  0.00     0.084 H 
ENDBRANCH  23  26
ENDBRANCH  18  23
ENDBRANCH  16  18
ENDBRANCH  12  14
BRANCH  12  37
ATOM     37  CB  LEU d   1     -70.186 -76.057 -69.132  0.00  0.00    -0.035 C 
ATOM     38  H30 LEU d   1     -70.099 -77.085 -69.514  0.00  0.00     0.037 H 
ATOM     39  H31 LEU d   1     -70.353 -75.367 -69.972  0.00  0.00     0.037 H 
BRANCH  37  40
ATOM     40  CG  LEU d   1     -71.443 -76.011 -68.263  0.00  0.00    -0.059 C 
ATOM     41  H32 LEU d   1     -71.522 -75.019 -67.793  0.00  0.00     0.038 H 
BRANCH  40  42
ATOM     42  CD1 LEU d   1     -72.668 -76.247 -69.135  0.00  0.00    -0.073 C 
ATOM     43  H33 LEU d   1     -73.574 -76.214 -68.511  0.00  0.00     0.028 H 
ATOM     44  H34 LEU d   1     -72.590 -77.233 -69.617  0.00  0.00     0.028 H 
ATOM     45  H35 LEU d   1     -72.725 -75.465 -69.906  0.00  0.00     0.028 H 
ENDBRANCH  40  42
BRANCH  40  46
ATOM     46  CD2 LEU d   1     -71.356 -77.067 -67.175  0.00  0.00    -0.073 C 
ATOM     47  H36 LEU d   1     -70.466 -76.882 -66.555  0.00  0.00     0.028 H 
ATOM     48  H37 LEU d   1     -71.281 -78.063 -67.636  0.00  0.00     0.028 H 
ATOM     49  H38 LEU d   1     -72.257 -77.021 -66.546  0.00  0.00     0.028 H 
ENDBRANCH  40  46
ENDBRANCH  37  40
ENDBRANCH  12  37
ENDBRANCH  10  12
ENDBRANCH   5   8
ENDBRANCH   1   5
BRANCH   3  50
ATOM     50  CA  LEU d   1     -67.843 -70.746 -63.844  0.00  0.00     0.089 C 
ATOM     51  H15 LEU d   1     -66.887 -70.213 -63.959  0.00  0.00     0.087 H 
BRANCH  50  52
ATOM     52  N   LEU d   1     -68.829 -69.848 -63.255  0.00  0.00    -0.346 N 
ATOM     53  C   GLN d   1     -68.700 -68.526 -63.296  0.00  0.00     0.241 C 
ATOM     54  O   GLN d   1     -67.740 -67.955 -63.814  0.00  0.00    -0.271 OA
ATOM     55  H14 LEU d   1     -69.631 -70.241 -62.804  0.00  0.00     0.163 HD
BRANCH  53  56
ATOM     56  CA  GLN d   1     -69.834 -67.728 -62.668  0.00  0.00     0.090 C 
ATOM     57  H7  GLN d   1     -70.409 -68.406 -62.019  0.00  0.00     0.087 H 
BRANCH  56  58
ATOM     58  N   GLN d   1     -69.385 -66.607 -61.848  0.00  0.00    -0.346 N 
ATOM     59  C   GLY d   1     -68.632 -66.779 -60.766  0.00  0.00     0.243 C 
ATOM     60  O   GLY d   1     -68.244 -67.885 -60.384  0.00  0.00    -0.272 OA
ATOM     61  H6  GLN d   1     -69.653 -65.679 -62.109  0.00  0.00     0.163 HD
BRANCH  59  62
ATOM     62  CA  GLY d   1     -68.251 -65.520 -60.013  0.00  0.00     0.152 C 
ATOM     63  H4  GLY d   1     -67.879 -64.777 -60.734  0.00  0.00     0.090 H 
ATOM     64  H5  GLY d   1     -69.146 -65.126 -59.509  0.00  0.00     0.090 H 
BRANCH  62  65
ATOM     65  N   GLY d   1     -67.194 -65.764 -58.990  0.00  0.00    -0.071 N 
ATOM     66  H1  GLY d   1     -66.977 -64.900 -58.519  0.00  0.00     0.274 HD
ATOM     67  H2  GLY d   1     -66.365 -66.118 -59.441  0.00  0.00     0.274 HD
ATOM     68  H3  GLY d   1     -67.526 -66.439 -58.319  0.00  0.00     0.274 HD
ENDBRANCH  62  65
ENDBRANCH  59  62
ENDBRANCH  56  58
BRANCH  56  69
ATOM     69  CB  GLN d   1     -70.745 -67.233 -63.791  0.00  0.00    -0.030 C 
ATOM     70  H8  GLN d   1     -70.175 -66.535 -64.422  0.00  0.00     0.037 H 
ATOM     71  H9  GLN d   1     -71.600 -66.706 -63.341  0.00  0.00     0.037 H 
BRANCH  69  72
ATOM     72  CG  GLN d   1     -71.277 -68.354 -64.670  0.00  0.00     0.011 C 
ATOM     73  H10 GLN d   1     -70.428 -68.874 -65.138  0.00  0.00     0.047 H 
ATOM     74  H11 GLN d   1     -71.918 -67.921 -65.452  0.00  0.00     0.047 H 
BRANCH  72  75
ATOM     75  CD  GLN d   1     -72.085 -69.355 -63.872  0.00  0.00     0.215 C 
ATOM     76  OE1 GLN d   1     -73.003 -68.976 -63.151  0.00  0.00    -0.274 OA
ATOM     77  NE2 GLN d   1     -71.747 -70.641 -63.995  0.00  0.00    -0.370 N 
ATOM     78  H12 GLN d   1     -72.250 -71.341 -63.488  0.00  0.00     0.159 HD
ATOM     79  H13 GLN d   1     -70.990 -70.904 -64.594  0.00  0.00     0.159 HD
ENDBRANCH  72  75
ENDBRANCH  69  72
ENDBRANCH  56  69
ENDBRANCH  53  56
ENDBRANCH  50  52
BRANCH  50  80
ATOM     80  CB  LEU d   1     -67.631 -71.971 -62.952  0.00  0.00    -0.035 C 
ATOM     81  H16 LEU d   1     -67.028 -72.697 -63.517  0.00  0.00     0.037 H 
ATOM     82  H17 LEU d   1     -68.619 -72.404 -62.737  0.00  0.00     0.037 H 
BRANCH  80  83
ATOM     83  CG  LEU d   1     -66.930 -71.724 -61.616  0.00  0.00    -0.059 C 
ATOM     84  H18 LEU d   1     -67.443 -70.909 -61.085  0.00  0.00     0.038 H 
BRANCH  83  85
ATOM     85  CD1 LEU d   1     -66.993 -72.978 -60.761  0.00  0.00    -0.073 C 
ATOM     86  H19 LEU d   1     -66.487 -72.793 -59.802  0.00  0.00     0.028 H 
ATOM     87  H20 LEU d   1     -66.493 -73.805 -61.286  0.00  0.00     0.028 H 
ATOM     88  H21 LEU d   1     -68.044 -73.243 -60.576  0.00  0.00     0.028 H 
ENDBRANCH  83  85
BRANCH  83  89
ATOM     89  CD2 LEU d   1     -65.493 -71.312 -61.875  0.00  0.00    -0.073 C 
ATOM     90  H22 LEU d   1     -65.478 -70.403 -62.495  0.00  0.00     0.028 H 
ATOM     91  H23 LEU d   1     -64.968 -72.123 -62.401  0.00  0.00     0.028 H 
ATOM     92  H24 LEU d   1     -64.991 -71.111 -60.917  0.00  0.00     0.028 H 
ENDBRANCH  83  89
ENDBRANCH  80  83
ENDBRANCH  50  80
ENDBRANCH   3  50
TORSDOF 25
