REMARK WARNING: 32 MAX_TORS EXCEEDED!!!
REMARK  43 active torsions:
REMARK  status: ('A' for Active; 'I' for Inactive)
REMARK    1  A    between atoms: N_1  and  CA_2 
REMARK    2  A    between atoms: CA_2  and  C_3 
REMARK    3  A    between atoms: CA_2  and  CB_5 
REMARK       I    between atoms: C_3  and  N_7 
REMARK    4  A    between atoms: CB_5  and  OG_6 
REMARK    5  A    between atoms: N_7  and  CA_8 
REMARK    6  A    between atoms: CA_8  and  C_9 
REMARK    7  A    between atoms: CA_8  and  CB_11 
REMARK       I    between atoms: C_9  and  N_16 
REMARK    8  A    between atoms: CB_11  and  CG_12 
REMARK    9  A    between atoms: CG_12  and  CD_13 
REMARK   10  A    between atoms: N_16  and  CA_17 
REMARK   11  A    between atoms: CA_17  and  C_18 
REMARK   12  A    between atoms: CA_17  and  CB_20 
REMARK       I    between atoms: C_18  and  N_25 
REMARK   13  A    between atoms: CB_20  and  CG_21 
REMARK   14  A    between atoms: CG_21  and  CD_22 
REMARK       I    between atoms: CD_22  and  NE2_24 
REMARK   15  A    between atoms: N_25  and  CA_26 
REMARK   16  A    between atoms: CA_26  and  C_27 
REMARK   17  A    between atoms: CA_26  and  CB_29 
REMARK       I    between atoms: C_27  and  N_32 
REMARK   18  A    between atoms: CB_29  and  CG1_30 
REMARK   19  A    between atoms: CB_29  and  CG2_31 
REMARK   20  A    between atoms: N_32  and  CA_33 
REMARK   21  A    between atoms: CA_33  and  C_34 
REMARK   22  A    between atoms: CA_33  and  CB_36 
REMARK       I    between atoms: C_34  and  N_41 
REMARK   23  A    between atoms: CB_36  and  CG_37 
REMARK   24  A    between atoms: CG_37  and  CD_38 
REMARK   25  A    between atoms: N_41  and  CA_42 
REMARK   26  A    between atoms: CA_42  and  C_43 
REMARK   27  A    between atoms: CA_42  and  CB_45 
REMARK       I    between atoms: C_43  and  N_49 
REMARK   28  A    between atoms: CB_45  and  CG_46 
REMARK   29  A    between atoms: CG_46  and  CD1_47 
REMARK   30  A    between atoms: CG_46  and  CD2_48 
REMARK   31  A    between atoms: N_49  and  CA_50 
REMARK   32  A    between atoms: CA_50  and  C_51 
REMARK   33  A    between atoms: CA_50  and  CB_53 
REMARK       I    between atoms: C_51  and  N_58 
REMARK   34  A    between atoms: CB_53  and  CG_54 
REMARK   35  A    between atoms: CG_54  and  CD_55 
REMARK   36  A    between atoms: N_58  and  CA_59 
REMARK   37  A    between atoms: CA_59  and  C_60 
REMARK   38  A    between atoms: CA_59  and  CB_62 
REMARK       I    between atoms: C_60  and  N_69 
REMARK   39  A    between atoms: CB_62  and  CG_63 
REMARK   40  A    between atoms: N_69  and  CA_70 
REMARK   41  A    between atoms: CA_70  and  C_71 
REMARK   42  A    between atoms: CA_70  and  CB_73 
REMARK   43  A    between atoms: CB_73  and  CG_74 
ROOT
ATOM      1  CA  GLU d   1      38.858  99.486 113.428  0.00  0.00     0.090 C 
ATOM      2  H32 GLU d   1      38.862 100.017 112.465  0.00  0.00     0.087 H 
ENDROOT
BRANCH   1   3
ATOM      3  N   GLU d   1      40.021  99.921 114.193  0.00  0.00    -0.346 N 
ATOM      4  C   VAL d   1      40.516 101.149 114.084  0.00  0.00     0.241 C 
ATOM      5  O   VAL d   1      40.036 102.000 113.338  0.00  0.00    -0.271 OA
ATOM      6  H31 GLU d   1      40.459  99.275 114.819  0.00  0.00     0.163 HD
BRANCH   4   7
ATOM      7  CA  VAL d   1      41.744 101.461 114.931  0.00  0.00     0.092 C 
ATOM      8  H23 VAL d   1      42.210 100.515 115.245  0.00  0.00     0.088 H 
BRANCH   7   9
ATOM      9  N   VAL d   1      42.710 102.217 114.144  0.00  0.00    -0.346 N 
ATOM     10  C   GLN d   1      43.509 101.605 113.280  0.00  0.00     0.241 C 
ATOM     11  O   GLN d   1      43.495 100.384 113.105  0.00  0.00    -0.271 OA
ATOM     12  H22 VAL d   1      42.771 103.209 114.257  0.00  0.00     0.163 HD
BRANCH  10  13
ATOM     13  CA  GLN d   1      44.480 102.485 112.510  0.00  0.00     0.090 C 
ATOM     14  H15 GLN d   1      44.427 103.521 112.876  0.00  0.00     0.087 H 
BRANCH  13  15
ATOM     15  N   GLN d   1      45.815 101.942 112.747  0.00  0.00    -0.346 N 
ATOM     16  C   GLU d   1      46.633 102.493 113.634  0.00  0.00     0.241 C 
ATOM     17  O   GLU d   1      46.340 103.504 114.271  0.00  0.00    -0.271 OA
ATOM     18  H14 GLN d   1      46.118 101.141 112.231  0.00  0.00     0.163 HD
BRANCH  16  19
ATOM     19  CA  GLU d   1      47.984 101.817 113.830  0.00  0.00     0.090 C 
ATOM     20  H9  GLU d   1      48.393 102.143 114.797  0.00  0.00     0.087 H 
BRANCH  19  21
ATOM     21  N   GLU d   1      47.842 100.367 113.866  0.00  0.00    -0.346 N 
ATOM     22  C   SER d   1      47.006  99.795 114.728  0.00  0.00     0.251 C 
ATOM     23  O   SER d   1      46.316 100.442 115.519  0.00  0.00    -0.271 OA
ATOM     24  H8  GLU d   1      48.376  99.799 113.239  0.00  0.00     0.163 HD
BRANCH  22  25
ATOM     25  CA  SER d   1      46.934  98.271 114.703  0.00  0.00     0.195 C 
ATOM     26  H4  SER d   1      47.800  97.882 114.147  0.00  0.00     0.102 H 
BRANCH  25  27
ATOM     27  N   SER d   1      46.973  97.732 116.099  0.00  0.00    -0.064 N 
ATOM     28  H1  SER d   1      46.925  96.725 116.072  0.00  0.00     0.275 HD
ATOM     29  H2  SER d   1      46.189  98.092 116.620  0.00  0.00     0.275 HD
ATOM     30  H3  SER d   1      47.831  98.016 116.545  0.00  0.00     0.275 HD
ENDBRANCH  25  27
BRANCH  25  31
ATOM     31  CB  SER d   1      45.652  97.823 114.000  0.00  0.00     0.051 C 
ATOM     32  H5  SER d   1      45.661  96.727 113.902  0.00  0.00     0.077 H 
ATOM     33  H6  SER d   1      45.613  98.280 113.000  0.00  0.00     0.077 H 
BRANCH  31  34
ATOM     34  OG  SER d   1      44.502  98.212 114.731  0.00  0.00    -0.398 OA
ATOM     35  H7  SER d   1      44.487  99.158 114.815  0.00  0.00     0.209 HD
ENDBRANCH  31  34
ENDBRANCH  25  31
ENDBRANCH  22  25
ENDBRANCH  19  21
BRANCH  19  36
ATOM     36  CB  GLU d   1      48.958 102.244 112.732  0.00  0.00    -0.029 C 
ATOM     37  H10 GLU d   1      48.496 102.045 111.754  0.00  0.00     0.037 H 
ATOM     38  H11 GLU d   1      49.881 101.653 112.829  0.00  0.00     0.037 H 
BRANCH  36  39
ATOM     39  CG  GLU d   1      49.313 103.721 112.813  0.00  0.00     0.018 C 
ATOM     40  H12 GLU d   1      49.501 103.978 113.866  0.00  0.00     0.049 H 
ATOM     41  H13 GLU d   1      48.460 104.306 112.439  0.00  0.00     0.049 H 
BRANCH  39  42
ATOM     42  CD  GLU d   1      50.542 104.086 112.001  0.00  0.00     0.172 C 
ATOM     43  OE1 GLU d   1      50.559 103.810 110.786  0.00  0.00    -0.648 OA
ATOM     44  OE2 GLU d   1      51.489 104.659 112.581  0.00  0.00    -0.648 OA
ENDBRANCH  39  42
ENDBRANCH  36  39
ENDBRANCH  19  36
ENDBRANCH  16  19
ENDBRANCH  13  15
BRANCH  13  45
ATOM     45  CB  GLN d   1      44.126 102.455 111.020  0.00  0.00    -0.030 C 
ATOM     46  H16 GLN d   1      44.363 101.455 110.628  0.00  0.00     0.037 H 
ATOM     47  H17 GLN d   1      44.740 103.207 110.503  0.00  0.00     0.037 H 
BRANCH  45  48
ATOM     48  CG  GLN d   1      42.654 102.751 110.727  0.00  0.00     0.011 C 
ATOM     49  H18 GLN d   1      42.037 101.990 111.228  0.00  0.00     0.047 H 
ATOM     50  H19 GLN d   1      42.495 102.695 109.640  0.00  0.00     0.047 H 
BRANCH  48  51
ATOM     51  CD  GLN d   1      42.216 104.125 111.211  0.00  0.00     0.215 C 
ATOM     52  OE1 GLN d   1      41.245 104.253 111.962  0.00  0.00    -0.274 OA
ATOM     53  NE2 GLN d   1      42.931 105.160 110.780  0.00  0.00    -0.370 N 
ATOM     54  H20 GLN d   1      42.690 106.088 111.065  0.00  0.00     0.159 HD
ATOM     55  H21 GLN d   1      43.710 105.011 110.171  0.00  0.00     0.159 HD
ENDBRANCH  48  51
ENDBRANCH  45  48
ENDBRANCH  13  45
ENDBRANCH  10  13
ENDBRANCH   7   9
BRANCH   7  56
ATOM     56  CB  VAL d   1      41.322 102.244 116.189  0.00  0.00    -0.033 C 
ATOM     57  H24 VAL d   1      40.832 103.179 115.881  0.00  0.00     0.042 H 
BRANCH  56  58
ATOM     58  CG1 VAL d   1      40.339 101.420 117.004  0.00  0.00    -0.071 C 
ATOM     59  H25 VAL d   1      40.042 101.984 117.900  0.00  0.00     0.028 H 
ATOM     60  H26 VAL d   1      40.815 100.475 117.307  0.00  0.00     0.028 H 
ATOM     61  H27 VAL d   1      39.449 101.204 116.395  0.00  0.00     0.028 H 
ENDBRANCH  56  58
BRANCH  56  62
ATOM     62  CG2 VAL d   1      42.563 102.587 117.027  0.00  0.00    -0.071 C 
ATOM     63  H28 VAL d   1      43.261 103.183 116.421  0.00  0.00     0.028 H 
ATOM     64  H29 VAL d   1      43.057 101.658 117.348  0.00  0.00     0.028 H 
ATOM     65  H30 VAL d   1      42.260 103.166 117.912  0.00  0.00     0.028 H 
ENDBRANCH  56  62
ENDBRANCH   7  56
ENDBRANCH   4   7
ENDBRANCH   1   3
BRANCH   1  66
ATOM     66  C   GLU d   1      37.550  99.796 114.142  0.00  0.00     0.241 C 
ATOM     67  O   GLU d   1      37.461  99.676 115.361  0.00  0.00    -0.271 OA
ATOM     68  N   LEU d   1      36.538 100.200 113.380  0.00  0.00    -0.346 N 
ATOM     69  H37 LEU d   1      36.682 100.308 112.396  0.00  0.00     0.163 HD
BRANCH  68  70
ATOM     70  CA  LEU d   1      35.222 100.490 113.942  0.00  0.00     0.089 C 
ATOM     71  H38 LEU d   1      35.310 101.273 114.710  0.00  0.00     0.087 H 
BRANCH  70  72
ATOM     72  C   LEU d   1      34.689  99.204 114.560  0.00  0.00     0.241 C 
ATOM     73  O   LEU d   1      34.846  98.125 113.986  0.00  0.00    -0.271 OA
ATOM     74  N   GLU d   1      34.058  99.322 115.724  0.00  0.00    -0.346 N 
ATOM     75  H48 GLU d   1      33.957 100.228 116.136  0.00  0.00     0.163 HD
BRANCH  74  76
ATOM     76  CA  GLU d   1      33.510  98.161 116.413  0.00  0.00     0.090 C 
ATOM     77  H49 GLU d   1      33.805  97.260 115.856  0.00  0.00     0.087 H 
BRANCH  76  78
ATOM     78  C   GLU d   1      31.986  98.203 116.479  0.00  0.00     0.241 C 
ATOM     79  O   GLU d   1      31.412  98.891 117.325  0.00  0.00    -0.271 OA
ATOM     80  N   PHE d   1      31.337  97.474 115.574  0.00  0.00    -0.346 N 
ATOM     81  H54 PHE d   1      31.861  96.952 114.901  0.00  0.00     0.163 HD
BRANCH  80  82
ATOM     82  CA  PHE d   1      29.878  97.418 115.541  0.00  0.00     0.093 C 
ATOM     83  H55 PHE d   1      29.473  98.342 115.979  0.00  0.00     0.088 H 
BRANCH  82  84
ATOM     84  C   PHE d   1      29.403  96.216 116.351  0.00  0.00     0.241 C 
ATOM     85  O   PHE d   1      28.480  96.320 117.159  0.00  0.00    -0.271 OA
ATOM     86  N   ASP d   1      30.046  95.075 116.118  0.00  0.00    -0.344 N 
ATOM     87  H63 ASP d   1      30.786  95.070 115.445  0.00  0.00     0.163 HD
BRANCH  86  88
ATOM     88  CA  ASP d   1      29.715  93.831 116.804  0.00  0.00     0.105 C 
ATOM     89  H64 ASP d   1      28.665  93.576 116.596  0.00  0.00     0.090 H 
BRANCH  88  90
ATOM     90  C   ASP d   1      29.895  93.989 118.314  0.00  0.00     0.197 C 
ATOM     91  O   ASP d   1      30.321  95.081 118.746  0.00  0.00    -0.646 OA
ATOM     92  OXT ASP d   1      29.613  93.019 119.048  0.00  0.00    -0.646 OA
ENDBRANCH  88  90
BRANCH  88  93
ATOM     93  CB  ASP d   1      30.616  92.705 116.283  0.00  0.00     0.044 C 
ATOM     94  H65 ASP d   1      31.642  92.886 116.635  0.00  0.00     0.053 H 
ATOM     95  H66 ASP d   1      30.597  92.721 115.183  0.00  0.00     0.053 H 
BRANCH  93  96
ATOM     96  CG  ASP d   1      30.177  91.329 116.755  0.00  0.00     0.175 C 
ATOM     97  OD1 ASP d   1      30.890  90.347 116.451  0.00  0.00    -0.648 OA
ATOM     98  OD2 ASP d   1      29.124  91.226 117.419  0.00  0.00    -0.648 OA
ENDBRANCH  93  96
ENDBRANCH  88  93
ENDBRANCH  86  88
ENDBRANCH  82  84
BRANCH  82  99
ATOM     99  CB  PHE d   1      29.360  97.271 114.106  0.00  0.00    -0.014 C 
ATOM    100  H56 PHE d   1      28.261  97.251 114.137  0.00  0.00     0.043 H 
ATOM    101  H57 PHE d   1      29.733  96.319 113.701  0.00  0.00     0.043 H 
BRANCH  99 102
ATOM    102  CG  PHE d   1      29.784  98.375 113.177  0.00  0.00    -0.056 A 
ATOM    103  CD1 PHE d   1      31.028  98.341 112.555  0.00  0.00    -0.077 A 
ATOM    104  CE1 PHE d   1      31.408  99.342 111.666  0.00  0.00    -0.082 A 
ATOM    105  H58 PHE d   1      31.710  97.525 112.765  0.00  0.00     0.084 H 
ATOM    106  CZ  PHE d   1      30.539 100.392 111.391  0.00  0.00    -0.083 A 
ATOM    107  H60 PHE d   1      32.380  99.303 111.189  0.00  0.00     0.083 H 
ATOM    108  CE2 PHE d   1      29.295 100.440 112.008  0.00  0.00    -0.082 A 
ATOM    109  H62 PHE d   1      30.831 101.171 110.697  0.00  0.00     0.083 H 
ATOM    110  CD2 PHE d   1      28.923  99.433 112.898  0.00  0.00    -0.077 A 
ATOM    111  H61 PHE d   1      28.616 101.258 111.798  0.00  0.00     0.083 H 
ATOM    112  H59 PHE d   1      27.952  99.474 113.378  0.00  0.00     0.084 H 
ENDBRANCH  99 102
ENDBRANCH  82  99
ENDBRANCH  80  82
ENDBRANCH  76  78
BRANCH  76 113
ATOM    113  CB  GLU d   1      34.092  98.073 117.827  0.00  0.00    -0.029 C 
ATOM    114  H50 GLU d   1      33.638  97.211 118.337  0.00  0.00     0.037 H 
ATOM    115  H51 GLU d   1      33.834  98.996 118.367  0.00  0.00     0.037 H 
BRANCH 113 116
ATOM    116  CG  GLU d   1      35.605  97.906 117.854  0.00  0.00     0.018 C 
ATOM    117  H52 GLU d   1      36.062  98.772 117.353  0.00  0.00     0.049 H 
ATOM    118  H53 GLU d   1      35.866  96.987 117.308  0.00  0.00     0.049 H 
BRANCH 116 119
ATOM    119  CD  GLU d   1      36.166  97.809 119.261  0.00  0.00     0.172 C 
ATOM    120  OE1 GLU d   1      35.771  96.881 119.998  0.00  0.00    -0.648 OA
ATOM    121  OE2 GLU d   1      37.005  98.661 119.629  0.00  0.00    -0.648 OA
ENDBRANCH 116 119
ENDBRANCH 113 116
ENDBRANCH  76 113
ENDBRANCH  74  76
ENDBRANCH  70  72
BRANCH  70 122
ATOM    122  CB  LEU d   1      34.250 100.950 112.849  0.00  0.00    -0.035 C 
ATOM    123  H39 LEU d   1      33.236 100.706 113.200  0.00  0.00     0.037 H 
ATOM    124  H40 LEU d   1      34.479 100.360 111.949  0.00  0.00     0.037 H 
BRANCH 122 125
ATOM    125  CG  LEU d   1      34.231 102.419 112.424  0.00  0.00    -0.059 C 
ATOM    126  H41 LEU d   1      35.249 102.729 112.145  0.00  0.00     0.038 H 
BRANCH 125 127
ATOM    127  CD1 LEU d   1      33.308 102.591 111.220  0.00  0.00    -0.073 C 
ATOM    128  H42 LEU d   1      33.295 103.648 110.916  0.00  0.00     0.028 H 
ATOM    129  H43 LEU d   1      32.290 102.275 111.491  0.00  0.00     0.028 H 
ATOM    130  H44 LEU d   1      33.674 101.974 110.386  0.00  0.00     0.028 H 
ENDBRANCH 125 127
BRANCH 125 131
ATOM    131  CD2 LEU d   1      33.747 103.281 113.590  0.00  0.00    -0.073 C 
ATOM    132  H45 LEU d   1      34.421 103.147 114.449  0.00  0.00     0.028 H 
ATOM    133  H46 LEU d   1      32.728 102.978 113.872  0.00  0.00     0.028 H 
ATOM    134  H47 LEU d   1      33.744 104.339 113.288  0.00  0.00     0.028 H 
ENDBRANCH 125 131
ENDBRANCH 122 125
ENDBRANCH  70 122
ENDBRANCH  68  70
ENDBRANCH   1  66
BRANCH   1 135
ATOM    135  CB  GLU d   1      38.940  97.975 113.161  0.00  0.00    -0.029 C 
ATOM    136  H33 GLU d   1      38.022  97.666 112.640  0.00  0.00     0.037 H 
ATOM    137  H34 GLU d   1      39.004  97.457 114.129  0.00  0.00     0.037 H 
BRANCH 135 138
ATOM    138  CG  GLU d   1      40.132  97.555 112.315  0.00  0.00     0.018 C 
ATOM    139  H35 GLU d   1      40.179  96.456 112.293  0.00  0.00     0.049 H 
ATOM    140  H36 GLU d   1      41.048  97.952 112.776  0.00  0.00     0.049 H 
BRANCH 138 141
ATOM    141  CD  GLU d   1      40.045  98.066 110.887  0.00  0.00     0.172 C 
ATOM    142  OE1 GLU d   1      41.099  98.146 110.222  0.00  0.00    -0.648 OA
ATOM    143  OE2 GLU d   1      38.924  98.376 110.426  0.00  0.00    -0.648 OA
ENDBRANCH 138 141
ENDBRANCH 135 138
ENDBRANCH   1 135
TORSDOF 43
