REMARK  8 active torsions:
REMARK  status: ('A' for Active; 'I' for Inactive)
REMARK    1  A    between atoms: C9_3  and  C10_1 
REMARK    2  A    between atoms: N1_13  and  C9_3 
REMARK    3  A    between atoms: C5_5  and  C6_6 
REMARK    4  A    between atoms: C6_6  and  C7_10 
REMARK    5  A    between atoms: C3_7  and  O1_15 
REMARK    6  A    between atoms: C2_8  and  C1_9 
REMARK    7  A    between atoms: O1_15  and  C2_8 
REMARK    8  A    between atoms: C14_19  and  O5_24 
ROOT
ATOM      1  C4  322 d   1     -44.783-115.945 -42.618  0.00  0.00    -0.041 A 
ATOM      2  C5  322 d   1     -45.004-115.644 -41.230  0.00  0.00    -0.035 A 
ATOM      3  C3  322 d   1     -45.367-117.099 -43.237  0.00  0.00     0.103 A 
ATOM      4 BR1  322 d   1     -46.104-116.208 -38.598  0.00  0.00    -0.049 Br
ATOM      5 BR2  322 d   1     -47.542-118.821 -40.081  0.00  0.00    -0.046 Br
ATOM      6  C12 322 d   1     -45.814-116.537 -40.467  0.00  0.00     0.037 A 
ATOM      7  C13 322 d   1     -46.412-117.663 -41.079  0.00  0.00     0.064 A 
ATOM      8  C14 322 d   1     -46.189-117.935 -42.452  0.00  0.00     0.117 A 
ATOM      9  H3  322 d   1     -44.160-115.284 -43.211  0.00  0.00     0.088 H 
ENDROOT
BRANCH   2  10
ATOM     10  C6  322 d   1     -44.411-114.383 -40.595  0.00  0.00    -0.019 C 
ATOM     11  H4  322 d   1     -44.260-114.614 -39.530  0.00  0.00     0.042 H 
ATOM     12  H5  322 d   1     -45.174-113.597 -40.695  0.00  0.00     0.042 H 
BRANCH  10  13
ATOM     13  C7  322 d   1     -43.115-113.783 -41.089  0.00  0.00     0.079 A 
ATOM     14  S1  322 d   1     -42.988-113.404 -42.841  0.00  0.00    -0.085 SA
ATOM     15  C8  322 d   1     -42.498-111.759 -42.585  0.00  0.00     0.144 A 
ATOM     16  N1  322 d   1     -42.474-111.470 -41.223  0.00  0.00    -0.292 N 
ATOM     17  S2  322 d   1     -42.132-110.756 -43.870  0.00  0.00    -0.052 SA
ATOM     18  C11 322 d   1     -42.810-112.514 -40.355  0.00  0.00     0.240 A 
ATOM     19  O4  322 d   1     -42.849-112.457 -39.131  0.00  0.00    -0.272 OA
ATOM     20  H11 322 d   1     -42.328-114.516 -40.860  0.00  0.00     0.072 H 
BRANCH  16  21
ATOM     21  C9  322 d   1     -42.107-110.143 -40.667  0.00  0.00     0.084 C 
ATOM     22  H1  322 d   1     -41.621-110.284 -39.690  0.00  0.00     0.081 H 
ATOM     23  H2  322 d   1     -41.409-109.644 -41.356  0.00  0.00     0.081 H 
BRANCH  21  24
ATOM     24  C10 322 d   1     -43.333-109.275 -40.490  0.00  0.00     0.192 C 
ATOM     25  O2  322 d   1     -44.448-109.486 -40.957  0.00  0.00    -0.647 OA
ATOM     26  O3  322 d   1     -43.027-108.201 -39.720  0.00  0.00    -0.647 OA
ENDBRANCH  21  24
ENDBRANCH  16  21
ENDBRANCH  10  13
ENDBRANCH   2  10
BRANCH   3  27
ATOM     27  O1  322 d   1     -45.223-117.513 -44.584  0.00  0.00    -0.349 OA
BRANCH  27  28
ATOM     28  C2  322 d   1     -44.408-116.738 -45.478  0.00  0.00     0.023 C 
ATOM     29  H6  322 d   1     -44.807-115.716 -45.561  0.00  0.00     0.074 H 
ATOM     30  H7  322 d   1     -43.374-116.699 -45.106  0.00  0.00     0.074 H 
BRANCH  28  31
ATOM     31  C1  322 d   1     -44.447-117.421 -46.831  0.00  0.00    -0.056 C 
ATOM     32  H8  322 d   1     -43.832-116.854 -47.546  0.00  0.00     0.030 H 
ATOM     33  H9  322 d   1     -45.485-117.461 -47.192  0.00  0.00     0.030 H 
ATOM     34  H10 322 d   1     -44.052-118.443 -46.737  0.00  0.00     0.030 H 
ENDBRANCH  28  31
ENDBRANCH  27  28
ENDBRANCH   3  27
BRANCH   8  35
ATOM     35  O5  322 d   1     -46.784-119.041 -43.041  0.00  0.00    -0.357 OA
ATOM     36  H12 322 d   1     -46.537-119.082 -43.957  0.00  0.00     0.218 HD
ENDBRANCH   8  35
TORSDOF 8
