REMARK  0 active torsions:
REMARK  status: ('A' for Active; 'I' for Inactive)
ROOT
ATOM      1  O4  D1V d   1      52.853  49.522  24.068  0.00  0.00    -0.171 OA
ATOM      2  C3  D1V d   1      53.775  48.759  24.812  0.00  0.00     0.193 A 
ATOM      3  C4  D1V d   1      53.031  47.970  25.796  0.00  0.00     0.045 A 
ATOM      4  C1  D1V d   1      53.697  47.073  26.711  0.00  0.00     0.049 A 
ATOM      5  N1  D1V d   1      55.089  46.937  26.665  0.00  0.00    -0.332 N 
ATOM      6  C2  D1V d   1      55.684  47.713  25.756  0.00  0.00     0.178 A 
ATOM      7  S1  D1V d   1      57.319  47.483  25.865  0.00  0.00    -0.040 SA
ATOM      8  N2  D1V d   1      55.148  48.582  24.837  0.00  0.00    -0.311 N 
ATOM      9  C8  D1V d   1      52.874  46.384  27.585  0.00  0.00    -0.056 A 
ATOM     10  C7  D1V d   1      51.424  46.535  27.657  0.00  0.00    -0.081 A 
ATOM     11  C6  D1V d   1      50.802  47.453  26.746  0.00  0.00    -0.082 A 
ATOM     12  C5  D1V d   1      51.635  48.126  25.758  0.00  0.00    -0.067 A 
ATOM     13  H1  D1V d   1      55.594  46.313  27.261  0.00  0.00     0.168 HD
ATOM     14  H2  D1V d   1      55.738  49.077  24.199  0.00  0.00     0.170 HD
ATOM     15  H3  D1V d   1      53.340  45.681  28.266  0.00  0.00     0.086 H 
ATOM     16  H4  D1V d   1      50.837  45.973  28.374  0.00  0.00     0.083 H 
ATOM     17  H5  D1V d   1      49.736  47.642  26.792  0.00  0.00     0.083 H 
ATOM     18  H6  D1V d   1      51.179  48.746  24.995  0.00  0.00     0.085 H 
ENDROOT
TORSDOF 0
