REMARK  16 active torsions:
REMARK  status: ('A' for Active; 'I' for Inactive)
REMARK    1  A    between atoms: C2_2  and  N1_1 
REMARK    2  A    between atoms: S8_8  and  C5_5 
REMARK    3  A    between atoms: N11_11  and  S8_8 
REMARK    4  A    between atoms: N11_11  and  C12_12 
REMARK    5  A    between atoms: C16_16  and  N11_11 
REMARK    6  A    between atoms: C12_12  and  C13_13 
REMARK    7  A    between atoms: C13_13  and  C14_14 
REMARK    8  A    between atoms: C13_13  and  C15_15 
REMARK    9  A    between atoms: C17_17  and  C16_16 
REMARK   10  A    between atoms: C17_17  and  O18_18 
REMARK   11  A    between atoms: C19_19  and  C17_17 
REMARK   12  A    between atoms: C19_19  and  N20_20 
REMARK   13  A    between atoms: C32_32  and  C19_19 
REMARK       I    between atoms: N20_20  and  C21_21 
REMARK   14  A    between atoms: C21_21  and  O23_23 
REMARK   15  A    between atoms: O23_23  and  C24_24 
REMARK   16  A    between atoms: C38_38  and  C32_32 
ROOT
ATOM      1  C19 017 d   1      14.102  20.331  17.211  0.00  0.00     0.044 C 
ATOM      2  H20 017 d   1      13.206  20.883  16.890  0.00  0.00     0.077 H 
ENDROOT
BRANCH   1   3
ATOM      3  C17 017 d   1      13.693  19.204  18.170  0.00  0.00     0.071 C 
ATOM      4  H18 017 d   1      13.339  19.673  19.100  0.00  0.00     0.088 H 
BRANCH   3   5
ATOM      5  C16 017 d   1      12.573  18.280  17.649  0.00  0.00     0.031 C 
ATOM      6  H16 017 d   1      12.847  17.943  16.639  0.00  0.00     0.069 H 
ATOM      7  H17 017 d   1      12.504  17.411  18.320  0.00  0.00     0.069 H 
BRANCH   5   8
ATOM      8  N11 017 d   1      11.253  18.910  17.579  0.00  0.00    -0.304 N 
BRANCH   8   9
ATOM      9  S8  017 d   1      10.625  19.335  16.084  0.00  0.00     0.260 S 
ATOM     10  O9  017 d   1      11.730  19.568  15.200  0.00  0.00    -0.200 OA
ATOM     11  O10 017 d   1       9.679  20.379  16.319  0.00  0.00    -0.200 OA
BRANCH   9  12
ATOM     12  C5  017 d   1       9.736  17.948  15.407  0.00  0.00     0.079 A 
ATOM     13  C4  017 d   1      10.497  17.022  14.693  0.00  0.00    -0.058 A 
ATOM     14  C3  017 d   1       9.976  15.836  14.290  0.00  0.00    -0.056 A 
ATOM     15  H4  017 d   1      11.528  17.256  14.455  0.00  0.00     0.086 H 
ATOM     16  C2  017 d   1       8.644  15.545  14.602  0.00  0.00     0.025 A 
ATOM     17  H3  017 d   1      10.581  15.127  13.736  0.00  0.00     0.086 H 
ATOM     18  C7  017 d   1       7.832  16.459  15.326  0.00  0.00    -0.056 A 
ATOM     19  C6  017 d   1       8.422  17.688  15.725  0.00  0.00    -0.058 A 
ATOM     20  H6  017 d   1       6.800  16.227  15.565  0.00  0.00     0.086 H 
ATOM     21  H5  017 d   1       7.840  18.418  16.277  0.00  0.00     0.086 H 
BRANCH  16  22
ATOM     22  N1  017 d   1       8.116  14.349  14.196  0.00  0.00    -0.399 N 
ATOM     23  H1  017 d   1       8.698  13.681  13.671  0.00  0.00     0.156 HD
ATOM     24  H2  017 d   1       7.137  14.117  14.416  0.00  0.00     0.156 HD
ENDBRANCH  16  22
ENDBRANCH   9  12
ENDBRANCH   8   9
BRANCH   8  25
ATOM     25  C12 017 d   1      10.302  18.656  18.658  0.00  0.00     0.008 C 
ATOM     26  H7  017 d   1      10.227  17.567  18.795  0.00  0.00     0.066 H 
ATOM     27  H8  017 d   1       9.324  19.055  18.349  0.00  0.00     0.066 H 
BRANCH  25  28
ATOM     28  C13 017 d   1      10.661  19.280  20.012  0.00  0.00    -0.045 C 
ATOM     29  H9  017 d   1      11.675  18.942  20.273  0.00  0.00     0.041 H 
BRANCH  28  30
ATOM     30  C14 017 d   1      10.697  20.802  19.945  0.00  0.00    -0.072 C 
ATOM     31  H10 017 d   1      10.957  21.206  20.934  0.00  0.00     0.028 H 
ATOM     32  H11 017 d   1       9.709  21.179  19.643  0.00  0.00     0.028 H 
ATOM     33  H12 017 d   1      11.451  21.119  19.209  0.00  0.00     0.028 H 
ENDBRANCH  28  30
BRANCH  28  34
ATOM     34  C15 017 d   1       9.714  18.775  21.101  0.00  0.00    -0.072 C 
ATOM     35  H13 017 d   1       9.721  17.675  21.112  0.00  0.00     0.028 H 
ATOM     36  H14 017 d   1       8.694  19.133  20.895  0.00  0.00     0.028 H 
ATOM     37  H15 017 d   1      10.045  19.153  22.079  0.00  0.00     0.028 H 
ENDBRANCH  28  34
ENDBRANCH  25  28
ENDBRANCH   8  25
ENDBRANCH   5   8
ENDBRANCH   3   5
BRANCH   3  38
ATOM     38  O18 017 d   1      14.819  18.394  18.462  0.00  0.00    -0.392 OA
ATOM     39  H19 017 d   1      15.100  17.947  17.672  0.00  0.00     0.210 HD
ENDBRANCH   3  38
ENDBRANCH   1   3
BRANCH   1  40
ATOM     40  N20 017 d   1      15.010  21.206  17.961  0.00  0.00    -0.329 N 
ATOM     41  C21 017 d   1      14.635  22.489  18.255  0.00  0.00     0.361 C 
ATOM     42  O22 017 d   1      13.579  23.051  17.921  0.00  0.00    -0.238 OA
ATOM     43  H21 017 d   1      15.902  20.865  18.257  0.00  0.00     0.165 HD
BRANCH  41  44
ATOM     44  O23 017 d   1      15.607  23.083  18.985  0.00  0.00    -0.296 OA
BRANCH  44  45
ATOM     45  C24 017 d   1      15.549  24.504  19.232  0.00  0.00     0.078 C 
ATOM     46  C25 017 d   1      16.219  24.741  20.593  0.00  0.00     0.048 C 
ATOM     47  O26 017 d   1      17.619  24.670  20.301  0.00  0.00    -0.358 OA
ATOM     48  H23 017 d   1      15.929  23.962  21.314  0.00  0.00     0.078 H 
ATOM     49  H24 017 d   1      15.952  25.730  20.994  0.00  0.00     0.078 H 
ATOM     50  C27 017 d   1      17.864  25.211  18.993  0.00  0.00     0.137 C 
ATOM     51  O28 017 d   1      18.691  24.304  18.294  0.00  0.00    -0.361 OA
ATOM     52  C31 017 d   1      16.492  25.286  18.251  0.00  0.00     0.023 C 
ATOM     53  H25 017 d   1      18.334  26.204  19.057  0.00  0.00     0.129 H 
ATOM     54  C29 017 d   1      17.969  23.742  17.201  0.00  0.00     0.023 C 
ATOM     55  C30 017 d   1      16.776  24.620  16.927  0.00  0.00    -0.035 C 
ATOM     56  H26 017 d   1      17.633  22.727  17.459  0.00  0.00     0.074 H 
ATOM     57  H27 017 d   1      18.613  23.700  16.311  0.00  0.00     0.074 H 
ATOM     58  H28 017 d   1      15.915  24.017  16.601  0.00  0.00     0.037 H 
ATOM     59  H29 017 d   1      17.012  25.369  16.157  0.00  0.00     0.037 H 
ATOM     60  H30 017 d   1      16.131  26.314  18.097  0.00  0.00     0.051 H 
ATOM     61  H22 017 d   1      14.514  24.873  19.192  0.00  0.00     0.088 H 
ENDBRANCH  44  45
ENDBRANCH  41  44
ENDBRANCH   1  40
BRANCH   1  62
ATOM     62  C32 017 d   1      14.875  19.827  15.952  0.00  0.00    -0.020 C 
ATOM     63  H31 017 d   1      14.234  19.135  15.387  0.00  0.00     0.043 H 
ATOM     64  H32 017 d   1      15.787  19.302  16.273  0.00  0.00     0.043 H 
BRANCH  62  65
ATOM     65  C38 017 d   1      15.256  20.985  15.065  0.00  0.00    -0.056 A 
ATOM     66  C33 017 d   1      16.590  21.350  14.881  0.00  0.00    -0.077 A 
ATOM     67  C34 017 d   1      16.982  22.416  14.069  0.00  0.00    -0.082 A 
ATOM     68  H33 017 d   1      17.357  20.780  15.392  0.00  0.00     0.084 H 
ATOM     69  C35 017 d   1      15.983  23.123  13.432  0.00  0.00    -0.083 A 
ATOM     70  H34 017 d   1      18.027  22.677  13.944  0.00  0.00     0.083 H 
ATOM     71  C36 017 d   1      14.670  22.792  13.589  0.00  0.00    -0.082 A 
ATOM     72  H35 017 d   1      16.247  23.958  12.794  0.00  0.00     0.083 H 
ATOM     73  C37 017 d   1      14.285  21.748  14.386  0.00  0.00    -0.077 A 
ATOM     74  H36 017 d   1      13.913  23.369  13.070  0.00  0.00     0.083 H 
ATOM     75  H37 017 d   1      13.233  21.508  14.495  0.00  0.00     0.084 H 
ENDBRANCH  62  65
ENDBRANCH   1  62
TORSDOF 16
