REMARK WARNING: 32 MAX_TORS EXCEEDED!!!
REMARK  43 active torsions:
REMARK  status: ('A' for Active; 'I' for Inactive)
REMARK    1  A    between atoms: N_1  and  CA_2 
REMARK    2  A    between atoms: CA_2  and  C_3 
REMARK    3  A    between atoms: CA_2  and  CB_5 
REMARK       I    between atoms: C_3  and  N_8 
REMARK    4  A    between atoms: CB_5  and  CG1_6 
REMARK    5  A    between atoms: CB_5  and  CG2_7 
REMARK    6  A    between atoms: N_8  and  CA_9 
REMARK    7  A    between atoms: CA_9  and  C_10 
REMARK    8  A    between atoms: CA_9  and  CB_12 
REMARK       I    between atoms: C_10  and  N_16 
REMARK    9  A    between atoms: CB_12  and  CG_13 
REMARK   10  A    between atoms: CG_13  and  CD1_14 
REMARK   11  A    between atoms: CG_13  and  CD2_15 
REMARK   12  A    between atoms: N_16  and  CA_17 
REMARK   13  A    between atoms: CA_17  and  C_18 
REMARK   14  A    between atoms: CA_17  and  CB_20 
REMARK       I    between atoms: C_18  and  N_26 
REMARK   15  A    between atoms: CB_20  and  CG_21 
REMARK   16  A    between atoms: N_26  and  CA_27 
REMARK   17  A    between atoms: CA_27  and  C_28 
REMARK   18  A    between atoms: CA_27  and  CB_30 
REMARK       I    between atoms: C_28  and  N_34 
REMARK   19  A    between atoms: CB_30  and  CG_31 
REMARK   20  A    between atoms: N_34  and  CA_35 
REMARK   21  A    between atoms: CA_35  and  C_36 
REMARK   22  A    between atoms: CA_35  and  CB_38 
REMARK       I    between atoms: C_36  and  N_42 
REMARK   23  A    between atoms: CB_38  and  CG_39 
REMARK   24  A    between atoms: N_42  and  CA_43 
REMARK   25  A    between atoms: CA_43  and  C_44 
REMARK   26  A    between atoms: CA_43  and  CB_46 
REMARK       I    between atoms: C_44  and  N_50 
REMARK   27  A    between atoms: CB_46  and  CG_47 
REMARK   28  A    between atoms: CG_47  and  CD1_48 
REMARK   29  A    between atoms: CG_47  and  CD2_49 
REMARK   30  A    between atoms: N_50  and  CA_51 
REMARK   31  A    between atoms: CA_51  and  C_52 
REMARK   32  A    between atoms: CA_51  and  CB_54 
REMARK       I    between atoms: C_52  and  N_58 
REMARK   33  A    between atoms: CB_54  and  CG_55 
REMARK   34  A    between atoms: CG_55  and  CD1_56 
REMARK   35  A    between atoms: CG_55  and  CD2_57 
REMARK   36  A    between atoms: N_58  and  CA_59 
REMARK   37  A    between atoms: CA_59  and  C_60 
REMARK   38  A    between atoms: CA_59  and  CB_62 
REMARK       I    between atoms: C_60  and  N_67 
REMARK   39  A    between atoms: CB_62  and  CG_63 
REMARK   40  A    between atoms: CG_63  and  CD_64 
REMARK   41  A    between atoms: N_67  and  CA_68 
REMARK   42  A    between atoms: CA_68  and  C_69 
REMARK   43  A    between atoms: CA_68  and  CB_71 
ROOT
ATOM      1  CA  ASP d   1      52.695  17.303  39.152  0.00  0.00     0.098 C 
ATOM      2  H35 ASP d   1      52.947  17.775  38.191  0.00  0.00     0.088 H 
ENDROOT
BRANCH   1   3
ATOM      3  N   ASP d   1      52.410  15.874  38.934  0.00  0.00    -0.345 N 
ATOM      4  C   ASP d   1      51.693  15.463  37.900  0.00  0.00     0.241 C 
ATOM      5  O   ASP d   1      51.351  16.241  36.990  0.00  0.00    -0.271 OA
ATOM      6  H34 ASP d   1      52.766  15.200  39.581  0.00  0.00     0.163 HD
BRANCH   4   7
ATOM      7  CA  ASP d   1      51.268  14.015  37.758  0.00  0.00     0.098 C 
ATOM      8  H31 ASP d   1      51.447  13.735  36.709  0.00  0.00     0.088 H 
BRANCH   7   9
ATOM      9  N   ASP d   1      51.939  13.022  38.582  0.00  0.00    -0.345 N 
ATOM     10  C   HIS d   1      53.127  12.549  38.152  0.00  0.00     0.241 C 
ATOM     11  O   HIS d   1      53.712  13.083  37.206  0.00  0.00    -0.271 OA
ATOM     12  H30 ASP d   1      51.534  12.701  39.438  0.00  0.00     0.163 HD
BRANCH  10  13
ATOM     13  CA  HIS d   1      53.711  11.373  38.894  0.00  0.00     0.094 C 
ATOM     14  H24 HIS d   1      52.876  10.740  39.230  0.00  0.00     0.088 H 
BRANCH  13  15
ATOM     15  N   HIS d   1      54.586  10.574  37.984  0.00  0.00    -0.346 N 
ATOM     16  C   LEU d   1      54.048   9.981  36.910  0.00  0.00     0.241 C 
ATOM     17  O   LEU d   1      52.833   9.850  36.708  0.00  0.00    -0.271 OA
ATOM     18  H23 HIS d   1      55.563  10.483  38.175  0.00  0.00     0.163 HD
BRANCH  16  19
ATOM     19  CA  LEU d   1      55.075   9.479  35.898  0.00  0.00     0.089 C 
ATOM     20  H13 LEU d   1      55.969   9.127  36.434  0.00  0.00     0.087 H 
BRANCH  19  21
ATOM     21  N   LEU d   1      54.560   8.392  35.082  0.00  0.00    -0.346 N 
ATOM     22  C   VAL d   1      54.317   7.182  35.569  0.00  0.00     0.249 C 
ATOM     23  O   VAL d   1      54.500   6.854  36.746  0.00  0.00    -0.271 OA
ATOM     24  H12 LEU d   1      54.381   8.563  34.113  0.00  0.00     0.163 HD
BRANCH  22  25
ATOM     25  CA  VAL d   1      53.744   6.196  34.546  0.00  0.00     0.178 C 
ATOM     26  H4  VAL d   1      54.192   6.398  33.562  0.00  0.00     0.099 H 
BRANCH  25  27
ATOM     27  N   VAL d   1      54.100   4.835  34.917  0.00  0.00    -0.066 N 
ATOM     28  H1  VAL d   1      55.104   4.749  34.956  0.00  0.00     0.275 HD
ATOM     29  H2  VAL d   1      53.734   4.193  34.231  0.00  0.00     0.275 HD
ATOM     30  H3  VAL d   1      53.709   4.620  35.821  0.00  0.00     0.275 HD
ENDBRANCH  25  27
BRANCH  25  31
ATOM     31  CB  VAL d   1      52.237   6.472  34.448  0.00  0.00    -0.025 C 
ATOM     32  H5  VAL d   1      52.096   7.537  34.211  0.00  0.00     0.042 H 
BRANCH  31  33
ATOM     33  CG1 VAL d   1      51.634   5.654  33.293  0.00  0.00    -0.071 C 
ATOM     34  H6  VAL d   1      50.554   5.854  33.226  0.00  0.00     0.028 H 
ATOM     35  H7  VAL d   1      51.797   4.582  33.479  0.00  0.00     0.028 H 
ATOM     36  H8  VAL d   1      52.119   5.941  32.348  0.00  0.00     0.028 H 
ENDBRANCH  31  33
BRANCH  31  37
ATOM     37  CG2 VAL d   1      51.572   6.210  35.778  0.00  0.00    -0.071 C 
ATOM     38  H9  VAL d   1      52.050   6.825  36.555  0.00  0.00     0.028 H 
ATOM     39  H10 VAL d   1      51.676   5.146  36.037  0.00  0.00     0.028 H 
ATOM     40  H11 VAL d   1      50.505   6.468  35.712  0.00  0.00     0.028 H 
ENDBRANCH  31  37
ENDBRANCH  25  31
ENDBRANCH  22  25
ENDBRANCH  19  21
BRANCH  19  41
ATOM     41  CB  LEU d   1      55.448  10.671  34.983  0.00  0.00    -0.035 C 
ATOM     42  H14 LEU d   1      55.660  11.532  35.634  0.00  0.00     0.037 H 
ATOM     43  H15 LEU d   1      54.571  10.892  34.356  0.00  0.00     0.037 H 
BRANCH  41  44
ATOM     44  CG  LEU d   1      56.637  10.499  34.056  0.00  0.00    -0.059 C 
ATOM     45  H16 LEU d   1      56.510   9.537  33.537  0.00  0.00     0.038 H 
BRANCH  44  46
ATOM     46  CD1 LEU d   1      56.668  11.632  33.012  0.00  0.00    -0.073 C 
ATOM     47  H17 LEU d   1      57.534  11.495  32.348  0.00  0.00     0.028 H 
ATOM     48  H18 LEU d   1      56.750  12.601  33.525  0.00  0.00     0.028 H 
ATOM     49  H19 LEU d   1      55.743  11.608  32.418  0.00  0.00     0.028 H 
ENDBRANCH  44  46
BRANCH  44  50
ATOM     50  CD2 LEU d   1      58.003  10.489  34.734  0.00  0.00    -0.073 C 
ATOM     51  H20 LEU d   1      58.030   9.692  35.492  0.00  0.00     0.028 H 
ATOM     52  H21 LEU d   1      58.180  11.461  35.217  0.00  0.00     0.028 H 
ATOM     53  H22 LEU d   1      58.784  10.306  33.982  0.00  0.00     0.028 H 
ENDBRANCH  44  50
ENDBRANCH  41  44
ENDBRANCH  19  41
ENDBRANCH  16  19
ENDBRANCH  13  15
BRANCH  13  54
ATOM     54  CB  HIS d   1      54.527  11.769  40.118  0.00  0.00     0.004 C 
ATOM     55  H25 HIS d   1      55.364  12.396  39.776  0.00  0.00     0.046 H 
ATOM     56  H26 HIS d   1      54.921  10.848  40.572  0.00  0.00     0.046 H 
BRANCH  54  57
ATOM     57  CG  HIS d   1      53.788  12.529  41.185  0.00  0.00     0.053 A 
ATOM     58  ND1 HIS d   1      52.599  12.113  41.738  0.00  0.00    -0.247 NA
ATOM     59  CE1 HIS d   1      52.180  13.008  42.650  0.00  0.00     0.064 A 
ATOM     60  NE2 HIS d   1      53.073  13.992  42.686  0.00  0.00    -0.359 N 
ATOM     61  H28 HIS d   1      51.274  12.939  43.250  0.00  0.00     0.143 H 
ATOM     62  CD2 HIS d   1      54.081  13.728  41.775  0.00  0.00     0.002 A 
ATOM     63  H29 HIS d   1      53.023  14.820  43.296  0.00  0.00     0.166 HD
ATOM     64  H27 HIS d   1      54.945  14.357  41.567  0.00  0.00     0.114 H 
ENDBRANCH  54  57
ENDBRANCH  13  54
ENDBRANCH  10  13
ENDBRANCH   7   9
BRANCH   7  65
ATOM     65  CB  ASP d   1      49.762  13.908  38.048  0.00  0.00     0.043 C 
ATOM     66  H32 ASP d   1      49.446  12.866  37.893  0.00  0.00     0.052 H 
ATOM     67  H33 ASP d   1      49.221  14.564  37.350  0.00  0.00     0.052 H 
BRANCH  65  68
ATOM     68  CG  ASP d   1      49.413  14.318  39.476  0.00  0.00     0.175 C 
ATOM     69  OD1 ASP d   1      50.325  14.570  40.303  0.00  0.00    -0.648 OA
ATOM     70  OD2 ASP d   1      48.176  14.395  39.741  0.00  0.00    -0.648 OA
ENDBRANCH  65  68
ENDBRANCH   7  65
ENDBRANCH   4   7
ENDBRANCH   1   3
BRANCH   1  71
ATOM     71  C   ASP d   1      53.875  17.446  40.101  0.00  0.00     0.241 C 
ATOM     72  O   ASP d   1      53.882  16.822  41.173  0.00  0.00    -0.271 OA
ATOM     73  N   LEU d   1      54.883  18.252  39.800  0.00  0.00    -0.346 N 
ATOM     74  H38 LEU d   1      54.922  18.670  38.892  0.00  0.00     0.163 HD
BRANCH  73  75
ATOM     75  CA  LEU d   1      55.932  18.541  40.760  0.00  0.00     0.089 C 
ATOM     76  H39 LEU d   1      55.794  17.875  41.625  0.00  0.00     0.087 H 
BRANCH  75  77
ATOM     77  C   LEU d   1      55.875  20.001  41.239  0.00  0.00     0.241 C 
ATOM     78  O   LEU d   1      55.948  20.881  40.353  0.00  0.00    -0.271 OA
ATOM     79  N   LEU d   1      55.792  20.202  42.549  0.00  0.00    -0.346 N 
ATOM     80  H49 LEU d   1      55.723  19.415  43.162  0.00  0.00     0.163 HD
BRANCH  79  81
ATOM     81  CA  LEU d   1      55.799  21.560  43.116  0.00  0.00     0.089 C 
ATOM     82  H50 LEU d   1      55.169  22.211  42.492  0.00  0.00     0.087 H 
BRANCH  81  83
ATOM     83  C   LEU d   1      57.238  22.079  43.080  0.00  0.00     0.241 C 
ATOM     84  O   LEU d   1      58.223  21.363  43.305  0.00  0.00    -0.271 OA
ATOM     85  N   GLU d   1      57.371  23.356  42.804  0.00  0.00    -0.346 N 
ATOM     86  H60 GLU d   1      56.551  23.893  42.603  0.00  0.00     0.163 HD
BRANCH  85  87
ATOM     87  CA  GLU d   1      58.655  24.014  42.780  0.00  0.00     0.090 C 
ATOM     88  H61 GLU d   1      59.318  23.465  42.095  0.00  0.00     0.087 H 
BRANCH  87  89
ATOM     89  C   GLU d   1      59.310  24.051  44.171  0.00  0.00     0.241 C 
ATOM     90  O   GLU d   1      58.586  24.195  45.175  0.00  0.00    -0.271 OA
ATOM     91  N   ALA d   1      60.633  23.947  44.177  0.00  0.00    -0.345 N 
ATOM     92  H66 ALA d   1      61.094  23.806  43.301  0.00  0.00     0.163 HD
BRANCH  91  93
ATOM     93  CA  ALA d   1      61.456  24.024  45.370  0.00  0.00     0.093 C 
ATOM     94  H67 ALA d   1      61.005  23.360  46.122  0.00  0.00     0.089 H 
BRANCH  93  95
ATOM     95  C   ALA d   1      61.551  25.418  45.983  0.00  0.00     0.196 C 
ATOM     96  O   ALA d   1      61.984  25.529  47.153  0.00  0.00    -0.646 OA
ATOM     97  OXT ALA d   1      61.197  26.435  45.336  0.00  0.00    -0.646 OA
ENDBRANCH  93  95
BRANCH  93  98
ATOM     98  CB  ALA d   1      62.883  23.522  45.066  0.00  0.00    -0.048 C 
ATOM     99  H68 ALA d   1      63.496  23.585  45.977  0.00  0.00     0.030 H 
ATOM    100  H69 ALA d   1      63.331  24.146  44.279  0.00  0.00     0.030 H 
ATOM    101  H70 ALA d   1      62.839  22.477  44.726  0.00  0.00     0.030 H 
ENDBRANCH  93  98
ENDBRANCH  91  93
ENDBRANCH  87  89
BRANCH  87 102
ATOM    102  CB  GLU d   1      58.473  25.464  42.260  0.00  0.00    -0.029 C 
ATOM    103  H62 GLU d   1      59.427  26.004  42.355  0.00  0.00     0.037 H 
ATOM    104  H63 GLU d   1      57.704  25.970  42.862  0.00  0.00     0.037 H 
BRANCH 102 105
ATOM    105  CG  GLU d   1      58.038  25.462  40.782  0.00  0.00     0.018 C 
ATOM    106  H64 GLU d   1      57.230  24.724  40.668  0.00  0.00     0.049 H 
ATOM    107  H65 GLU d   1      58.903  25.155  40.175  0.00  0.00     0.049 H 
BRANCH 105 108
ATOM    108  CD  GLU d   1      57.535  26.793  40.240  0.00  0.00     0.172 C 
ATOM    109  OE1 GLU d   1      57.519  27.824  40.944  0.00  0.00    -0.648 OA
ATOM    110  OE2 GLU d   1      57.132  26.871  39.063  0.00  0.00    -0.648 OA
ENDBRANCH 105 108
ENDBRANCH 102 105
ENDBRANCH  87 102
ENDBRANCH  85  87
ENDBRANCH  81  83
BRANCH  81 111
ATOM    111  CB  LEU d   1      55.243  21.572  44.534  0.00  0.00    -0.035 C 
ATOM    112  H51 LEU d   1      55.980  21.044  45.157  0.00  0.00     0.037 H 
ATOM    113  H52 LEU d   1      54.309  20.992  44.502  0.00  0.00     0.037 H 
BRANCH 111 114
ATOM    114  CG  LEU d   1      54.915  22.864  45.269  0.00  0.00    -0.059 C 
ATOM    115  H53 LEU d   1      55.796  23.519  45.199  0.00  0.00     0.038 H 
BRANCH 114 116
ATOM    116  CD1 LEU d   1      53.739  23.594  44.651  0.00  0.00    -0.073 C 
ATOM    117  H54 LEU d   1      53.543  24.517  45.216  0.00  0.00     0.028 H 
ATOM    118  H55 LEU d   1      52.849  22.948  44.683  0.00  0.00     0.028 H 
ATOM    119  H56 LEU d   1      53.972  23.846  43.606  0.00  0.00     0.028 H 
ENDBRANCH 114 116
BRANCH 114 120
ATOM    120  CD2 LEU d   1      54.628  22.603  46.764  0.00  0.00    -0.073 C 
ATOM    121  H57 LEU d   1      55.481  22.073  47.214  0.00  0.00     0.028 H 
ATOM    122  H58 LEU d   1      53.721  21.988  46.861  0.00  0.00     0.028 H 
ATOM    123  H59 LEU d   1      54.478  23.562  47.281  0.00  0.00     0.028 H 
ENDBRANCH 114 120
ENDBRANCH 111 114
ENDBRANCH  81 111
ENDBRANCH  79  81
ENDBRANCH  75  77
BRANCH  75 124
ATOM    124  CB  LEU d   1      57.332  18.310  40.176  0.00  0.00    -0.035 C 
ATOM    125  H40 LEU d   1      58.059  18.494  40.981  0.00  0.00     0.037 H 
ATOM    126  H41 LEU d   1      57.480  19.047  39.373  0.00  0.00     0.037 H 
BRANCH 124 127
ATOM    127  CG  LEU d   1      57.633  16.936  39.595  0.00  0.00    -0.059 C 
ATOM    128  H42 LEU d   1      56.903  16.737  38.797  0.00  0.00     0.038 H 
BRANCH 127 129
ATOM    129  CD1 LEU d   1      59.022  16.868  38.993  0.00  0.00    -0.073 C 
ATOM    130  H43 LEU d   1      59.197  15.861  38.586  0.00  0.00     0.028 H 
ATOM    131  H44 LEU d   1      59.770  17.084  39.770  0.00  0.00     0.028 H 
ATOM    132  H45 LEU d   1      59.108  17.610  38.185  0.00  0.00     0.028 H 
ENDBRANCH 127 129
BRANCH 127 133
ATOM    133  CD2 LEU d   1      57.484  15.844  40.677  0.00  0.00    -0.073 C 
ATOM    134  H46 LEU d   1      56.475  15.895  41.113  0.00  0.00     0.028 H 
ATOM    135  H47 LEU d   1      58.233  16.005  41.466  0.00  0.00     0.028 H 
ATOM    136  H48 LEU d   1      57.638  14.854  40.222  0.00  0.00     0.028 H 
ENDBRANCH 127 133
ENDBRANCH 124 127
ENDBRANCH  75 124
ENDBRANCH  73  75
ENDBRANCH   1  71
BRANCH   1 137
ATOM    137  CB  ASP d   1      51.442  17.987  39.737  0.00  0.00     0.043 C 
ATOM    138  H36 ASP d   1      51.264  17.557  40.734  0.00  0.00     0.052 H 
ATOM    139  H37 ASP d   1      50.595  17.748  39.077  0.00  0.00     0.052 H 
BRANCH 137 140
ATOM    140  CG  ASP d   1      51.490  19.472  39.889  0.00  0.00     0.175 C 
ATOM    141  OD1 ASP d   1      52.331  20.083  39.194  0.00  0.00    -0.648 OA
ATOM    142  OD2 ASP d   1      50.702  20.052  40.683  0.00  0.00    -0.648 OA
ENDBRANCH 137 140
ENDBRANCH   1 137
TORSDOF 43
