REMARK  5 active torsions:
REMARK  status: ('A' for Active; 'I' for Inactive)
REMARK    1  A    between atoms: O2_1  and  C10_2 
REMARK    2  A    between atoms: C05_3  and  O1_4 
REMARK    3  A    between atoms: C01_8  and  C02_9 
REMARK    4  A    between atoms: C08_13  and  C11_14 
REMARK    5  A    between atoms: C11_14  and  C12_15 
ROOT
ATOM      1  C02 W29 d   1      -4.131  13.311   8.596  0.00  0.00     0.021 A 
ATOM      2  S   W29 d   1      -4.499  11.953   7.587  0.00  0.00    -0.101 SA
ATOM      3  C07 W29 d   1      -6.225  12.126   7.658  0.00  0.00    -0.044 A 
ATOM      4  C09 W29 d   1      -6.518  13.235   8.459  0.00  0.00    -0.069 A 
ATOM      5  C08 W29 d   1      -5.422  13.934   9.006  0.00  0.00    -0.040 A 
ATOM      6  H6  W29 d   1      -6.953  11.483   7.165  0.00  0.00     0.095 H 
ATOM      7  H7  W29 d   1      -7.544  13.544   8.651  0.00  0.00     0.085 H 
ENDROOT
BRANCH   1   8
ATOM      8  C01 W29 d   1      -2.690  13.618   8.864  0.00  0.00    -0.016 A 
ATOM      9  C03 W29 d   1      -1.772  13.585   7.818  0.00  0.00    -0.037 A 
ATOM     10  C05 W29 d   1      -0.430  13.876   8.050  0.00  0.00     0.099 A 
ATOM     11  H3  W29 d   1      -2.103  13.331   6.818  0.00  0.00     0.089 H 
ATOM     12  C10 W29 d   1       0.010  14.198   9.321  0.00  0.00     0.098 A 
ATOM     13  C06 W29 d   1      -0.901  14.236  10.380  0.00  0.00    -0.047 A 
ATOM     14  C04 W29 d   1      -2.248  13.945  10.149  0.00  0.00    -0.069 A 
ATOM     15  H4  W29 d   1      -0.564  14.491  11.378  0.00  0.00     0.087 H 
ATOM     16  H5  W29 d   1      -2.954  13.973  10.971  0.00  0.00     0.085 H 
BRANCH  10  17
ATOM     17  O1  W29 d   1       0.459  13.844   7.027  0.00  0.00    -0.358 OA
ATOM     18  H2  W29 d   1       0.008  13.609   6.224  0.00  0.00     0.217 HD
ENDBRANCH  10  17
BRANCH  12  19
ATOM     19  O2  W29 d   1       1.333  14.475   9.517  0.00  0.00    -0.358 OA
ATOM     20  H1  W29 d   1       1.481  14.677  10.434  0.00  0.00     0.217 HD
ENDBRANCH  12  19
ENDBRANCH   1   8
BRANCH   5  21
ATOM     21  C11 W29 d   1      -5.544  15.153   9.890  0.00  0.00    -0.043 C 
ATOM     22  H8  W29 d   1      -6.472  15.692   9.650  0.00  0.00     0.039 H 
ATOM     23  H9  W29 d   1      -4.682  15.816   9.726  0.00  0.00     0.039 H 
BRANCH  21  24
ATOM     24  C12 W29 d   1      -5.574  14.708  11.330  0.00  0.00    -0.073 C 
ATOM     25  H10 W29 d   1      -5.663  15.588  11.984  0.00  0.00     0.028 H 
ATOM     26  H11 W29 d   1      -4.645  14.168  11.566  0.00  0.00     0.028 H 
ATOM     27  H12 W29 d   1      -6.436  14.043  11.491  0.00  0.00     0.028 H 
ENDBRANCH  21  24
ENDBRANCH   5  21
TORSDOF 5
