REMARK  7 active torsions:
REMARK  status: ('A' for Active; 'I' for Inactive)
REMARK    1  A    between atoms: C13_8  and  C14_12 
REMARK    2  A    between atoms: N23_15  and  C20_22 
REMARK    3  A    between atoms: C17_16  and  C21_17 
REMARK    4  A    between atoms: C21_17  and  C19_18 
REMARK    5  A    between atoms: C21_17  and  C18_19 
REMARK    6  A    between atoms: C15_20  and  O27_21 
REMARK    7  A    between atoms: C20_22  and  C11_23 
ROOT
ATOM      1  C14 B34 d   1      93.582   8.243  52.688  0.00  0.00     0.093 A 
ATOM      2  C16 B34 d   1      93.116   9.513  52.070  0.00  0.00     0.259 A 
ATOM      3  O24 B34 d   1      92.817  10.532  52.676  0.00  0.00    -0.267 OA
ATOM      4  N23 B34 d   1      93.076   9.300  50.695  0.00  0.00    -0.333 N 
ATOM      5  C17 B34 d   1      93.519   7.959  50.314  0.00  0.00     0.065 A 
ATOM      6  C15 B34 d   1      93.801   7.394  51.679  0.00  0.00     0.084 A 
ATOM      7  H5  B34 d   1      92.715   7.398  49.816  0.00  0.00     0.084 H 
ENDROOT
BRANCH   1   8
ATOM      8  C13 B34 d   1      93.837   7.902  54.100  0.00  0.00     0.100 A 
ATOM      9  N22 B34 d   1      94.608   6.890  54.401  0.00  0.00    -0.158 NA
ATOM     10  S28 B34 d   1      94.771   6.718  56.033  0.00  0.00     0.284 S 
ATOM     11  O26 B34 d   1      94.090   5.546  56.545  0.00  0.00    -0.198 OA
ATOM     12  O25 B34 d   1      96.129   7.044  56.417  0.00  0.00    -0.198 OA
ATOM     13  C12 B34 d   1      93.762   8.076  56.424  0.00  0.00     0.094 A 
ATOM     14  C9  B34 d   1      93.445   8.525  57.688  0.00  0.00    -0.059 A 
ATOM     15  C10 B34 d   1      93.296   8.663  55.249  0.00  0.00     0.018 A 
ATOM     16  C5  B34 d   1      92.608   9.644  57.771  0.00  0.00    -0.081 A 
ATOM     17  H1  B34 d   1      93.826   8.034  58.576  0.00  0.00     0.085 H 
ATOM     18  C2  B34 d   1      92.122  10.263  56.600  0.00  0.00    -0.082 A 
ATOM     19  H2  B34 d   1      92.331  10.038  58.742  0.00  0.00     0.083 H 
ATOM     20  C6  B34 d   1      92.463   9.774  55.330  0.00  0.00    -0.069 A 
ATOM     21  H4  B34 d   1      91.476  11.129  56.683  0.00  0.00     0.083 H 
ATOM     22  H3  B34 d   1      92.086  10.251  54.433  0.00  0.00     0.085 H 
ENDBRANCH   1   8
BRANCH   6  23
ATOM     23  O27 B34 d   1      94.245   6.107  51.849  0.00  0.00    -0.362 OA
ATOM     24  H13 B34 d   1      94.365   5.934  52.775  0.00  0.00     0.217 HD
ENDBRANCH   6  23
BRANCH   4  25
ATOM     25  C20 B34 d   1      92.656  10.312  49.739  0.00  0.00     0.022 C 
ATOM     26  H14 B34 d   1      93.296  10.237  48.847  0.00  0.00     0.071 H 
ATOM     27  H15 B34 d   1      92.783  11.303  50.200  0.00  0.00     0.071 H 
BRANCH  25  28
ATOM     28  C11 B34 d   1      91.223  10.165  49.312  0.00  0.00    -0.040 A 
ATOM     29  C7  B34 d   1      90.879  10.427  47.983  0.00  0.00    -0.075 A 
ATOM     30  C3  B34 d   1      89.548  10.296  47.570  0.00  0.00    -0.082 A 
ATOM     31  H16 B34 d   1      91.641  10.731  47.274  0.00  0.00     0.084 H 
ATOM     32  C1  B34 d   1      88.572   9.898  48.490  0.00  0.00    -0.083 A 
ATOM     33  H17 B34 d   1      89.275  10.502  46.541  0.00  0.00     0.083 H 
ATOM     34  C4  B34 d   1      88.924   9.630  49.820  0.00  0.00    -0.082 A 
ATOM     35  H20 B34 d   1      87.540   9.797  48.173  0.00  0.00     0.083 H 
ATOM     36  C8  B34 d   1      90.252   9.768  50.236  0.00  0.00    -0.075 A 
ATOM     37  H19 B34 d   1      88.165   9.315  50.528  0.00  0.00     0.083 H 
ATOM     38  H18 B34 d   1      90.526   9.569  51.266  0.00  0.00     0.084 H 
ENDBRANCH  25  28
ENDBRANCH   4  25
BRANCH   5  39
ATOM     39  C21 B34 d   1      94.742   7.996  49.377  0.00  0.00    -0.035 C 
ATOM     40  H6  B34 d   1      94.432   8.551  48.480  0.00  0.00     0.042 H 
BRANCH  39  41
ATOM     41  C19 B34 d   1      95.182   6.605  48.927  0.00  0.00    -0.071 C 
ATOM     42  H7  B34 d   1      96.055   6.693  48.263  0.00  0.00     0.028 H 
ATOM     43  H8  B34 d   1      94.358   6.117  48.386  0.00  0.00     0.028 H 
ATOM     44  H9  B34 d   1      95.450   6.003  49.807  0.00  0.00     0.028 H 
ENDBRANCH  39  41
BRANCH  39  45
ATOM     45  C18 B34 d   1      95.953   8.728  49.970  0.00  0.00    -0.071 C 
ATOM     46  H10 B34 d   1      95.649   9.733  50.299  0.00  0.00     0.028 H 
ATOM     47  H11 B34 d   1      96.740   8.814  49.206  0.00  0.00     0.028 H 
ATOM     48  H12 B34 d   1      96.338   8.162  50.831  0.00  0.00     0.028 H 
ENDBRANCH  39  45
ENDBRANCH   5  39
TORSDOF 7
