REMARK  2 active torsions:
REMARK  status: ('A' for Active; 'I' for Inactive)
REMARK    1  A    between atoms: CAJ_11  and  CAC_12 
REMARK    2  A    between atoms: CAK_17  and  OAL_18 
ROOT
ATOM      1  FAT 1FL d   1       0.451  40.517   7.595  0.00  0.00    -0.205 F 
ATOM      2  CAN 1FL d   1       0.498  41.685   8.442  0.00  0.00     0.130 A 
ATOM      3  CAM 1FL d   1       0.012  41.523   9.689  0.00  0.00    -0.008 A 
ATOM      4  CAF 1FL d   1       0.076  42.540  10.658  0.00  0.00     0.119 A 
ATOM      5  FAE 1FL d   1      -0.406  42.358  11.912  0.00  0.00    -0.206 F 
ATOM      6  CAG 1FL d   1       0.636  43.739  10.363  0.00  0.00    -0.045 A 
ATOM      7  CAH 1FL d   1       1.097  43.933   9.144  0.00  0.00    -0.066 A 
ATOM      8  CAO 1FL d   1       1.075  42.921   8.066  0.00  0.00     0.013 A 
ATOM      9  CAP 1FL d   1       1.580  43.202   6.764  0.00  0.00    -0.022 A 
ATOM     10  CAI 1FL d   1       0.820  42.912   5.528  0.00  0.00    -0.053 A 
ATOM     11  CAJ 1FL d   1       1.261  43.080   4.311  0.00  0.00     0.074 A 
ATOM     12  CAQ 1FL d   1       2.835  43.713   6.543  0.00  0.00    -0.070 A 
ATOM     13  CAR 1FL d   1       3.273  43.949   5.330  0.00  0.00    -0.049 A 
ATOM     14  CAK 1FL d   1       2.556  43.653   4.250  0.00  0.00     0.082 A 
ATOM     15  H1  1FL d   1      -0.444  40.576   9.954  0.00  0.00     0.093 H 
ATOM     16  H2  1FL d   1       0.703  44.520  11.112  0.00  0.00     0.088 H 
ATOM     17  H3  1FL d   1       1.523  44.903   8.915  0.00  0.00     0.085 H 
ATOM     18  H4  1FL d   1      -0.187  42.528   5.643  0.00  0.00     0.086 H 
ATOM     19  H5  1FL d   1       3.478  43.926   7.390  0.00  0.00     0.085 H 
ATOM     20  H6  1FL d   1       4.251  44.400   5.204  0.00  0.00     0.087 H 
ENDROOT
BRANCH  11  21
ATOM     21  CAC 1FL d   1       0.315  42.697   3.102  0.00  0.00     0.212 C 
ATOM     22  OAD 1FL d   1      -1.088  42.528   3.341  0.00  0.00    -0.644 OA
ATOM     23  OAB 1FL d   1       0.696  42.551   2.058  0.00  0.00    -0.644 OA
ENDBRANCH  11  21
BRANCH  14  24
ATOM     24  OAL 1FL d   1       3.140  43.936   2.971  0.00  0.00    -0.360 OA
ATOM     25  H7  1FL d   1       2.535  43.682   2.284  0.00  0.00     0.217 HD
ENDBRANCH  14  24
TORSDOF 2
