REMARK WARNING: 32 MAX_TORS EXCEEDED!!!
REMARK  50 active torsions:
REMARK  status: ('A' for Active; 'I' for Inactive)
REMARK    1  A    between atoms: CA_2  and  N_1 
REMARK    2  A    between atoms: CA_2  and  CB_5 
REMARK    3  A    between atoms: C_3  and  CA_2 
REMARK       I    between atoms: N_9  and  C_3 
REMARK    4  A    between atoms: CB_5  and  CG_6 
REMARK    5  A    between atoms: CA_10  and  N_9 
REMARK    6  A    between atoms: CA_10  and  CB_13 
REMARK    7  A    between atoms: C_11  and  CA_10 
REMARK       I    between atoms: N_14  and  C_11 
REMARK    8  A    between atoms: CA_15  and  N_14 
REMARK    9  A    between atoms: CA_15  and  CB_18 
REMARK   10  A    between atoms: C_16  and  CA_15 
REMARK       I    between atoms: N_21  and  C_16 
REMARK   11  A    between atoms: CB_18  and  CG2_20 
REMARK   12  A    between atoms: CB_18  and  OG1_19 
REMARK   13  A    between atoms: CA_22  and  N_21 
REMARK   14  A    between atoms: CA_22  and  CB_25 
REMARK   15  A    between atoms: C_23  and  CA_22 
REMARK       I    between atoms: N_33  and  C_23 
REMARK   16  A    between atoms: CB_25  and  CG_26 
REMARK   17  A    between atoms: CZ_31  and  OH_32 
REMARK   18  A    between atoms: CA_34  and  N_33 
REMARK   19  A    between atoms: CA_34  and  CB_37 
REMARK   20  A    between atoms: C_35  and  CA_34 
REMARK       I    between atoms: N_40  and  C_35 
REMARK   21  A    between atoms: CB_37  and  CG2_39 
REMARK   22  A    between atoms: CB_37  and  OG1_38 
REMARK   23  A    between atoms: CA_41  and  N_40 
REMARK   24  A    between atoms: CA_41  and  CB_44 
REMARK   25  A    between atoms: C_42  and  CA_41 
REMARK       I    between atoms: N_54  and  C_42 
REMARK   26  A    between atoms: CB_44  and  CG_45 
REMARK   27  A    between atoms: CA_55  and  N_54 
REMARK   28  A    between atoms: CA_55  and  CB_58 
REMARK   29  A    between atoms: C_56  and  CA_55 
REMARK       I    between atoms: N_63  and  C_56 
REMARK   30  A    between atoms: CB_58  and  CG_59 
REMARK   31  A    between atoms: CG_59  and  CD_60 
REMARK   32  A    between atoms: CA_64  and  N_63 
REMARK   33  A    between atoms: CA_64  and  CB_67 
REMARK   34  A    between atoms: C_65  and  CA_64 
REMARK       I    between atoms: N_73  and  C_65 
REMARK   35  A    between atoms: CB_67  and  CG_68 
REMARK   36  A    between atoms: CA_74  and  N_73 
REMARK   37  A    between atoms: CA_74  and  CB_77 
REMARK   38  A    between atoms: C_75  and  CA_74 
REMARK       I    between atoms: N_81  and  C_75 
REMARK   39  A    between atoms: CB_77  and  CG_78 
REMARK   40  A    between atoms: CG_78  and  CD1_79 
REMARK   41  A    between atoms: CG_78  and  CD2_80 
REMARK   42  A    between atoms: CA_82  and  N_81 
REMARK   43  A    between atoms: CA_82  and  CB_85 
REMARK   44  A    between atoms: C_83  and  CA_82 
REMARK       I    between atoms: N_86  and  C_83 
REMARK   45  A    between atoms: CA_87  and  N_86 
REMARK   46  A    between atoms: CA_87  and  CB_90 
REMARK   47  A    between atoms: C_88  and  CA_87 
REMARK       I    between atoms: C_88  and  N_100 
REMARK   48  A    between atoms: CB_90  and  CG_91 
REMARK   49  A    between atoms: CA_101  and  C_102 
REMARK   50  A    between atoms: C_102  and  O1_107 
ROOT
ATOM      1  C   TRP d   1      42.921  19.332  33.533  0.00  0.00     0.241 C 
ATOM      2  O   TRP d   1      41.884  18.666  33.558  0.00  0.00    -0.271 OA
ATOM      3  N   GLU d   1      43.769  19.310  32.507  0.00  0.00    -0.346 N 
ATOM      4  H45 GLU d   1      44.605  19.857  32.561  0.00  0.00     0.163 HD
ENDROOT
BRANCH   3   5
ATOM      5  CA  GLU d   1      43.523  18.515  31.303  0.00  0.00     0.090 C 
ATOM      6  H46 GLU d   1      42.527  18.797  30.932  0.00  0.00     0.087 H 
BRANCH   5   7
ATOM      7  CB  GLU d   1      44.544  18.924  30.237  0.00  0.00    -0.029 C 
ATOM      8  H47 GLU d   1      44.559  18.148  29.458  0.00  0.00     0.037 H 
ATOM      9  H48 GLU d   1      45.534  18.985  30.713  0.00  0.00     0.037 H 
BRANCH   7  10
ATOM     10  CG  GLU d   1      44.248  20.268  29.570  0.00  0.00     0.018 C 
ATOM     11  H49 GLU d   1      43.299  20.178  29.022  0.00  0.00     0.049 H 
ATOM     12  H50 GLU d   1      45.061  20.486  28.862  0.00  0.00     0.049 H 
BRANCH  10  13
ATOM     13  CD  GLU d   1      44.130  21.443  30.536  0.00  0.00     0.172 C 
ATOM     14  OE2 GLU d   1      43.092  22.149  30.509  0.00  0.00    -0.648 OA
ATOM     15  OE1 GLU d   1      45.069  21.676  31.321  0.00  0.00    -0.648 OA
ENDBRANCH  10  13
ENDBRANCH   7  10
ENDBRANCH   5   7
BRANCH   5  16
ATOM     16  C   GLU d   1      43.483  16.990  31.521  0.00  0.00     0.241 C 
ATOM     17  O   GLU d   1      42.934  16.258  30.689  0.00  0.00    -0.271 OA
ATOM     18  N   HIS d   1      44.018  16.507  32.642  0.00  0.00    -0.346 N 
ATOM     19  H51 HIS d   1      44.477  17.133  33.273  0.00  0.00     0.163 HD
BRANCH  18  20
ATOM     20  CA  HIS d   1      43.950  15.085  32.972  0.00  0.00     0.094 C 
ATOM     21  H52 HIS d   1      44.162  14.500  32.065  0.00  0.00     0.088 H 
BRANCH  20  22
ATOM     22  CB  HIS d   1      44.953  14.715  34.067  0.00  0.00     0.002 C 
ATOM     23  H53 HIS d   1      44.656  13.743  34.489  0.00  0.00     0.046 H 
ATOM     24  H54 HIS d   1      44.904  15.485  34.851  0.00  0.00     0.046 H 
BRANCH  22  25
ATOM     25  CG  HIS d   1      46.369  14.609  33.608  0.00  0.00     0.030 A 
ATOM     26  ND1 HIS d   1      47.297  15.600  33.840  0.00  0.00    -0.353 N 
ATOM     27  CE1 HIS d   1      48.466  15.228  33.348  0.00  0.00     0.063 A 
ATOM     28  H55 HIS d   1      47.109  16.491  34.321  0.00  0.00     0.166 HD
ATOM     29  NE2 HIS d   1      48.335  14.016  32.839  0.00  0.00    -0.254 NA
ATOM     30  H57 HIS d   1      49.380  15.819  33.360  0.00  0.00     0.143 H 
ATOM     31  CD2 HIS d   1      47.036  13.604  32.993  0.00  0.00     0.025 A 
ATOM     32  H56 HIS d   1      46.619  12.648  32.679  0.00  0.00     0.117 H 
ENDBRANCH  22  25
ENDBRANCH  20  22
BRANCH  20  33
ATOM     33  C   HIS d   1      42.569  14.724  33.507  0.00  0.00     0.241 C 
ATOM     34  O   HIS d   1      42.289  13.540  33.672  0.00  0.00    -0.271 OA
ATOM     35  N   LEU d   1      41.716  15.708  33.784  0.00  0.00    -0.346 N 
ATOM     36  H58 LEU d   1      41.957  16.644  33.528  0.00  0.00     0.163 HD
BRANCH  35  37
ATOM     37  CA  LEU d   1      40.437  15.463  34.451  0.00  0.00     0.089 C 
ATOM     38  H59 LEU d   1      40.530  14.520  35.010  0.00  0.00     0.087 H 
BRANCH  37  39
ATOM     39  CB  LEU d   1      40.150  16.591  35.449  0.00  0.00    -0.035 C 
ATOM     40  H60 LEU d   1      39.305  16.271  36.077  0.00  0.00     0.037 H 
ATOM     41  H61 LEU d   1      39.860  17.480  34.870  0.00  0.00     0.037 H 
BRANCH  39  42
ATOM     42  CG  LEU d   1      41.291  17.003  36.386  0.00  0.00    -0.059 C 
ATOM     43  H62 LEU d   1      42.099  17.432  35.775  0.00  0.00     0.038 H 
BRANCH  42  44
ATOM     44  CD1 LEU d   1      40.794  18.080  37.350  0.00  0.00    -0.073 C 
ATOM     45  H63 LEU d   1      41.612  18.376  38.023  0.00  0.00     0.028 H 
ATOM     46  H64 LEU d   1      39.957  17.683  37.943  0.00  0.00     0.028 H 
ATOM     47  H65 LEU d   1      40.455  18.956  36.778  0.00  0.00     0.028 H 
ENDBRANCH  42  44
BRANCH  42  48
ATOM     48  CD2 LEU d   1      41.867  15.803  37.150  0.00  0.00    -0.073 C 
ATOM     49  H66 LEU d   1      42.216  15.045  36.433  0.00  0.00     0.028 H 
ATOM     50  H67 LEU d   1      41.087  15.368  37.792  0.00  0.00     0.028 H 
ATOM     51  H68 LEU d   1      42.711  16.135  37.772  0.00  0.00     0.028 H 
ENDBRANCH  42  48
ENDBRANCH  39  42
ENDBRANCH  37  39
BRANCH  37  52
ATOM     52  C   LEU d   1      39.254  15.317  33.490  0.00  0.00     0.241 C 
ATOM     53  O   LEU d   1      38.120  15.121  33.936  0.00  0.00    -0.271 OA
ATOM     54  N   ALA d   1      39.512  15.418  32.189  0.00  0.00    -0.346 N 
ATOM     55  H69 ALA d   1      40.463  15.406  31.880  0.00  0.00     0.163 HD
BRANCH  54  56
ATOM     56  CA  ALA d   1      38.450  15.545  31.202  0.00  0.00     0.086 C 
ATOM     57  H70 ALA d   1      37.841  16.421  31.468  0.00  0.00     0.086 H 
BRANCH  56  58
ATOM     58  CB  ALA d   1      39.079  15.780  29.840  0.00  0.00    -0.049 C 
ATOM     59  H71 ALA d   1      38.287  15.878  29.083  0.00  0.00     0.030 H 
ATOM     60  H72 ALA d   1      39.728  14.930  29.584  0.00  0.00     0.030 H 
ATOM     61  H73 ALA d   1      39.677  16.703  29.867  0.00  0.00     0.030 H 
ENDBRANCH  56  58
BRANCH  56  62
ATOM     62  C   ALA d   1      37.526  14.337  31.138  0.00  0.00     0.240 C 
ATOM     63  O   ALA d   1      37.986  13.212  30.969  0.00  0.00    -0.271 OA
ATOM     64  N   TRP d   1      36.223  14.582  31.211  0.00  0.00    -0.346 N 
ATOM     65  H74 TRP d   1      35.901  15.490  31.480  0.00  0.00     0.163 HD
BRANCH  64  66
ATOM     66  CA  TRP d   1      35.256  13.530  30.900  0.00  0.00     0.093 C 
ATOM     67  H75 TRP d   1      35.423  12.674  31.570  0.00  0.00     0.088 H 
BRANCH  66  68
ATOM     68  CB  TRP d   1      33.819  14.039  31.097  0.00  0.00    -0.012 C 
ATOM     69  H76 TRP d   1      33.571  14.741  30.287  0.00  0.00     0.044 H 
ATOM     70  H77 TRP d   1      33.750  14.557  32.065  0.00  0.00     0.044 H 
BRANCH  68  71
ATOM     71  CG  TRP d   1      32.852  12.914  31.078  0.00  0.00    -0.028 A 
ATOM     72  CD1 TRP d   1      32.012  12.558  30.060  0.00  0.00    -0.015 A 
ATOM     73  NE1 TRP d   1      31.319  11.421  30.404  0.00  0.00    -0.365 N 
ATOM     74  H78 TRP d   1      31.907  13.094  29.118  0.00  0.00     0.112 H 
ATOM     75  CE2 TRP d   1      31.707  11.017  31.656  0.00  0.00     0.042 A 
ATOM     76  H79 TRP d   1      30.619  10.948  29.815  0.00  0.00     0.165 HD
ATOM     77  CD2 TRP d   1      32.679  11.933  32.106  0.00  0.00    -0.002 A 
ATOM     78  CZ2 TRP d   1      31.285   9.927  32.433  0.00  0.00    -0.056 A 
ATOM     79  CE3 TRP d   1      33.255  11.747  33.370  0.00  0.00    -0.070 A 
ATOM     80  CZ3 TRP d   1      32.834  10.673  34.140  0.00  0.00    -0.082 A 
ATOM     81  H80 TRP d   1      34.014  12.428  33.738  0.00  0.00     0.084 H 
ATOM     82  CH2 TRP d   1      31.867   9.768  33.663  0.00  0.00    -0.081 A 
ATOM     83  H82 TRP d   1      33.257  10.528  35.127  0.00  0.00     0.083 H 
ATOM     84  H83 TRP d   1      31.577   8.927  34.282  0.00  0.00     0.083 H 
ATOM     85  H81 TRP d   1      30.529   9.238  32.074  0.00  0.00     0.086 H 
ENDBRANCH  68  71
ENDBRANCH  66  68
BRANCH  66  86
ATOM     86  C   TRP d   1      35.480  13.086  29.447  0.00  0.00     0.243 C 
ATOM     87  O   TRP d   1      35.641  13.925  28.562  0.00  0.00    -0.271 OA
ATOM     88  N   PRO d   1      35.509  11.774  29.175  0.00  0.00    -0.336 N 
ATOM     89  CA  PRO d   1      35.802  11.308  27.815  0.00  0.00     0.095 C 
ATOM     90  CD  PRO d   1      35.357  10.655  30.126  0.00  0.00    -0.001 C 
ATOM     91  CB  PRO d   1      36.091   9.818  28.015  0.00  0.00    -0.035 C 
ATOM     92  H84 PRO d   1      36.686  11.825  27.412  0.00  0.00     0.089 H 
ATOM     93  CG  PRO d   1      35.299   9.437  29.228  0.00  0.00    -0.048 C 
ATOM     94  H85 PRO d   1      37.165   9.650  28.184  0.00  0.00     0.036 H 
ATOM     95  H86 PRO d   1      35.763   9.238  27.140  0.00  0.00     0.036 H 
ATOM     96  H87 PRO d   1      34.259   9.206  28.955  0.00  0.00     0.035 H 
ATOM     97  H88 PRO d   1      35.749   8.566  29.727  0.00  0.00     0.035 H 
ATOM     98  H89 PRO d   1      34.431  10.758  30.710  0.00  0.00     0.064 H 
ATOM     99  H90 PRO d   1      36.217  10.600  30.809  0.00  0.00     0.064 H 
BRANCH  89 100
ATOM    100  C   PRO d   1      34.628  11.526  26.867  0.00  0.00     0.163 C 
ATOM    101  O   PRO d   1      33.495  11.731  27.305  0.00  0.00    -0.648 OA
BRANCH 100 102
ATOM    102  O1  PRO d   1      34.829  11.495  25.553  0.00  0.00    -0.775 OA
ATOM    103  H91 PRO d   1      34.302  10.803  25.169  0.00  0.00     0.167 HD
ENDBRANCH 100 102
ENDBRANCH  89 100
ENDBRANCH  66  86
ENDBRANCH  64  66
ENDBRANCH  56  62
ENDBRANCH  54  56
ENDBRANCH  37  52
ENDBRANCH  35  37
ENDBRANCH  20  33
ENDBRANCH  18  20
ENDBRANCH   5  16
ENDBRANCH   3   5
BRANCH   1 104
ATOM    104  CA  TRP d   1      43.308  20.237  34.698  0.00  0.00     0.093 C 
ATOM    105  H36 TRP d   1      42.815  19.868  35.609  0.00  0.00     0.088 H 
BRANCH 104 106
ATOM    106  N   TRP d   1      44.744  20.230  34.921  0.00  0.00    -0.346 N 
ATOM    107  C   THR d   1      45.420  19.096  35.101  0.00  0.00     0.243 C 
ATOM    108  O   THR d   1      44.892  17.986  35.064  0.00  0.00    -0.271 OA
ATOM    109  H35 TRP d   1      45.238  21.099  34.940  0.00  0.00     0.163 HD
BRANCH 107 110
ATOM    110  CA  THR d   1      46.921  19.246  35.321  0.00  0.00     0.113 C 
ATOM    111  H29 THR d   1      47.096  19.924  36.169  0.00  0.00     0.091 H 
BRANCH 110 112
ATOM    112  N   THR d   1      47.487  17.947  35.637  0.00  0.00    -0.344 N 
ATOM    113  C   TYR d   1      48.131  17.725  36.773  0.00  0.00     0.241 C 
ATOM    114  O   TYR d   1      48.412  18.623  37.557  0.00  0.00    -0.271 OA
ATOM    115  H28 THR d   1      47.388  17.200  34.980  0.00  0.00     0.163 HD
BRANCH 113 116
ATOM    116  CA  TYR d   1      48.525  16.287  37.034  0.00  0.00     0.093 C 
ATOM    117  H20 TYR d   1      48.828  15.816  36.087  0.00  0.00     0.088 H 
BRANCH 116 118
ATOM    118  N   TYR d   1      49.636  16.245  37.968  0.00  0.00    -0.346 N 
ATOM    119  C   THR d   1      50.774  15.631  37.677  0.00  0.00     0.243 C 
ATOM    120  O   THR d   1      50.926  14.937  36.668  0.00  0.00    -0.271 OA
ATOM    121  H19 TYR d   1      49.540  16.693  38.857  0.00  0.00     0.163 HD
BRANCH 119 122
ATOM    122  CA  THR d   1      51.910  15.848  38.673  0.00  0.00     0.113 C 
ATOM    123  H13 THR d   1      51.544  16.423  39.536  0.00  0.00     0.091 H 
BRANCH 122 124
ATOM    124  N   THR d   1      52.398  14.552  39.121  0.00  0.00    -0.344 N 
ATOM    125  C   ALA d   1      51.717  13.777  39.959  0.00  0.00     0.240 C 
ATOM    126  O   ALA d   1      50.667  14.114  40.519  0.00  0.00    -0.271 OA
ATOM    127  H12 THR d   1      53.283  14.231  38.784  0.00  0.00     0.163 HD
BRANCH 125 128
ATOM    128  CA  ALA d   1      52.327  12.404  40.212  0.00  0.00     0.086 C 
ATOM    129  H8  ALA d   1      53.407  12.520  40.384  0.00  0.00     0.086 H 
BRANCH 128 130
ATOM    130  N   ALA d   1      51.724  11.784  41.385  0.00  0.00    -0.346 N 
ATOM    131  C   ASP d   1      51.742  12.320  42.601  0.00  0.00     0.249 C 
ATOM    132  O   ASP d   1      52.425  13.296  42.910  0.00  0.00    -0.271 OA
ATOM    133  H7  ALA d   1      51.269  10.901  41.268  0.00  0.00     0.163 HD
BRANCH 131 134
ATOM    134  CA  ASP d   1      50.866  11.616  43.631  0.00  0.00     0.185 C 
ATOM    135  H4  ASP d   1      50.804  10.555  43.349  0.00  0.00     0.100 H 
BRANCH 134 136
ATOM    136  N   ASP d   1      51.465  11.676  44.989  0.00  0.00    -0.066 N 
ATOM    137  H1  ASP d   1      50.862  11.203  45.643  0.00  0.00     0.275 HD
ATOM    138  H2  ASP d   1      51.572  12.639  45.267  0.00  0.00     0.275 HD
ATOM    139  H3  ASP d   1      52.367  11.227  44.978  0.00  0.00     0.275 HD
ENDBRANCH 134 136
BRANCH 134 140
ATOM    140  CB  ASP d   1      49.441  12.191  43.589  0.00  0.00     0.050 C 
ATOM    141  H5  ASP d   1      48.758  11.457  44.042  0.00  0.00     0.052 H 
ATOM    142  H6  ASP d   1      49.163  12.351  42.537  0.00  0.00     0.052 H 
BRANCH 140 143
ATOM    143  CG  ASP d   1      49.285  13.518  44.335  0.00  0.00     0.175 C 
ATOM    144  OD1 ASP d   1      50.156  13.885  45.155  0.00  0.00    -0.648 OA
ATOM    145  OD2 ASP d   1      48.236  14.162  44.128  0.00  0.00    -0.648 OA
ENDBRANCH 140 143
ENDBRANCH 134 140
ENDBRANCH 131 134
ENDBRANCH 128 130
BRANCH 128 146
ATOM    146  CB  ALA d   1      52.108  11.515  39.000  0.00  0.00    -0.049 C 
ATOM    147  H9  ALA d   1      52.563  11.983  38.115  0.00  0.00     0.030 H 
ATOM    148  H10 ALA d   1      51.029  11.384  38.831  0.00  0.00     0.030 H 
ATOM    149  H11 ALA d   1      52.573  10.534  39.176  0.00  0.00     0.030 H 
ENDBRANCH 128 146
ENDBRANCH 125 128
ENDBRANCH 122 124
BRANCH 122 150
ATOM    150  CB  THR d   1      53.042  16.624  37.980  0.00  0.00     0.060 C 
ATOM    151  H14 THR d   1      53.414  16.020  37.139  0.00  0.00     0.086 H 
BRANCH 150 152
ATOM    152  CG2 THR d   1      52.552  17.967  37.426  0.00  0.00    -0.050 C 
ATOM    153  H16 THR d   1      53.389  18.490  36.940  0.00  0.00     0.031 H 
ATOM    154  H17 THR d   1      52.163  18.584  38.250  0.00  0.00     0.031 H 
ATOM    155  H18 THR d   1      51.753  17.791  36.691  0.00  0.00     0.031 H 
ENDBRANCH 150 152
BRANCH 150 156
ATOM    156  OG1 THR d   1      54.115  16.826  38.912  0.00  0.00    -0.393 OA
ATOM    157  H15 THR d   1      54.406  15.985  39.245  0.00  0.00     0.210 HD
ENDBRANCH 150 156
ENDBRANCH 122 150
ENDBRANCH 119 122
ENDBRANCH 116 118
BRANCH 116 158
ATOM    158  CB  TYR d   1      47.336  15.530  37.617  0.00  0.00    -0.014 C 
ATOM    159  H21 TYR d   1      46.483  15.634  36.931  0.00  0.00     0.043 H 
ATOM    160  H22 TYR d   1      47.080  15.974  38.590  0.00  0.00     0.043 H 
BRANCH 158 161
ATOM    161  CG  TYR d   1      47.616  14.069  37.816  0.00  0.00    -0.056 A 
ATOM    162  CD1 TYR d   1      47.841  13.240  36.729  0.00  0.00    -0.074 A 
ATOM    163  CE1 TYR d   1      48.093  11.898  36.896  0.00  0.00    -0.051 A 
ATOM    164  H23 TYR d   1      47.818  13.656  35.728  0.00  0.00     0.084 H 
ATOM    165  CZ  TYR d   1      48.138  11.369  38.170  0.00  0.00     0.065 A 
ATOM    166  H25 TYR d   1      48.255  11.261  36.034  0.00  0.00     0.087 H 
ATOM    167  CE2 TYR d   1      47.921  12.173  39.278  0.00  0.00    -0.051 A 
ATOM    168  CD2 TYR d   1      47.672  13.521  39.098  0.00  0.00    -0.074 A 
ATOM    169  H26 TYR d   1      47.946  11.749  40.275  0.00  0.00     0.087 H 
ATOM    170  H24 TYR d   1      47.519  14.158  39.961  0.00  0.00     0.084 H 
BRANCH 165 171
ATOM    171  OH  TYR d   1      48.396  10.024  38.289  0.00  0.00    -0.361 OA
ATOM    172  H27 TYR d   1      47.664   9.600  38.722  0.00  0.00     0.217 HD
ENDBRANCH 165 171
ENDBRANCH 158 161
ENDBRANCH 116 158
ENDBRANCH 113 116
ENDBRANCH 110 112
BRANCH 110 173
ATOM    173  CB  THR d   1      47.569  19.857  34.058  0.00  0.00     0.060 C 
ATOM    174  H30 THR d   1      47.143  20.858  33.894  0.00  0.00     0.086 H 
BRANCH 173 175
ATOM    175  CG2 THR d   1      49.087  19.995  34.224  0.00  0.00    -0.050 C 
ATOM    176  H32 THR d   1      49.517  20.432  33.311  0.00  0.00     0.031 H 
ATOM    177  H33 THR d   1      49.528  19.003  34.399  0.00  0.00     0.031 H 
ATOM    178  H34 THR d   1      49.304  20.650  35.081  0.00  0.00     0.031 H 
ENDBRANCH 173 175
BRANCH 173 179
ATOM    179  OG1 THR d   1      47.271  19.034  32.920  0.00  0.00    -0.393 OA
ATOM    180  H31 THR d   1      46.329  18.955  32.826  0.00  0.00     0.210 HD
ENDBRANCH 173 179
ENDBRANCH 110 173
ENDBRANCH 107 110
ENDBRANCH 104 106
BRANCH 104 181
ATOM    181  CB  TRP d   1      42.813  21.654  34.408  0.00  0.00    -0.012 C 
ATOM    182  H37 TRP d   1      43.130  21.944  33.395  0.00  0.00     0.044 H 
ATOM    183  H38 TRP d   1      43.254  22.345  35.142  0.00  0.00     0.044 H 
BRANCH 181 184
ATOM    184  CG  TRP d   1      41.335  21.736  34.494  0.00  0.00    -0.028 A 
ATOM    185  CD1 TRP d   1      40.430  21.727  33.469  0.00  0.00    -0.015 A 
ATOM    186  NE1 TRP d   1      39.158  21.749  33.982  0.00  0.00    -0.365 N 
ATOM    187  H39 TRP d   1      40.680  21.706  32.409  0.00  0.00     0.112 H 
ATOM    188  CE2 TRP d   1      39.218  21.745  35.352  0.00  0.00     0.042 A 
ATOM    189  H40 TRP d   1      38.292  21.766  33.425  0.00  0.00     0.165 HD
ATOM    190  CD2 TRP d   1      40.582  21.738  35.707  0.00  0.00    -0.002 A 
ATOM    191  CZ2 TRP d   1      38.200  21.768  36.310  0.00  0.00    -0.056 A 
ATOM    192  CE3 TRP d   1      40.939  21.741  37.061  0.00  0.00    -0.070 A 
ATOM    193  CZ3 TRP d   1      39.933  21.753  38.015  0.00  0.00    -0.082 A 
ATOM    194  H41 TRP d   1      41.982  21.734  37.358  0.00  0.00     0.084 H 
ATOM    195  CH2 TRP d   1      38.577  21.766  37.631  0.00  0.00    -0.081 A 
ATOM    196  H43 TRP d   1      40.192  21.752  39.068  0.00  0.00     0.083 H 
ATOM    197  H44 TRP d   1      37.811  21.775  38.398  0.00  0.00     0.083 H 
ATOM    198  H42 TRP d   1      37.155  21.787  36.022  0.00  0.00     0.086 H 
ENDBRANCH 181 184
ENDBRANCH 104 181
ENDBRANCH   1 104
TORSDOF 50
