REMARK  7 active torsions:
REMARK  status: ('A' for Active; 'I' for Inactive)
REMARK       I    between atoms: C8_2  and  N5_3 
REMARK    1  A    between atoms: C8_2  and  C3_11 
REMARK    2  A    between atoms: N5_3  and  C18_4 
REMARK    3  A    between atoms: C18_4  and  C22_5 
REMARK    4  A    between atoms: N10_15  and  C17_16 
REMARK    5  A    between atoms: C17_16  and  C21_17 
REMARK    6  A    between atoms: C1_21  and  N4_22 
REMARK    7  A    between atoms: N4_22  and  C9_23 
ROOT
ATOM      1  C3  20A d   1      46.523  46.949  65.517  0.00  0.00     0.076 A 
ATOM      2  C7  20A d   1      45.264  47.101  66.063  0.00  0.00     0.022 A 
ATOM      3  N11 20A d   1      44.141  46.962  65.341  0.00  0.00    -0.240 NA
ATOM      4  C13 20A d   1      44.240  46.660  64.036  0.00  0.00     0.159 A 
ATOM      5  N10 20A d   1      43.252  46.472  63.070  0.00  0.00    -0.252 N 
ATOM      6  N12 20A d   1      43.843  46.194  61.863  0.00  0.00    -0.182 NA
ATOM      7  C2  20A d   1      45.528  46.506  63.444  0.00  0.00     0.058 A 
ATOM      8  C6  20A d   1      45.196  46.188  62.065  0.00  0.00     0.038 A 
ATOM      9  C1  20A d   1      46.706  46.619  64.166  0.00  0.00     0.061 A 
ATOM     10  H9  20A d   1      45.179  47.342  67.116  0.00  0.00     0.116 H 
ATOM     11  H15 20A d   1      45.931  45.972  61.291  0.00  0.00     0.119 H 
ENDROOT
BRANCH   1  12
ATOM     12  C8  20A d   1      47.642  47.223  66.435  0.00  0.00     0.255 C 
ATOM     13  O14 20A d   1      48.737  47.459  65.911  0.00  0.00    -0.268 OA
ATOM     14  N5  20A d   1      47.461  47.378  67.761  0.00  0.00    -0.353 N 
ATOM     15  H1  20A d   1      46.556  47.193  68.143  0.00  0.00     0.163 HD
BRANCH  14  16
ATOM     16  C18 20A d   1      48.519  47.801  68.662  0.00  0.00     0.019 C 
ATOM     17  H2  20A d   1      49.483  47.382  68.337  0.00  0.00     0.071 H 
ATOM     18  H3  20A d   1      48.300  47.465  69.686  0.00  0.00     0.071 H 
BRANCH  16  19
ATOM     19  C22 20A d   1      48.564  49.318  68.608  0.00  0.00    -0.041 A 
ATOM     20  C24 20A d   1      49.544  50.026  67.931  0.00  0.00    -0.075 A 
ATOM     21  C26 20A d   1      49.530  51.420  67.875  0.00  0.00    -0.082 A 
ATOM     22  H4  20A d   1      50.340  49.484  67.433  0.00  0.00     0.084 H 
ATOM     23  C4  20A d   1      48.533  52.068  68.486  0.00  0.00    -0.083 A 
ATOM     24  H5  20A d   1      50.307  51.963  67.350  0.00  0.00     0.083 H 
ATOM     25  C27 20A d   1      47.545  51.463  69.149  0.00  0.00    -0.082 A 
ATOM     26  H6  20A d   1      48.526  53.151  68.440  0.00  0.00     0.083 H 
ATOM     27  C25 20A d   1      47.540  50.063  69.202  0.00  0.00    -0.075 A 
ATOM     28  H7  20A d   1      46.766  52.040  69.634  0.00  0.00     0.083 H 
ATOM     29  H8  20A d   1      46.731  49.550  69.710  0.00  0.00     0.084 H 
ENDBRANCH  16  19
ENDBRANCH  14  16
ENDBRANCH   1  12
BRANCH   9  30
ATOM     30  N4  20A d   1      47.945  46.482  63.662  0.00  0.00    -0.383 N 
ATOM     31  H16 20A d   1      48.704  46.847  64.255  0.00  0.00     0.160 HD
BRANCH  30  32
ATOM     32  C9  20A d   1      48.376  45.886  62.385  0.00  0.00     0.013 C 
ATOM     33  C15 20A d   1      49.574  44.932  62.602  0.00  0.00    -0.026 C 
ATOM     34  C19 20A d   1      50.037  44.383  61.243  0.00  0.00     0.021 C 
ATOM     35  H18 20A d   1      49.267  44.098  63.250  0.00  0.00     0.039 H 
ATOM     36  H19 20A d   1      50.400  45.481  63.077  0.00  0.00     0.039 H 
ATOM     37  O23 20A d   1      50.373  45.489  60.431  0.00  0.00    -0.391 OA
ATOM     38  H20 20A d   1      49.226  43.806  60.775  0.00  0.00     0.074 H 
ATOM     39  H21 20A d   1      50.916  43.736  61.379  0.00  0.00     0.074 H 
ATOM     40  C20 20A d   1      49.304  46.337  60.025  0.00  0.00     0.021 C 
ATOM     41  C16 20A d   1      48.677  46.927  61.308  0.00  0.00    -0.026 C 
ATOM     42  H22 20A d   1      48.552  45.756  59.471  0.00  0.00     0.074 H 
ATOM     43  H23 20A d   1      49.687  47.146  59.386  0.00  0.00     0.074 H 
ATOM     44  H24 20A d   1      49.376  47.666  61.727  0.00  0.00     0.039 H 
ATOM     45  H25 20A d   1      47.735  47.426  61.035  0.00  0.00     0.039 H 
ATOM     46  H17 20A d   1      47.537  45.279  62.015  0.00  0.00     0.072 H 
ENDBRANCH  30  32
ENDBRANCH   9  30
BRANCH   5  47
ATOM     47  C17 20A d   1      41.778  46.548  63.291  0.00  0.00     0.015 C 
ATOM     48  H10 20A d   1      41.290  46.872  62.360  0.00  0.00     0.066 H 
ATOM     49  H11 20A d   1      41.570  47.278  64.087  0.00  0.00     0.066 H 
BRANCH  47  50
ATOM     50  C21 20A d   1      41.219  45.182  63.703  0.00  0.00    -0.059 C 
ATOM     51  H12 20A d   1      40.133  45.262  63.860  0.00  0.00     0.029 H 
ATOM     52  H13 20A d   1      41.701  44.855  64.636  0.00  0.00     0.029 H 
ATOM     53  H14 20A d   1      41.421  44.448  62.909  0.00  0.00     0.029 H 
ENDBRANCH  47  50
ENDBRANCH   5  47
TORSDOF 7
