REMARK  8 active torsions:
REMARK  status: ('A' for Active; 'I' for Inactive)
REMARK    1  A    between atoms: P_1  and  O5'_4 
REMARK    2  A    between atoms: O5'_4  and  C5'_5 
REMARK    3  A    between atoms: C5'_5  and  C4'_6 
REMARK    4  A    between atoms: C3'_8  and  O3'_9 
REMARK    5  A    between atoms: C2'_10  and  O2'_11 
REMARK    6  A    between atoms: C1'_12  and  N9_13 
REMARK    7  A    between atoms: N7_15  and  CM7_24 
REMARK    8  A    between atoms: C2_20  and  N2_21 
ROOT
ATOM      1  C4' 7MG d   1       7.634  10.909  25.870  0.00  0.00     0.089 C 
ATOM      2  O4' 7MG d   1       8.151  10.586  27.176  0.00  0.00    -0.353 OA
ATOM      3  C3' 7MG d   1       6.182  10.464  25.825  0.00  0.00     0.091 C 
ATOM      4  C2' 7MG d   1       5.791  10.205  27.260  0.00  0.00     0.105 C 
ATOM      5  C1' 7MG d   1       7.085  10.318  28.041  0.00  0.00     0.139 C 
ATOM      6  H4  7MG d   1       8.173  10.329  25.107  0.00  0.00     0.090 H 
ATOM      7  H5  7MG d   1       5.523  11.192  25.330  0.00  0.00     0.091 H 
ATOM      8  H7  7MG d   1       5.032  10.926  27.599  0.00  0.00     0.093 H 
ATOM      9  H9  7MG d   1       7.284   9.356  28.536  0.00  0.00     0.122 H 
ENDROOT
BRANCH   5  10
ATOM     10  N9  7MG d   1       6.929  11.325  29.059  0.00  0.00    -0.296 N 
ATOM     11  C8  7MG d   1       6.777  12.684  28.925  0.00  0.00     0.049 A 
ATOM     12  N7  7MG d   1       6.620  13.247  30.091  0.00  0.00    -0.340 N 
ATOM     13  H10 7MG d   1       6.786  13.218  27.976  0.00  0.00     0.141 H 
ATOM     14  C5  7MG d   1       6.670  12.204  30.995  0.00  0.00     0.149 A 
ATOM     15  C6  7MG d   1       6.549  12.227  32.384  0.00  0.00     0.290 A 
ATOM     16  C4  7MG d   1       6.851  11.008  30.379  0.00  0.00     0.159 A 
ATOM     17  O6  7MG d   1       6.384  13.216  33.108  0.00  0.00    -0.265 OA
ATOM     18  N1  7MG d   1       6.659  10.951  32.929  0.00  0.00    -0.154 N 
ATOM     19  C2  7MG d   1       6.852   9.777  32.240  0.00  0.00     0.680 A 
ATOM     20  H11 7MG d   1       6.591  10.881  33.924  0.00  0.00     0.187 HD
ATOM     21  N3  7MG d   1       6.950   9.759  30.910  0.00  0.00    -0.174 N 
ATOM     22  H14 7MG d   1       7.084   8.903  30.352  0.00  0.00     0.186 HD
BRANCH  12  23
ATOM     23  CM7 7MG d   1       6.507  14.671  30.429  0.00  0.00    -0.013 C 
ATOM     24  H15 7MG d   1       6.490  15.267  29.505  0.00  0.00     0.057 H 
ATOM     25  H16 7MG d   1       7.369  14.972  31.043  0.00  0.00     0.057 H 
ATOM     26  H17 7MG d   1       5.578  14.842  30.992  0.00  0.00     0.057 H 
ENDBRANCH  12  23
BRANCH  19  27
ATOM     27  N2  7MG d   1       6.929   8.655  32.995  0.00  0.00    -0.234 N 
ATOM     28  H12 7MG d   1       7.073   7.740  32.544  0.00  0.00     0.174 HD
ATOM     29  H13 7MG d   1       6.844   8.717  34.020  0.00  0.00     0.174 HD
ENDBRANCH  19  27
ENDBRANCH   5  10
BRANCH   4  30
ATOM     30  O2' 7MG d   1       5.351   8.878  27.458  0.00  0.00    -0.388 OA
ATOM     31  H8  7MG d   1       6.049   8.276  27.227  0.00  0.00     0.210 HD
ENDBRANCH   4  30
BRANCH   1  32
ATOM     32  C5' 7MG d   1       7.951  12.364  25.634  0.00  0.00     0.056 C 
ATOM     33  H2  7MG d   1       8.139  12.847  26.604  0.00  0.00     0.079 H 
ATOM     34  H3  7MG d   1       8.854  12.433  25.009  0.00  0.00     0.079 H 
BRANCH  32  35
ATOM     35  O5' 7MG d   1       6.925  13.023  25.003  0.00  0.00    -0.311 OA
BRANCH  35  36
ATOM     36  P   7MG d   1       7.027  14.583  25.219  0.00  0.00     0.240 P 
ATOM     37  OP1 7MG d   1       6.256  14.955  26.442  0.00  0.00    -0.648 OA
ATOM     38  OP2 7MG d   1       8.471  14.874  25.023  0.00  0.00    -0.648 OA
ATOM     39  H1  7MG d   1       6.550  15.048  24.463  0.00  0.00     0.164 HD
ENDBRANCH  35  36
ENDBRANCH  32  35
ENDBRANCH   1  32
BRANCH   3  40
ATOM     40  O3' 7MG d   1       6.202   9.226  25.180  0.00  0.00    -0.390 OA
ATOM     41  H6  7MG d   1       6.739   8.620  25.677  0.00  0.00     0.210 HD
ENDBRANCH   3  40
TORSDOF 8
