REMARK  14 active torsions:
REMARK  status: ('A' for Active; 'I' for Inactive)
REMARK    1  A    between atoms: C7_2  and  C6_3 
REMARK    2  A    between atoms: C5_11  and  N4_12 
REMARK    3  A    between atoms: N4_12  and  C3_13 
REMARK    4  A    between atoms: C3_13  and  C3A_14 
REMARK    5  A    between atoms: C3_13  and  C2_17 
REMARK    6  A    between atoms: C2_17  and  S1_18 
REMARK    7  A    between atoms: C2_17  and  CG2_21 
REMARK    8  A    between atoms: C2_17  and  CG1_22 
REMARK    9  A    between atoms: CG1_22  and  OAV_23 
REMARK   10  A    between atoms: OAV_23  and  CAX_24 
REMARK   11  A    between atoms: CAX_24  and  CAS_26 
REMARK   12  A    between atoms: CAS_26  and  CAY_27 
REMARK   13  A    between atoms: CAZ_31  and  OAH_32 
REMARK   14  A    between atoms: CBA_33  and  OAI_34 
ROOT
ATOM      1  C2  LN1 d   1      36.801  61.175   0.295  0.00  0.00     0.110 C 
ENDROOT
BRANCH   1   2
ATOM      2  C3  LN1 d   1      36.656  62.102   1.505  0.00  0.00     0.117 C 
ATOM      3  H68 LN1 d   1      36.788  63.139   1.162  0.00  0.00     0.092 H 
BRANCH   2   4
ATOM      4  N4  LN1 d   1      35.309  61.967   2.075  0.00  0.00    -0.359 N 
ATOM      5  H67 LN1 d   1      34.680  61.219   1.750  0.00  0.00     0.162 HD
BRANCH   4   6
ATOM      6  C5  LN1 d   1      34.908  62.822   3.018  0.00  0.00     0.122 A 
ATOM      7  C6  LN1 d   1      34.424  62.376   4.247  0.00  0.00     0.048 A 
ATOM      8  C9  LN1 d   1      34.004  63.377   5.024  0.00  0.00    -0.040 A 
ATOM      9  CG  LN1 d   1      34.173  64.529   4.375  0.00  0.00     0.041 A 
ATOM     10  H62 LN1 d   1      33.590  63.270   6.026  0.00  0.00     0.088 H 
ATOM     11  CD1 LN1 d   1      33.908  65.850   4.730  0.00  0.00    -0.057 A 
ATOM     12  ND2 LN1 d   1      34.712  64.204   3.124  0.00  0.00    -0.308 N 
ATOM     13  CE1 LN1 d   1      34.182  66.867   3.816  0.00  0.00    -0.080 A 
ATOM     14  H63 LN1 d   1      33.492  66.085   5.709  0.00  0.00     0.086 H 
ATOM     15  CZ  LN1 d   1      34.706  66.549   2.566  0.00  0.00    -0.067 A 
ATOM     16  H64 LN1 d   1      33.987  67.906   4.079  0.00  0.00     0.083 H 
ATOM     17  CE2 LN1 d   1      34.971  65.231   2.204  0.00  0.00    -0.013 A 
ATOM     18  H65 LN1 d   1      34.913  67.348   1.856  0.00  0.00     0.085 H 
ATOM     19  H66 LN1 d   1      35.374  65.000   1.219  0.00  0.00     0.112 H 
BRANCH   7  20
ATOM     20  C7  LN1 d   1      34.188  60.908   4.601  0.00  0.00     0.122 C 
ATOM     21  O8  LN1 d   1      34.424  59.926   3.891  0.00  0.00    -0.301 OA
ATOM     22  H61 LN1 d   1      33.767  60.707   5.585  0.00  0.00     0.151 H 
ENDBRANCH   7  20
ENDBRANCH   4   6
ENDBRANCH   2   4
BRANCH   2  23
ATOM     23  C3A LN1 d   1      37.718  61.814   2.569  0.00  0.00     0.198 C 
ATOM     24  O3A LN1 d   1      37.507  60.879   3.366  0.00  0.00    -0.646 OA
ATOM     25  O3B LN1 d   1      38.743  62.529   2.551  0.00  0.00    -0.646 OA
ENDBRANCH   2  23
ENDBRANCH   1   2
BRANCH   1  26
ATOM     26  S1  LN1 d   1      35.366  61.426  -0.812  0.00  0.00     0.150 S 
ATOM     27  O12 LN1 d   1      35.636  60.811  -2.080  0.00  0.00    -0.230 OA
ATOM     28  O13 LN1 d   1      35.304  62.914  -0.998  0.00  0.00    -0.230 OA
ATOM     29  H69 LN1 d   1      34.516  61.062  -0.411  0.00  0.00     0.172 HD
ENDBRANCH   1  26
BRANCH   1  30
ATOM     30  CG2 LN1 d   1      36.841  59.700   0.708  0.00  0.00    -0.052 C 
ATOM     31  H70 LN1 d   1      37.699  59.529   1.375  0.00  0.00     0.029 H 
ATOM     32  H71 LN1 d   1      36.943  59.071  -0.189  0.00  0.00     0.029 H 
ATOM     33  H72 LN1 d   1      35.910  59.441   1.234  0.00  0.00     0.029 H 
ENDBRANCH   1  30
BRANCH   1  34
ATOM     34  CG1 LN1 d   1      38.067  61.561  -0.452  0.00  0.00     0.051 C 
ATOM     35  H73 LN1 d   1      38.016  62.621  -0.742  0.00  0.00     0.078 H 
ATOM     36  H74 LN1 d   1      38.168  60.939  -1.353  0.00  0.00     0.078 H 
BRANCH  34  37
ATOM     37  OAV LN1 d   1      39.197  61.351   0.406  0.00  0.00    -0.319 OA
BRANCH  37  38
ATOM     38  CAX LN1 d   1      40.332  61.536  -0.315  0.00  0.00     0.263 C 
ATOM     39  OAD LN1 d   1      40.507  62.582  -0.939  0.00  0.00    -0.265 OA
BRANCH  38  40
ATOM     40  CAS LN1 d   1      41.386  60.428  -0.317  0.00  0.00     0.040 C 
ATOM     41  H75 LN1 d   1      41.023  59.567  -0.898  0.00  0.00     0.055 H 
ATOM     42  H76 LN1 d   1      41.598  60.111   0.715  0.00  0.00     0.055 H 
BRANCH  40  43
ATOM     43  CAY LN1 d   1      42.652  60.991  -0.958  0.00  0.00    -0.046 A 
ATOM     44  CAQ LN1 d   1      42.696  61.185  -2.333  0.00  0.00    -0.042 A 
ATOM     45  CBA LN1 d   1      43.825  61.749  -2.916  0.00  0.00     0.099 A 
ATOM     46  H77 LN1 d   1      41.852  60.897  -2.950  0.00  0.00     0.088 H 
ATOM     47  CAZ LN1 d   1      44.909  62.117  -2.122  0.00  0.00     0.098 A 
ATOM     48  CAN LN1 d   1      44.861  61.920  -0.746  0.00  0.00    -0.048 A 
ATOM     49  CAM LN1 d   1      43.732  61.356  -0.163  0.00  0.00    -0.074 A 
ATOM     50  H79 LN1 d   1      45.704  62.206  -0.128  0.00  0.00     0.087 H 
ATOM     51  H78 LN1 d   1      43.694  61.201   0.909  0.00  0.00     0.084 H 
BRANCH  45  52
ATOM     52  OAI LN1 d   1      43.850  61.909  -4.267  0.00  0.00    -0.358 OA
ATOM     53  H81 LN1 d   1      43.029  61.605  -4.636  0.00  0.00     0.217 HD
ENDBRANCH  45  52
BRANCH  47  54
ATOM     54  OAH LN1 d   1      46.046  62.620  -2.675  0.00  0.00    -0.358 OA
ATOM     55  H80 LN1 d   1      45.932  62.699  -3.615  0.00  0.00     0.217 HD
ENDBRANCH  47  54
ENDBRANCH  40  43
ENDBRANCH  38  40
ENDBRANCH  37  38
ENDBRANCH  34  37
ENDBRANCH   1  34
TORSDOF 14
