REMARK  6 active torsions:
REMARK  status: ('A' for Active; 'I' for Inactive)
REMARK    1  A    between atoms: C3_3  and  C10_7 
REMARK    2  A    between atoms: C10_7  and  C11_8 
REMARK    3  A    between atoms: C11_8  and  C14_9 
REMARK    4  A    between atoms: C11_8  and  N15_10 
REMARK    5  A    between atoms: C19_13  and  C26_16 
REMARK    6  A    between atoms: C30_20  and  C40_24 
REMARK       I    between atoms: C40_24  and  N41_25 
ROOT
ATOM      1  C14 605 d   1      40.514  51.044  35.343  0.00  0.00    -0.028 A 
ATOM      2  C17 605 d   1      41.346  50.020  35.989  0.00  0.00    -0.074 A 
ATOM      3  C18 605 d   1      42.723  50.208  36.169  0.00  0.00    -0.072 A 
ATOM      4  C19 605 d   1      43.389  51.428  35.726  0.00  0.00    -0.026 A 
ATOM      5  C20 605 d   1      42.566  52.500  35.062  0.00  0.00    -0.072 A 
ATOM      6  C21 605 d   1      41.148  52.308  34.871  0.00  0.00    -0.074 A 
ATOM      7  H10 605 d   1      40.886  49.101  36.333  0.00  0.00     0.084 H 
ATOM      8  H11 605 d   1      43.306  49.430  36.648  0.00  0.00     0.084 H 
ATOM      9  H12 605 d   1      43.038  53.416  34.727  0.00  0.00     0.084 H 
ATOM     10  H13 605 d   1      40.551  53.074  34.390  0.00  0.00     0.084 H 
ENDROOT
BRANCH   1  11
ATOM     11  C11 605 d   1      39.086  50.678  35.198  0.00  0.00     0.129 C 
ATOM     12  H6  605 d   1      39.012  49.732  34.641  0.00  0.00     0.092 H 
BRANCH  11  13
ATOM     13  C10 605 d   1      38.411  50.491  36.623  0.00  0.00    -0.008 C 
ATOM     14  H4  605 d   1      38.930  49.703  37.188  0.00  0.00     0.043 H 
ATOM     15  H5  605 d   1      38.450  51.434  37.188  0.00  0.00     0.043 H 
BRANCH  13  16
ATOM     16  C3  605 d   1      36.985  50.095  36.374  0.00  0.00    -0.014 A 
ATOM     17  C2  605 d   1      35.889  51.021  36.505  0.00  0.00     0.122 A 
ATOM     18  C1  605 d   1      34.529  50.644  36.273  0.00  0.00    -0.042 A 
ATOM     19  F35 605 d   1      36.115  52.228  36.910  0.00  0.00    -0.206 F 
ATOM     20  C6  605 d   1      34.240  49.297  35.809  0.00  0.00    -0.043 A 
ATOM     21  H1  605 d   1      33.726  51.352  36.441  0.00  0.00     0.088 H 
ATOM     22  C5  605 d   1      35.345  48.350  35.654  0.00  0.00     0.117 A 
ATOM     23  H3  605 d   1      33.223  48.999  35.582  0.00  0.00     0.088 H 
ATOM     24  C4  605 d   1      36.716  48.736  35.903  0.00  0.00    -0.037 A 
ATOM     25  F34 605 d   1      35.074  47.153  35.239  0.00  0.00    -0.206 F 
ATOM     26  H2  605 d   1      37.527  48.034  35.744  0.00  0.00     0.089 H 
ENDBRANCH  13  16
ENDBRANCH  11  13
BRANCH  11  27
ATOM     27  N15 605 d   1      38.366  51.769  34.427  0.00  0.00    -0.071 N 
ATOM     28  H7  605 d   1      38.798  51.883  33.524  0.00  0.00     0.275 HD
ATOM     29  H8  605 d   1      38.423  52.636  34.939  0.00  0.00     0.275 HD
ATOM     30  H9  605 d   1      37.399  51.513  34.306  0.00  0.00     0.275 HD
ENDBRANCH  11  27
ENDBRANCH   1  11
BRANCH   4  31
ATOM     31  C26 605 d   1      44.866  51.520  35.943  0.00  0.00    -0.025 A 
ATOM     32  C27 605 d   1      45.594  51.048  37.154  0.00  0.00    -0.072 A 
ATOM     33  C28 605 d   1      47.041  51.181  37.244  0.00  0.00    -0.081 A 
ATOM     34  H14 605 d   1      45.042  50.602  37.974  0.00  0.00     0.084 H 
ATOM     35  C29 605 d   1      47.803  51.774  36.152  0.00  0.00    -0.068 A 
ATOM     36  H15 605 d   1      47.557  50.835  38.132  0.00  0.00     0.083 H 
ATOM     37  C30 605 d   1      47.094  52.249  34.930  0.00  0.00     0.032 A 
ATOM     38  H16 605 d   1      48.880  51.869  36.228  0.00  0.00     0.085 H 
ATOM     39  C31 605 d   1      45.650  52.106  34.867  0.00  0.00    -0.057 A 
ATOM     40  H17 605 d   1      45.134  52.451  33.979  0.00  0.00     0.086 H 
BRANCH  37  41
ATOM     41  C40 605 d   1      47.773  52.864  33.772  0.00  0.00     0.249 C 
ATOM     42  N41 605 d   1      47.190  53.920  33.191  0.00  0.00    -0.366 N 
ATOM     43  H18 605 d   1      47.623  54.360  32.405  0.00  0.00     0.159 HD
ATOM     44  H19 605 d   1      46.321  54.268  33.544  0.00  0.00     0.159 HD
ATOM     45  O42 605 d   1      48.834  52.442  33.341  0.00  0.00    -0.268 OA
ENDBRANCH  37  41
ENDBRANCH   4  31
TORSDOF 6
