REMARK  4 active torsions:
REMARK  status: ('A' for Active; 'I' for Inactive)
REMARK    1  A    between atoms: N4_2  and  C18_1 
REMARK    2  A    between atoms: C1_17  and  C12_5 
REMARK    3  A    between atoms: C6_16  and  C2_20 
REMARK    4  A    between atoms: N27_27  and  O28_28 
ROOT
ATOM      1  N4  SM5 d   1      86.167   7.295  -7.637  0.00  0.00     0.017 N 
ATOM      2  N3  SM5 d   1      85.721   8.580  -8.012  0.00  0.00    -0.217 N 
ATOM      3  C5  SM5 d   1      85.143   6.404  -7.306  0.00  0.00     0.131 A 
ATOM      4  C1  SM5 d   1      83.734   7.164  -7.461  0.00  0.00     0.009 A 
ATOM      5  C2  SM5 d   1      84.057   8.433  -7.878  0.00  0.00     0.074 A 
ATOM      6  H2  SM5 d   1      86.136   6.992  -8.598  0.00  0.00     0.309 HD
ATOM      7  H7  SM5 d   1      86.277   9.400  -8.296  0.00  0.00     0.194 HD
ATOM      8  H13 SM5 d   1      85.269   6.064  -6.268  0.00  0.00     0.087 H 
ATOM      9  H14 SM5 d   1      85.173   5.537  -7.982  0.00  0.00     0.087 H 
ENDROOT
BRANCH   4  10
ATOM     10  C12 SM5 d   1      82.544   6.422  -7.184  0.00  0.00    -0.025 A 
ATOM     11  C13 SM5 d   1      82.700   5.510  -6.141  0.00  0.00    -0.071 A 
ATOM     12  C14 SM5 d   1      81.653   4.649  -5.764  0.00  0.00    -0.070 A 
ATOM     13  H4  SM5 d   1      83.645   5.463  -5.611  0.00  0.00     0.084 H 
ATOM     14  C15 SM5 d   1      80.438   4.684  -6.441  0.00  0.00    -0.003 A 
ATOM     15  H3  SM5 d   1      81.794   3.956  -4.943  0.00  0.00     0.085 H 
ATOM     16  C16 SM5 d   1      80.159   5.586  -7.535  0.00  0.00    -0.045 A 
ATOM     17  C26 SM5 d   1      79.362   3.842  -6.114  0.00  0.00     0.072 A 
ATOM     18  C17 SM5 d   1      81.194   6.488  -7.952  0.00  0.00    -0.065 A 
ATOM     19  C24 SM5 d   1      78.745   5.356  -8.039  0.00  0.00    -0.035 A 
ATOM     20  H5  SM5 d   1      81.041   7.186  -8.768  0.00  0.00     0.085 H 
ATOM     21  C25 SM5 d   1      78.178   4.123  -7.048  0.00  0.00    -0.018 A 
ATOM     22  H23 SM5 d   1      78.748   5.044  -9.094  0.00  0.00     0.040 H 
ATOM     23  H24 SM5 d   1      78.134   6.264  -7.927  0.00  0.00     0.040 H 
ATOM     24  H25 SM5 d   1      77.922   3.231  -7.638  0.00  0.00     0.043 H 
ATOM     25  H26 SM5 d   1      77.296   4.451  -6.478  0.00  0.00     0.043 H 
ATOM     26  N27 SM5 d   1      79.441   3.046  -5.183  0.00  0.00    -0.140 NA
BRANCH  26  27
ATOM     27  O28 SM5 d   1      78.230   2.344  -5.028  0.00  0.00    -0.266 OA
ATOM     28  H27 SM5 d   1      78.309   1.734  -4.304  0.00  0.00     0.247 HD
ENDBRANCH  26  27
ENDBRANCH   4  10
BRANCH   5  29
ATOM     29  C6  SM5 d   1      83.212   9.405  -8.144  0.00  0.00    -0.005 A 
ATOM     30  C11 SM5 d   1      81.833   9.324  -7.586  0.00  0.00    -0.054 A 
ATOM     31  C10 SM5 d   1      80.914  10.389  -7.865  0.00  0.00     0.003 A 
ATOM     32  H6  SM5 d   1      81.530   8.477  -6.981  0.00  0.00     0.087 H 
ATOM     33  N9  SM5 d   1      81.227  11.493  -8.619  0.00  0.00    -0.273 NA
ATOM     34  H8  SM5 d   1      79.912  10.318  -7.456  0.00  0.00     0.114 H 
ATOM     35  C8  SM5 d   1      82.503  11.555  -9.134  0.00  0.00     0.003 A 
ATOM     36  C7  SM5 d   1      83.576  10.479  -8.910  0.00  0.00    -0.054 A 
ATOM     37  H9  SM5 d   1      82.767  12.418  -9.735  0.00  0.00     0.114 H 
ATOM     38  H12 SM5 d   1      84.569  10.566  -9.336  0.00  0.00     0.087 H 
ENDBRANCH   5  29
BRANCH   1  39
ATOM     39  C18 SM5 d   1      87.586   6.922  -7.593  0.00  0.00     0.129 C 
ATOM     40  C19 SM5 d   1      87.774   5.460  -8.012  0.00  0.00    -0.013 C 
ATOM     41  C20 SM5 d   1      89.232   4.946  -7.725  0.00  0.00     0.084 C 
ATOM     42  H15 SM5 d   1      87.572   5.371  -9.090  0.00  0.00     0.038 H 
ATOM     43  H16 SM5 d   1      87.061   4.836  -7.453  0.00  0.00     0.038 H 
ATOM     44  N21 SM5 d   1      90.210   5.955  -8.209  0.00  0.00    -0.075 N 
ATOM     45  H17 SM5 d   1      89.396   3.993  -8.250  0.00  0.00     0.075 H 
ATOM     46  H18 SM5 d   1      89.363   4.796  -6.643  0.00  0.00     0.075 H 
ATOM     47  C22 SM5 d   1      89.870   7.405  -7.860  0.00  0.00     0.084 C 
ATOM     48  H19 SM5 d   1      91.108   5.739  -7.805  0.00  0.00     0.277 HD
ATOM     49  H20 SM5 d   1      90.266   5.880  -9.213  0.00  0.00     0.277 HD
ATOM     50  C23 SM5 d   1      88.415   7.728  -8.282  0.00  0.00    -0.013 C 
ATOM     51  H10 SM5 d   1      90.560   8.078  -8.390  0.00  0.00     0.075 H 
ATOM     52  H11 SM5 d   1      89.975   7.552  -6.775  0.00  0.00     0.075 H 
ATOM     53  H21 SM5 d   1      88.186   8.779  -8.054  0.00  0.00     0.038 H 
ATOM     54  H22 SM5 d   1      88.293   7.552  -9.361  0.00  0.00     0.038 H 
ATOM     55  H1  SM5 d   1      87.891   6.998  -6.539  0.00  0.00     0.088 H 
ENDBRANCH   1  39
TORSDOF 4
