REMARK  12 active torsions:
REMARK  status: ('A' for Active; 'I' for Inactive)
REMARK    1  A    between atoms: C22_12  and  C8_5 
REMARK    2  A    between atoms: C13_7  and  C14_23 
REMARK    3  A    between atoms: C15_8  and  O33_20 
REMARK    4  A    between atoms: C17_9  and  C24_13 
REMARK    5  A    between atoms: C24_13  and  C20_10 
REMARK    6  A    between atoms: S36_35  and  C21_11 
REMARK    7  A    between atoms: N26_17  and  C22_12 
REMARK    8  A    between atoms: C24_13  and  C19_18 
REMARK    9  A    between atoms: C24_13  and  C18_19 
REMARK   10  A    between atoms: C23_33  and  C9_30 
REMARK   11  A    between atoms: N27_34  and  C23_33 
REMARK   12  A    between atoms: N27_34  and  S36_35 
ROOT
ATOM      1  C15 4MS d   1      97.116  61.449  53.531  0.00  0.00     0.085 A 
ATOM      2  C17 4MS d   1      96.969  62.205  52.239  0.00  0.00     0.068 A 
ATOM      3  N26 4MS d   1      96.613  63.523  52.782  0.00  0.00    -0.332 N 
ATOM      4  C16 4MS d   1      96.594  63.553  54.164  0.00  0.00     0.259 A 
ATOM      5  O28 4MS d   1      96.340  64.514  54.868  0.00  0.00    -0.267 OA
ATOM      6  C14 4MS d   1      96.890  62.178  54.635  0.00  0.00     0.093 A 
ATOM      7  H4  4MS d   1      96.177  61.794  51.596  0.00  0.00     0.084 H 
ENDROOT
BRANCH   6   8
ATOM      8  C13 4MS d   1      97.075  61.757  56.027  0.00  0.00     0.100 A 
ATOM      9  C7  4MS d   1      96.565  62.544  57.174  0.00  0.00     0.018 A 
ATOM     10  C2  4MS d   1      95.786  63.691  57.261  0.00  0.00    -0.069 A 
ATOM     11  C11 4MS d   1      96.985  61.929  58.349  0.00  0.00     0.102 A 
ATOM     12  C1  4MS d   1      95.442  64.207  58.521  0.00  0.00    -0.081 A 
ATOM     13  H20 4MS d   1      95.445  64.186  56.359  0.00  0.00     0.085 H 
ATOM     14  C3  4MS d   1      95.872  63.569  59.696  0.00  0.00    -0.074 A 
ATOM     15  H22 4MS d   1      94.839  65.106  58.587  0.00  0.00     0.083 H 
ATOM     16  C9  4MS d   1      96.657  62.408  59.604  0.00  0.00    -0.016 A 
ATOM     17  H21 4MS d   1      95.600  63.969  60.666  0.00  0.00     0.084 H 
ATOM     18  S35 4MS d   1      97.924  60.516  57.964  0.00  0.00     0.285 S 
ATOM     19  N25 4MS d   1      97.788  60.710  56.333  0.00  0.00    -0.158 NA
ATOM     20  O29 4MS d   1      99.315  60.733  58.325  0.00  0.00    -0.198 OA
ATOM     21  O30 4MS d   1      97.172  59.368  58.412  0.00  0.00    -0.198 OA
BRANCH  16  22
ATOM     22  C23 4MS d   1      97.132  61.710  60.815  0.00  0.00     0.028 C 
ATOM     23  H23 4MS d   1      98.180  61.417  60.656  0.00  0.00     0.072 H 
ATOM     24  H24 4MS d   1      96.517  60.809  60.958  0.00  0.00     0.072 H 
BRANCH  22  25
ATOM     25  N27 4MS d   1      97.061  62.499  62.014  0.00  0.00    -0.316 N 
ATOM     26  H25 4MS d   1      96.980  63.496  62.012  0.00  0.00     0.172 HD
BRANCH  25  27
ATOM     27  S36 4MS d   1      97.129  61.570  63.435  0.00  0.00     0.223 S 
ATOM     28  O31 4MS d   1      96.686  60.216  63.135  0.00  0.00    -0.206 OA
ATOM     29  O32 4MS d   1      96.581  62.305  64.550  0.00  0.00    -0.206 OA
BRANCH  27  30
ATOM     30  C21 4MS d   1      98.884  61.487  63.698  0.00  0.00     0.032 C 
ATOM     31  H8  4MS d   1      99.091  60.902  64.606  0.00  0.00     0.051 H 
ATOM     32  H9  4MS d   1      99.285  62.504  63.818  0.00  0.00     0.051 H 
ATOM     33  H10 4MS d   1      99.362  61.004  62.833  0.00  0.00     0.051 H 
ENDBRANCH  27  30
ENDBRANCH  25  27
ENDBRANCH  22  25
ENDBRANCH  16  22
ENDBRANCH   6   8
BRANCH   1  34
ATOM     34  O33 4MS d   1      97.458  60.131  53.519  0.00  0.00    -0.362 OA
ATOM     35  H19 4MS d   1      97.507  59.810  54.412  0.00  0.00     0.217 HD
ENDBRANCH   1  34
BRANCH   2  36
ATOM     36  C24 4MS d   1      98.323  62.223  51.470  0.00  0.00    -0.025 C 
BRANCH  36  37
ATOM     37  C20 4MS d   1      98.645  60.804  50.924  0.00  0.00    -0.067 C 
ATOM     38  H5  4MS d   1      99.603  60.828  50.383  0.00  0.00     0.028 H 
ATOM     39  H6  4MS d   1      97.845  60.484  50.240  0.00  0.00     0.028 H 
ATOM     40  H7  4MS d   1      98.715  60.096  51.763  0.00  0.00     0.028 H 
ENDBRANCH  36  37
BRANCH  36  41
ATOM     41  C19 4MS d   1      99.491  62.717  52.367  0.00  0.00    -0.067 C 
ATOM     42  H13 4MS d   1      99.259  63.721  52.751  0.00  0.00     0.028 H 
ATOM     43  H14 4MS d   1     100.417  62.756  51.775  0.00  0.00     0.028 H 
ATOM     44  H15 4MS d   1      99.624  62.024  53.211  0.00  0.00     0.028 H 
ENDBRANCH  36  41
BRANCH  36  45
ATOM     45  C18 4MS d   1      98.330  63.160  50.241  0.00  0.00    -0.067 C 
ATOM     46  H16 4MS d   1      97.522  62.869  49.553  0.00  0.00     0.028 H 
ATOM     47  H17 4MS d   1      99.298  63.080  49.724  0.00  0.00     0.028 H 
ATOM     48  H18 4MS d   1      98.175  64.198  50.570  0.00  0.00     0.028 H 
ENDBRANCH  36  45
ENDBRANCH   2  36
BRANCH   3  49
ATOM     49  C22 4MS d   1      96.242  64.678  51.986  0.00  0.00     0.022 C 
ATOM     50  H11 4MS d   1      96.297  65.601  52.582  0.00  0.00     0.071 H 
ATOM     51  H12 4MS d   1      96.891  64.772  51.103  0.00  0.00     0.071 H 
BRANCH  49  52
ATOM     52  C8  4MS d   1      94.812  64.381  51.578  0.00  0.00    -0.038 A 
ATOM     53  C4  4MS d   1      93.924  63.828  52.506  0.00  0.00    -0.072 A 
ATOM     54  C5  4MS d   1      92.605  63.513  52.163  0.00  0.00    -0.043 A 
ATOM     55  H1  4MS d   1      94.266  63.639  53.517  0.00  0.00     0.084 H 
ATOM     56  C10 4MS d   1      92.162  63.746  50.860  0.00  0.00     0.138 A 
ATOM     57  H2  4MS d   1      91.933  63.092  52.902  0.00  0.00     0.088 H 
ATOM     58  C12 4MS d   1      93.057  64.295  49.924  0.00  0.00     0.073 A 
ATOM     59  F34 4MS d   1      90.886  63.430  50.546  0.00  0.00    -0.204 F 
ATOM     60  C6  4MS d   1      94.378  64.602  50.276  0.00  0.00    -0.051 A 
ATOM     61 CL37 4MS d   1      92.558  64.615  48.306  0.00  0.00    -0.081 Cl
ATOM     62  H3  4MS d   1      95.058  65.010  49.537  0.00  0.00     0.087 H 
ENDBRANCH  49  52
ENDBRANCH   3  49
TORSDOF 12
