REMARK  6 active torsions:
REMARK  status: ('A' for Active; 'I' for Inactive)
REMARK    1  A    between atoms: C13_2  and  C16_3 
REMARK    2  A    between atoms: C13_2  and  C12_4 
REMARK    3  A    between atoms: C12_4  and  N10_5 
REMARK       I    between atoms: N10_5  and  C9_6 
REMARK    4  A    between atoms: C9_6  and  O8_8 
REMARK    5  A    between atoms: O8_8  and  C7_9 
REMARK    6  A    between atoms: C7_9  and  C5_10 
ROOT
ATOM      1  O8  959 d   1      67.064  42.775  39.373  0.00  0.00    -0.299 OA
ENDROOT
BRANCH   1   2
ATOM      2  C9  959 d   1      66.021  42.759  40.441  0.00  0.00     0.361 C 
ATOM      3  N10 959 d   1      66.404  42.321  41.698  0.00  0.00    -0.330 N 
ATOM      4  H6  959 d   1      67.363  42.068  41.828  0.00  0.00     0.165 HD
ATOM      5  O11 959 d   1      64.842  43.154  40.145  0.00  0.00    -0.239 OA
BRANCH   3   6
ATOM      6  C12 959 d   1      65.437  42.192  42.942  0.00  0.00     0.052 C 
ATOM      7  H4  959 d   1      65.906  41.614  43.752  0.00  0.00     0.075 H 
ATOM      8  H5  959 d   1      65.142  43.182  43.321  0.00  0.00     0.075 H 
BRANCH   6   9
ATOM      9  C13 959 d   1      64.271  41.465  42.367  0.00  0.00     0.140 C 
ATOM     10  O15 959 d   1      63.158  41.908  42.412  0.00  0.00    -0.297 OA
BRANCH   9  11
ATOM     11  C16 959 d   1      64.387  40.040  41.741  0.00  0.00    -0.019 C 
ATOM     12  H1  959 d   1      65.440  39.723  41.744  0.00  0.00     0.037 H 
ATOM     13  H2  959 d   1      64.014  40.062  40.706  0.00  0.00     0.037 H 
ATOM     14  H3  959 d   1      63.788  39.330  42.331  0.00  0.00     0.037 H 
ENDBRANCH   9  11
ENDBRANCH   6   9
ENDBRANCH   3   6
ENDBRANCH   1   2
BRANCH   1  15
ATOM     15  C7  959 d   1      68.296  43.527  39.783  0.00  0.00     0.054 C 
ATOM     16  H7  959 d   1      68.455  43.419  40.866  0.00  0.00     0.082 H 
ATOM     17  H8  959 d   1      68.182  44.592  39.534  0.00  0.00     0.082 H 
BRANCH  15  18
ATOM     18  C5  959 d   1      69.474  42.951  39.034  0.00  0.00    -0.034 A 
ATOM     19  C6  959 d   1      69.922  43.567  37.866  0.00  0.00    -0.075 A 
ATOM     20  C1  959 d   1      71.011  43.032  37.178  0.00  0.00    -0.082 A 
ATOM     21  H9  959 d   1      69.427  44.457  37.495  0.00  0.00     0.084 H 
ATOM     22  C2  959 d   1      71.644  41.886  37.660  0.00  0.00    -0.083 A 
ATOM     23  H10 959 d   1      71.365  43.506  36.270  0.00  0.00     0.083 H 
ATOM     24  C3  959 d   1      71.195  41.265  38.823  0.00  0.00    -0.082 A 
ATOM     25  H11 959 d   1      72.493  41.475  37.125  0.00  0.00     0.083 H 
ATOM     26  C4  959 d   1      70.107  41.800  39.512  0.00  0.00    -0.075 A 
ATOM     27  H12 959 d   1      71.688  40.372  39.190  0.00  0.00     0.083 H 
ATOM     28  H13 959 d   1      69.752  41.323  40.419  0.00  0.00     0.084 H 
ENDBRANCH  15  18
ENDBRANCH   1  15
TORSDOF 6
