REMARK  5 active torsions:
REMARK  status: ('A' for Active; 'I' for Inactive)
REMARK    1  A    between atoms: C1'_19  and  N1_4 
REMARK    2  A    between atoms: C5'_12  and  NBA_11 
REMARK    3  A    between atoms: C4'_13  and  C5'_12 
REMARK    4  A    between atoms: C3'_15  and  O3'_16 
REMARK    5  A    between atoms: C2'_17  and  O2'_18 
ROOT
ATOM      1  C4' U3S d   1      38.533  -0.832  13.970  0.00  0.00     0.091 C 
ATOM      2  O4' U3S d   1      38.660  -1.368  12.615  0.00  0.00    -0.354 OA
ATOM      3  C3' U3S d   1      38.007   0.547  13.641  0.00  0.00     0.091 C 
ATOM      4  C2' U3S d   1      36.873   0.211  12.704  0.00  0.00     0.105 C 
ATOM      5  C1' U3S d   1      37.343  -1.104  12.038  0.00  0.00     0.141 C 
ATOM      6  H17 U3S d   1      37.767  -1.415  14.502  0.00  0.00     0.090 H 
ATOM      7  H18 U3S d   1      38.781   1.161  13.156  0.00  0.00     0.091 H 
ATOM      8  H20 U3S d   1      35.901   0.098  13.206  0.00  0.00     0.093 H 
ATOM      9  H22 U3S d   1      37.444  -0.922  10.958  0.00  0.00     0.123 H 
ENDROOT
BRANCH   1  10
ATOM     10  C5' U3S d   1      39.765  -0.766  14.925  0.00  0.00     0.110 C 
ATOM     11  H15 U3S d   1      39.947   0.294  15.156  0.00  0.00     0.080 H 
ATOM     12  H16 U3S d   1      39.496  -1.302  15.847  0.00  0.00     0.080 H 
BRANCH  10  13
ATOM     13  NBA U3S d   1      41.036  -1.337  14.435  0.00  0.00    -0.069 N 
ATOM     14  CAM U3S d   1      40.941  -2.763  14.045  0.00  0.00     0.084 C 
ATOM     15  CAK U3S d   1      42.291  -3.503  14.175  0.00  0.00    -0.042 C 
ATOM     16  H8  U3S d   1      40.203  -3.258  14.694  0.00  0.00     0.076 H 
ATOM     17  H9  U3S d   1      40.606  -2.821  12.999  0.00  0.00     0.076 H 
ATOM     18  CAV U3S d   1      43.496  -2.552  14.113  0.00  0.00    -0.062 C 
ATOM     19  H6  U3S d   1      42.310  -4.033  15.139  0.00  0.00     0.035 H 
ATOM     20  H7  U3S d   1      42.374  -4.231  13.354  0.00  0.00     0.035 H 
ATOM     21  CAJ U3S d   1      43.407  -1.453  15.185  0.00  0.00    -0.042 C 
ATOM     22  H4  U3S d   1      43.527  -2.080  13.120  0.00  0.00     0.033 H 
ATOM     23  H5  U3S d   1      44.417  -3.132  14.272  0.00  0.00     0.033 H 
ATOM     24  CAL U3S d   1      41.951  -1.179  15.587  0.00  0.00     0.084 C 
ATOM     25  H10 U3S d   1      43.848  -0.528  14.786  0.00  0.00     0.035 H 
ATOM     26  H11 U3S d   1      43.969  -1.774  16.074  0.00  0.00     0.035 H 
ATOM     27  H12 U3S d   1      41.872  -0.150  15.969  0.00  0.00     0.076 H 
ATOM     28  H13 U3S d   1      41.658  -1.887  16.377  0.00  0.00     0.076 H 
ATOM     29  H14 U3S d   1      41.367  -0.809  13.643  0.00  0.00     0.280 HD
ENDBRANCH  10  13
ENDBRANCH   1  10
BRANCH   3  30
ATOM     30  O3' U3S d   1      37.474   1.243  14.758  0.00  0.00    -0.390 OA
ATOM     31  H19 U3S d   1      37.164   2.097  14.479  0.00  0.00     0.210 HD
ENDBRANCH   3  30
BRANCH   5  32
ATOM     32  N1  U3S d   1      36.461  -2.309  12.202  0.00  0.00    -0.280 N 
ATOM     33  C6  U3S d   1      36.826  -3.376  13.062  0.00  0.00    -0.008 A 
ATOM     34  C5  U3S d   1      36.012  -4.501  13.197  0.00  0.00    -0.002 A 
ATOM     35  H2  U3S d   1      37.756  -3.316  13.626  0.00  0.00     0.112 H 
ATOM     36  C4  U3S d   1      34.834  -4.586  12.460  0.00  0.00     0.250 A 
ATOM     37  H1  U3S d   1      36.296  -5.306  13.873  0.00  0.00     0.094 H 
ATOM     38  N3  U3S d   1      34.469  -3.552  11.598  0.00  0.00    -0.275 N 
ATOM     39  O4  U3S d   1      34.102  -5.569  12.556  0.00  0.00    -0.268 OA
ATOM     40  C2  U3S d   1      35.270  -2.408  11.466  0.00  0.00     0.331 A 
ATOM     41  H3  U3S d   1      33.625  -3.627  11.067  0.00  0.00     0.173 HD
ATOM     42  O2  U3S d   1      34.910  -1.512  10.708  0.00  0.00    -0.246 OA
ENDBRANCH   5  32
BRANCH   4  43
ATOM     43  O2' U3S d   1      36.875   1.295  11.773  0.00  0.00    -0.388 OA
ATOM     44  H21 U3S d   1      36.730   2.111  12.238  0.00  0.00     0.210 HD
ENDBRANCH   4  43
TORSDOF 5
