REMARK  5 active torsions:
REMARK  status: ('A' for Active; 'I' for Inactive)
REMARK    1  A    between atoms: C1'_14  and  N1_4 
REMARK    2  A    between atoms: C5'_7  and  C4'_8 
REMARK    3  A    between atoms: NAT_21  and  C5'_7 
REMARK    4  A    between atoms: C3'_10  and  O3'_11 
REMARK    5  A    between atoms: C2'_12  and  O2'_13 
ROOT
ATOM      1  C4' U4S d   1      38.462  -0.761  13.931  0.00  0.00     0.091 C 
ATOM      2  O4' U4S d   1      38.566  -1.353  12.599  0.00  0.00    -0.354 OA
ATOM      3  C3' U4S d   1      37.934   0.598  13.564  0.00  0.00     0.091 C 
ATOM      4  C2' U4S d   1      36.775   0.218  12.676  0.00  0.00     0.105 C 
ATOM      5  C1' U4S d   1      37.263  -1.093  12.012  0.00  0.00     0.141 C 
ATOM      6  H8  U4S d   1      37.734  -1.325  14.533  0.00  0.00     0.090 H 
ATOM      7  H9  U4S d   1      38.691   1.192  13.031  0.00  0.00     0.091 H 
ATOM      8  H11 U4S d   1      35.825   0.087  13.214  0.00  0.00     0.093 H 
ATOM      9  H13 U4S d   1      37.370  -0.913  10.932  0.00  0.00     0.123 H 
ENDROOT
BRANCH   1  10
ATOM     10  C5' U4S d   1      39.751  -0.622  14.761  0.00  0.00     0.110 C 
ATOM     11  H6  U4S d   1      39.496  -0.702  15.828  0.00  0.00     0.080 H 
ATOM     12  H7  U4S d   1      40.195   0.365  14.563  0.00  0.00     0.080 H 
BRANCH  10  13
ATOM     13  NAT U4S d   1      40.737  -1.658  14.432  0.00  0.00    -0.069 N 
ATOM     14  CAJ U4S d   1      41.821  -1.033  13.649  0.00  0.00     0.084 C 
ATOM     15  CAH U4S d   1      43.105  -1.643  14.199  0.00  0.00    -0.041 C 
ATOM     16  H4  U4S d   1      41.709  -1.265  12.580  0.00  0.00     0.076 H 
ATOM     17  H5  U4S d   1      41.820   0.058  13.789  0.00  0.00     0.076 H 
ATOM     18  CAG U4S d   1      42.803  -1.682  15.686  0.00  0.00    -0.041 C 
ATOM     19  H18 U4S d   1      43.977  -1.009  13.982  0.00  0.00     0.035 H 
ATOM     20  H19 U4S d   1      43.276  -2.652  13.796  0.00  0.00     0.035 H 
ATOM     21  CAI U4S d   1      41.337  -2.122  15.704  0.00  0.00     0.084 C 
ATOM     22  H16 U4S d   1      43.445  -2.409  16.205  0.00  0.00     0.035 H 
ATOM     23  H17 U4S d   1      42.928  -0.690  16.145  0.00  0.00     0.035 H 
ATOM     24  H14 U4S d   1      40.815  -1.666  16.558  0.00  0.00     0.076 H 
ATOM     25  H15 U4S d   1      41.271  -3.218  15.777  0.00  0.00     0.076 H 
ATOM     26  H20 U4S d   1      40.311  -2.419  13.926  0.00  0.00     0.280 HD
ENDBRANCH  10  13
ENDBRANCH   1  10
BRANCH   3  27
ATOM     27  O3' U4S d   1      37.446   1.331  14.678  0.00  0.00    -0.390 OA
ATOM     28  H10 U4S d   1      37.128   2.176  14.384  0.00  0.00     0.210 HD
ENDBRANCH   3  27
BRANCH   5  29
ATOM     29  N1  U4S d   1      36.391  -2.305  12.184  0.00  0.00    -0.280 N 
ATOM     30  C6  U4S d   1      36.771  -3.364  13.040  0.00  0.00    -0.008 A 
ATOM     31  C5  U4S d   1      35.971  -4.496  13.188  0.00  0.00    -0.002 A 
ATOM     32  H2  U4S d   1      37.706  -3.294  13.594  0.00  0.00     0.112 H 
ATOM     33  C4  U4S d   1      34.788  -4.592  12.466  0.00  0.00     0.250 A 
ATOM     34  H1  U4S d   1      36.270  -5.297  13.863  0.00  0.00     0.094 H 
ATOM     35  N3  U4S d   1      34.407  -3.558  11.602  0.00  0.00    -0.275 N 
ATOM     36  O4  U4S d   1      34.070  -5.584  12.575  0.00  0.00    -0.268 OA
ATOM     37  C2  U4S d   1      35.202  -2.412  11.457  0.00  0.00     0.331 A 
ATOM     38  H3  U4S d   1      33.557  -3.638  11.082  0.00  0.00     0.173 HD
ATOM     39  O2  U4S d   1      34.845  -1.511  10.703  0.00  0.00    -0.246 OA
ENDBRANCH   5  29
BRANCH   4  40
ATOM     40  O2' U4S d   1      36.716   1.277  11.726  0.00  0.00    -0.388 OA
ATOM     41  H12 U4S d   1      36.569   2.099  12.179  0.00  0.00     0.210 HD
ENDBRANCH   4  40
TORSDOF 5
