REMARK  10 active torsions:
REMARK  status: ('A' for Active; 'I' for Inactive)
REMARK    1  A    between atoms: C19_4  and  O20_5 
REMARK    2  A    between atoms: C15_8  and  C14_9 
REMARK    3  A    between atoms: C14_9  and  C13_10 
REMARK    4  A    between atoms: C13_10  and  C23_11 
REMARK    5  A    between atoms: C13_10  and  N12_14 
REMARK       I    between atoms: N12_14  and  C11_15 
REMARK       I    between atoms: C11_15  and  N10_17 
REMARK    6  A    between atoms: N10_17  and  C6_18 
REMARK    7  A    between atoms: C6_18  and  C7_19 
REMARK    8  A    between atoms: C6_18  and  C5_22 
REMARK    9  A    between atoms: C5_22  and  C4_23 
REMARK   10  A    between atoms: C4_23  and  C2_24 
ROOT
ATOM      1  C13 YBY d   1      19.806  44.995  44.133  0.00  0.00     0.101 C 
ATOM      2  H7  YBY d   1      19.961  43.907  44.190  0.00  0.00     0.090 H 
ENDROOT
BRANCH   1   3
ATOM      3  C14 YBY d   1      20.704  45.646  43.050  0.00  0.00    -0.013 C 
ATOM      4  H5  YBY d   1      20.782  44.958  42.195  0.00  0.00     0.043 H 
ATOM      5  H6  YBY d   1      20.237  46.586  42.722  0.00  0.00     0.043 H 
BRANCH   3   6
ATOM      6  C15 YBY d   1      22.097  45.947  43.562  0.00  0.00    -0.054 A 
ATOM      7  C16 YBY d   1      22.601  47.239  43.427  0.00  0.00    -0.058 A 
ATOM      8  C17 YBY d   1      23.879  47.559  43.895  0.00  0.00     0.040 A 
ATOM      9  H1  YBY d   1      21.996  48.004  42.954  0.00  0.00     0.086 H 
ATOM     10  I18 YBY d   1      24.576  49.559  43.654  0.00  0.00    -0.042 I 
ATOM     11  C19 YBY d   1      24.643  46.549  44.511  0.00  0.00     0.082 A 
ATOM     12  C21 YBY d   1      24.149  45.257  44.644  0.00  0.00    -0.049 A 
ATOM     13  C22 YBY d   1      22.867  44.962  44.147  0.00  0.00    -0.074 A 
ATOM     14  H3  YBY d   1      24.743  44.488  45.124  0.00  0.00     0.087 H 
ATOM     15  H4  YBY d   1      22.480  43.952  44.224  0.00  0.00     0.084 H 
BRANCH  11  16
ATOM     16  O20 YBY d   1      25.897  46.827  45.013  0.00  0.00    -0.359 OA
ATOM     17  H2  YBY d   1      26.268  46.038  45.391  0.00  0.00     0.217 HD
ENDBRANCH  11  16
ENDBRANCH   3   6
ENDBRANCH   1   3
BRANCH   1  18
ATOM     18  C23 YBY d   1      20.003  45.621  45.487  0.00  0.00     0.197 C 
ATOM     19  O25 YBY d   1      19.551  46.784  45.643  0.00  0.00    -0.646 OA
ATOM     20  O24 YBY d   1      20.509  44.920  46.387  0.00  0.00    -0.646 OA
ENDBRANCH   1  18
BRANCH   1  21
ATOM     21  N12 YBY d   1      18.471  45.344  43.644  0.00  0.00    -0.328 N 
ATOM     22  C11 YBY d   1      17.827  44.540  42.797  0.00  0.00     0.317 C 
ATOM     23  O26 YBY d   1      18.234  43.460  42.333  0.00  0.00    -0.247 OA
ATOM     24  N10 YBY d   1      16.580  44.950  42.441  0.00  0.00    -0.329 N 
ATOM     25  H9  YBY d   1      16.137  45.710  42.917  0.00  0.00     0.165 HD
ATOM     26  H8  YBY d   1      18.038  46.193  43.948  0.00  0.00     0.165 HD
BRANCH  24  27
ATOM     27  C6  YBY d   1      15.905  44.259  41.353  0.00  0.00     0.098 C 
ATOM     28  H10 YBY d   1      15.712  43.201  41.582  0.00  0.00     0.089 H 
BRANCH  27  29
ATOM     29  C7  YBY d   1      16.858  44.488  40.163  0.00  0.00     0.196 C 
ATOM     30  O9  YBY d   1      17.783  45.378  40.141  0.00  0.00    -0.646 OA
ATOM     31  O8  YBY d   1      16.774  43.707  39.159  0.00  0.00    -0.646 OA
ENDBRANCH  27  29
BRANCH  27  32
ATOM     32  C5  YBY d   1      14.618  45.017  40.910  0.00  0.00    -0.028 C 
ATOM     33  H11 YBY d   1      13.816  44.801  41.632  0.00  0.00     0.037 H 
ATOM     34  H12 YBY d   1      14.322  44.656  39.914  0.00  0.00     0.037 H 
BRANCH  32  35
ATOM     35  C4  YBY d   1      14.823  46.551  40.840  0.00  0.00     0.018 C 
ATOM     36  H13 YBY d   1      15.749  46.745  40.280  0.00  0.00     0.049 H 
ATOM     37  H14 YBY d   1      14.931  46.927  41.868  0.00  0.00     0.049 H 
BRANCH  35  38
ATOM     38  C2  YBY d   1      13.694  47.331  40.169  0.00  0.00     0.172 C 
ATOM     39  O1  YBY d   1      12.914  46.732  39.392  0.00  0.00    -0.648 OA
ATOM     40  O3  YBY d   1      13.653  48.576  40.412  0.00  0.00    -0.648 OA
ENDBRANCH  35  38
ENDBRANCH  32  35
ENDBRANCH  27  32
ENDBRANCH  24  27
ENDBRANCH   1  21
TORSDOF 10
