REMARK  10 active torsions:
REMARK  status: ('A' for Active; 'I' for Inactive)
REMARK    1  A    between atoms: C2_2  and  C4_4 
REMARK    2  A    between atoms: C4_4  and  C5_5 
REMARK    3  A    between atoms: C5_5  and  C6_6 
REMARK    4  A    between atoms: C6_6  and  C7_7 
REMARK    5  A    between atoms: C6_6  and  N10_10 
REMARK       I    between atoms: N10_10  and  C11_11 
REMARK       I    between atoms: C11_11  and  N12_13 
REMARK    6  A    between atoms: N12_13  and  C13_14 
REMARK    7  A    between atoms: C13_14  and  C17_15 
REMARK    8  A    between atoms: C13_14  and  C14_18 
REMARK    9  A    between atoms: C14_18  and  S15_19 
REMARK   10  A    between atoms: S15_19  and  C16_20 
ROOT
ATOM      1  N10 MUD d   1      16.714  44.835  42.720  0.00  0.00    -0.329 N 
ATOM      2  C11 MUD d   1      17.945  44.448  43.060  0.00  0.00     0.317 C 
ATOM      3  O20 MUD d   1      18.393  43.406  42.549  0.00  0.00    -0.247 OA
ATOM      4  N12 MUD d   1      18.660  45.223  43.879  0.00  0.00    -0.328 N 
ATOM      5  H6  MUD d   1      16.270  45.597  43.191  0.00  0.00     0.165 HD
ATOM      6  H7  MUD d   1      18.265  46.100  44.153  0.00  0.00     0.165 HD
ENDROOT
BRANCH   1   7
ATOM      7  C6  MUD d   1      16.031  44.122  41.646  0.00  0.00     0.098 C 
ATOM      8  H5  MUD d   1      15.849  43.067  41.899  0.00  0.00     0.089 H 
BRANCH   7   9
ATOM      9  C5  MUD d   1      14.725  44.853  41.234  0.00  0.00    -0.028 C 
ATOM     10  H3  MUD d   1      14.420  44.495  40.240  0.00  0.00     0.037 H 
ATOM     11  H4  MUD d   1      13.941  44.612  41.967  0.00  0.00     0.037 H 
BRANCH   9  12
ATOM     12  C4  MUD d   1      14.892  46.387  41.176  0.00  0.00     0.018 C 
ATOM     13  H1  MUD d   1      14.943  46.755  42.211  0.00  0.00     0.049 H 
ATOM     14  H2  MUD d   1      15.842  46.599  40.664  0.00  0.00     0.049 H 
BRANCH  12  15
ATOM     15  C2  MUD d   1      13.802  47.170  40.463  0.00  0.00     0.172 C 
ATOM     16  O3  MUD d   1      13.749  48.411  40.676  0.00  0.00    -0.648 OA
ATOM     17  O1  MUD d   1      13.009  46.598  39.681  0.00  0.00    -0.648 OA
ENDBRANCH  12  15
ENDBRANCH   9  12
ENDBRANCH   7   9
BRANCH   7  18
ATOM     18  C7  MUD d   1      16.975  44.314  40.437  0.00  0.00     0.196 C 
ATOM     19  O8  MUD d   1      16.870  43.568  39.392  0.00  0.00    -0.646 OA
ATOM     20  O9  MUD d   1      17.884  45.206  40.459  0.00  0.00    -0.646 OA
ENDBRANCH   7  18
ENDBRANCH   1   7
BRANCH   4  21
ATOM     21  C13 MUD d   1      19.969  44.880  44.399  0.00  0.00     0.106 C 
ATOM     22  H8  MUD d   1      20.172  43.799  44.394  0.00  0.00     0.090 H 
BRANCH  21  23
ATOM     23  C17 MUD d   1      20.123  45.482  45.779  0.00  0.00     0.197 C 
ATOM     24  O18 MUD d   1      20.649  44.778  46.672  0.00  0.00    -0.646 OA
ATOM     25  O19 MUD d   1      19.670  46.641  45.976  0.00  0.00    -0.646 OA
ENDBRANCH  21  23
BRANCH  21  26
ATOM     26  C14 MUD d   1      20.872  45.685  43.453  0.00  0.00     0.005 C 
ATOM     27  H9  MUD d   1      20.579  46.745  43.488  0.00  0.00     0.052 H 
ATOM     28  H10 MUD d   1      20.751  45.305  42.428  0.00  0.00     0.052 H 
BRANCH  26  29
ATOM     29  S15 MUD d   1      22.584  45.533  43.937  0.00  0.00    -0.171 SA
BRANCH  29  30
ATOM     30  C16 MUD d   1      23.065  45.726  42.241  0.00  0.00    -0.035 C 
ATOM     31  H11 MUD d   1      24.161  45.679  42.163  0.00  0.00     0.041 H 
ATOM     32  H12 MUD d   1      22.713  46.699  41.868  0.00  0.00     0.041 H 
ATOM     33  H13 MUD d   1      22.619  44.920  41.639  0.00  0.00     0.041 H 
ENDBRANCH  29  30
ENDBRANCH  26  29
ENDBRANCH  21  26
ENDBRANCH   4  21
TORSDOF 10
