REMARK  13 active torsions:
REMARK  status: ('A' for Active; 'I' for Inactive)
REMARK    1  A    between atoms: C20_7  and  C19_8 
REMARK       I    between atoms: C19_8  and  N18_10 
REMARK    2  A    between atoms: N18_10  and  C17_11 
REMARK    3  A    between atoms: C17_11  and  C16_12 
REMARK    4  A    between atoms: C16_12  and  C15_13 
REMARK    5  A    between atoms: C15_13  and  C14_14 
REMARK    6  A    between atoms: C14_14  and  C13_15 
REMARK    7  A    between atoms: C13_15  and  C28_16 
REMARK    8  A    between atoms: C13_15  and  N12_19 
REMARK       I    between atoms: N12_19  and  C11_20 
REMARK       I    between atoms: C11_20  and  N10_22 
REMARK    9  A    between atoms: N10_22  and  C6_23 
REMARK   10  A    between atoms: C6_23  and  C7_24 
REMARK   11  A    between atoms: C6_23  and  C5_27 
REMARK   12  A    between atoms: C5_27  and  C4_28 
REMARK   13  A    between atoms: C4_28  and  C2_29 
ROOT
ATOM      1  C14 YC2 d   1      20.906  45.704  43.282  0.00  0.00    -0.036 C 
ATOM      2  H12 YC2 d   1      20.718  45.255  42.296  0.00  0.00     0.036 H 
ATOM      3  H13 YC2 d   1      20.646  46.772  43.254  0.00  0.00     0.036 H 
ENDROOT
BRANCH   1   4
ATOM      4  C15 YC2 d   1      22.420  45.614  43.538  0.00  0.00    -0.061 C 
ATOM      5  H10 YC2 d   1      22.627  46.011  44.542  0.00  0.00     0.033 H 
ATOM      6  H11 YC2 d   1      22.718  44.556  43.493  0.00  0.00     0.033 H 
BRANCH   4   7
ATOM      7  C16 YC2 d   1      23.271  46.408  42.510  0.00  0.00    -0.050 C 
ATOM      8  H8  YC2 d   1      24.319  46.099  42.633  0.00  0.00     0.035 H 
ATOM      9  H9  YC2 d   1      22.924  46.132  41.504  0.00  0.00     0.035 H 
BRANCH   7  10
ATOM     10  C17 YC2 d   1      23.219  47.936  42.619  0.00  0.00    -0.004 C 
ATOM     11  H6  YC2 d   1      24.016  48.386  42.009  0.00  0.00     0.064 H 
ATOM     12  H7  YC2 d   1      22.241  48.307  42.277  0.00  0.00     0.064 H 
BRANCH  10  13
ATOM     13  N18 YC2 d   1      23.417  48.267  44.028  0.00  0.00    -0.357 N 
ATOM     14  C19 YC2 d   1      23.103  49.384  44.677  0.00  0.00     0.251 C 
ATOM     15  O27 YC2 d   1      22.541  50.263  44.015  0.00  0.00    -0.268 OA
ATOM     16  H5  YC2 d   1      23.849  47.554  44.581  0.00  0.00     0.162 HD
BRANCH  14  17
ATOM     17  C20 YC2 d   1      23.304  49.594  46.175  0.00  0.00     0.032 A 
ATOM     18  C21 YC2 d   1      23.542  50.860  46.740  0.00  0.00    -0.067 A 
ATOM     19  C22 YC2 d   1      23.687  51.034  48.136  0.00  0.00    -0.066 A 
ATOM     20  H2  YC2 d   1      23.616  51.724  46.089  0.00  0.00     0.085 H 
ATOM     21  C23 YC2 d   1      23.569  50.000  49.067  0.00  0.00     0.006 A 
ATOM     22  H1  YC2 d   1      23.903  52.030  48.505  0.00  0.00     0.085 H 
ATOM     23  I24 YC2 d   1      23.760  50.289  51.196  0.00  0.00    -0.045 I 
ATOM     24  C25 YC2 d   1      23.305  48.745  48.495  0.00  0.00    -0.066 A 
ATOM     25  C26 YC2 d   1      23.190  48.561  47.096  0.00  0.00    -0.067 A 
ATOM     26  H3  YC2 d   1      23.185  47.888  49.147  0.00  0.00     0.085 H 
ATOM     27  H4  YC2 d   1      23.003  47.560  46.724  0.00  0.00     0.085 H 
ENDBRANCH  14  17
ENDBRANCH  10  13
ENDBRANCH   7  10
ENDBRANCH   4   7
ENDBRANCH   1   4
BRANCH   1  28
ATOM     28  C13 YC2 d   1      19.941  45.028  44.281  0.00  0.00     0.098 C 
ATOM     29  H14 YC2 d   1      20.055  43.934  44.313  0.00  0.00     0.089 H 
BRANCH  28  30
ATOM     30  C28 YC2 d   1      20.165  45.641  45.633  0.00  0.00     0.196 C 
ATOM     31  O30 YC2 d   1      20.779  44.961  46.476  0.00  0.00    -0.646 OA
ATOM     32  O29 YC2 d   1      19.687  46.798  45.888  0.00  0.00    -0.646 OA
ENDBRANCH  28  30
BRANCH  28  33
ATOM     33  N12 YC2 d   1      18.630  45.444  43.764  0.00  0.00    -0.329 N 
ATOM     34  C11 YC2 d   1      17.931  44.709  42.868  0.00  0.00     0.317 C 
ATOM     35  O31 YC2 d   1      18.322  43.634  42.364  0.00  0.00    -0.247 OA
ATOM     36  N10 YC2 d   1      16.706  45.194  42.514  0.00  0.00    -0.329 N 
ATOM     37  H16 YC2 d   1      16.284  45.968  42.986  0.00  0.00     0.165 HD
ATOM     38  H15 YC2 d   1      18.238  46.305  44.087  0.00  0.00     0.165 HD
BRANCH  36  39
ATOM     39  C6  YC2 d   1      16.057  44.518  41.415  0.00  0.00     0.098 C 
ATOM     40  H17 YC2 d   1      15.855  43.458  41.629  0.00  0.00     0.089 H 
BRANCH  39  41
ATOM     41  C7  YC2 d   1      17.023  44.715  40.250  0.00  0.00     0.196 C 
ATOM     42  O9  YC2 d   1      17.967  45.594  40.270  0.00  0.00    -0.646 OA
ATOM     43  O8  YC2 d   1      16.960  43.935  39.255  0.00  0.00    -0.646 OA
ENDBRANCH  39  41
BRANCH  39  44
ATOM     44  C5  YC2 d   1      14.759  45.298  41.066  0.00  0.00    -0.028 C 
ATOM     45  H18 YC2 d   1      14.029  45.148  41.875  0.00  0.00     0.037 H 
ATOM     46  H19 YC2 d   1      14.351  44.900  40.125  0.00  0.00     0.037 H 
BRANCH  44  47
ATOM     47  C4  YC2 d   1      15.005  46.805  40.898  0.00  0.00     0.018 C 
ATOM     48  H20 YC2 d   1      15.924  46.935  40.308  0.00  0.00     0.049 H 
ATOM     49  H21 YC2 d   1      15.147  47.239  41.899  0.00  0.00     0.049 H 
BRANCH  47  50
ATOM     50  C2  YC2 d   1      13.879  47.582  40.199  0.00  0.00     0.172 C 
ATOM     51  O1  YC2 d   1      13.127  46.988  39.381  0.00  0.00    -0.648 OA
ATOM     52  O3  YC2 d   1      13.805  48.803  40.436  0.00  0.00    -0.648 OA
ENDBRANCH  47  50
ENDBRANCH  44  47
ENDBRANCH  39  44
ENDBRANCH  36  39
ENDBRANCH  28  33
ENDBRANCH   1  28
TORSDOF 13
