REMARK  9 active torsions:
REMARK  status: ('A' for Active; 'I' for Inactive)
REMARK    1  A    between atoms: PB_1  and  O3A_5 
REMARK    2  A    between atoms: O3A_5  and  PA_6 
REMARK    3  A    between atoms: PA_6  and  O5'_9 
REMARK    4  A    between atoms: O5'_9  and  C5'_10 
REMARK    5  A    between atoms: C5'_10  and  C4'_11 
REMARK    6  A    between atoms: C3'_13  and  O3'_14 
REMARK    7  A    between atoms: C2'_15  and  O2'_16 
REMARK    8  A    between atoms: C1'_17  and  N9_18 
REMARK    9  A    between atoms: C2_25  and  N2_26 
ROOT
ATOM      1  C4' GDP d   1     -17.084  15.455 -11.041  0.00  0.00     0.089 C 
ATOM      2  O4' GDP d   1     -17.121  16.473  -9.986  0.00  0.00    -0.353 OA
ATOM      3  C3' GDP d   1     -16.662  14.159 -10.404  0.00  0.00     0.091 C 
ATOM      4  C2' GDP d   1     -16.877  14.455  -8.895  0.00  0.00     0.105 C 
ATOM      5  C1' GDP d   1     -16.722  15.935  -8.730  0.00  0.00     0.139 C 
ATOM      6  H3  GDP d   1     -16.322  15.743 -11.780  0.00  0.00     0.090 H 
ATOM      7  H4  GDP d   1     -17.258  13.300 -10.747  0.00  0.00     0.091 H 
ATOM      8  H6  GDP d   1     -17.898  14.152  -8.619  0.00  0.00     0.093 H 
ATOM      9  H8  GDP d   1     -15.687  16.205  -8.471  0.00  0.00     0.122 H 
ENDROOT
BRANCH   5  10
ATOM     10  N9  GDP d   1     -17.640  16.434  -7.752  0.00  0.00    -0.295 N 
ATOM     11  C8  GDP d   1     -19.020  16.238  -7.588  0.00  0.00     0.071 A 
ATOM     12  N7  GDP d   1     -19.572  16.875  -6.572  0.00  0.00    -0.234 NA
ATOM     13  H9  GDP d   1     -19.598  15.601  -8.256  0.00  0.00     0.144 H 
ATOM     14  C5  GDP d   1     -18.437  17.533  -6.018  0.00  0.00     0.171 A 
ATOM     15  C6  GDP d   1     -18.328  18.442  -4.892  0.00  0.00     0.292 A 
ATOM     16  C4  GDP d   1     -17.283  17.275  -6.751  0.00  0.00     0.161 A 
ATOM     17  O6  GDP d   1     -19.227  18.801  -4.135  0.00  0.00    -0.265 OA
ATOM     18  N1  GDP d   1     -17.013  18.901  -4.634  0.00  0.00    -0.154 N 
ATOM     19  C2  GDP d   1     -15.895  18.559  -5.425  0.00  0.00     0.680 A 
ATOM     20  H10 GDP d   1     -16.869  19.501  -3.847  0.00  0.00     0.187 HD
ATOM     21  N3  GDP d   1     -16.005  17.754  -6.496  0.00  0.00    -0.174 N 
ATOM     22  H13 GDP d   1     -15.197  17.509  -7.087  0.00  0.00     0.186 HD
BRANCH  19  23
ATOM     23  N2  GDP d   1     -14.704  19.003  -5.139  0.00  0.00    -0.234 N 
ATOM     24  H11 GDP d   1     -13.901  18.741  -5.729  0.00  0.00     0.174 HD
ATOM     25  H12 GDP d   1     -14.565  19.616  -4.323  0.00  0.00     0.174 HD
ENDBRANCH  19  23
ENDBRANCH   5  10
BRANCH   4  26
ATOM     26  O2' GDP d   1     -15.981  13.810  -8.032  0.00  0.00    -0.388 OA
ATOM     27  H7  GDP d   1     -15.094  14.079  -8.239  0.00  0.00     0.210 HD
ENDBRANCH   4  26
BRANCH   1  28
ATOM     28  C5' GDP d   1     -18.363  15.349 -11.744  0.00  0.00     0.058 C 
ATOM     29  H1  GDP d   1     -18.637  16.347 -12.115  0.00  0.00     0.079 H 
ATOM     30  H2  GDP d   1     -18.234  14.664 -12.595  0.00  0.00     0.079 H 
BRANCH  28  31
ATOM     31  O5' GDP d   1     -19.428  14.864 -10.937  0.00  0.00    -0.287 OA
BRANCH  31  32
ATOM     32  PA  GDP d   1     -20.409  13.775 -11.428  0.00  0.00     0.418 P 
ATOM     33  O1A GDP d   1     -21.252  13.549 -10.227  0.00  0.00    -0.624 OA
ATOM     34  O2A GDP d   1     -19.617  12.643 -12.122  0.00  0.00    -0.624 OA
BRANCH  32  35
ATOM     35  O3A GDP d   1     -21.342  14.514 -12.510  0.00  0.00    -0.173 OA
BRANCH  35  36
ATOM     36  PB  GDP d   1     -22.875  14.305 -12.989  0.00  0.00     0.431 P 
ATOM     37  O1B GDP d   1     -23.749  15.105 -12.149  0.00  0.00    -0.616 OA
ATOM     38  O2B GDP d   1     -23.089  12.864 -12.823  0.00  0.00    -0.616 OA
ATOM     39  O3B GDP d   1     -22.911  14.859 -14.353  0.00  0.00    -0.616 OA
ENDBRANCH  35  36
ENDBRANCH  32  35
ENDBRANCH  31  32
ENDBRANCH  28  31
ENDBRANCH   1  28
BRANCH   3  40
ATOM     40  O3' GDP d   1     -15.303  13.974 -10.688  0.00  0.00    -0.390 OA
ATOM     41  H5  GDP d   1     -15.007  13.160 -10.297  0.00  0.00     0.210 HD
ENDBRANCH   3  40
TORSDOF 9
