REMARK  5 active torsions:
REMARK  status: ('A' for Active; 'I' for Inactive)
REMARK    1  A    between atoms: N26_6  and  C5'_7 
REMARK    2  A    between atoms: C5'_7  and  C4'_8 
REMARK    3  A    between atoms: C3'_10  and  O3'_11 
REMARK    4  A    between atoms: C1'_13  and  N1_14 
REMARK    5  A    between atoms: C5_16  and  C5M_17 
ROOT
ATOM      1  C4' T3S d   1      39.470  -0.466  13.145  0.00  0.00     0.089 C 
ATOM      2  O4' T3S d   1      38.720  -1.362  12.259  0.00  0.00    -0.357 OA
ATOM      3  C3' T3S d   1      38.511   0.685  13.421  0.00  0.00     0.066 C 
ATOM      4  C2' T3S d   1      37.138   0.007  13.396  0.00  0.00     0.002 C 
ATOM      5  C1' T3S d   1      37.315  -0.937  12.213  0.00  0.00     0.116 C 
ATOM      6  H14 T3S d   1      40.374  -0.116  12.626  0.00  0.00     0.090 H 
ATOM      7  H15 T3S d   1      38.715   1.174  14.385  0.00  0.00     0.087 H 
ATOM      8  H17 T3S d   1      36.330   0.732  13.219  0.00  0.00     0.043 H 
ATOM      9  H18 T3S d   1      36.940  -0.543  14.328  0.00  0.00     0.043 H 
ATOM     10  H19 T3S d   1      37.096  -0.403  11.277  0.00  0.00     0.118 H 
ENDROOT
BRANCH   1  11
ATOM     11  C5' T3S d   1      39.882  -1.051  14.542  0.00  0.00     0.110 C 
ATOM     12  H12 T3S d   1      40.338  -0.236  15.124  0.00  0.00     0.080 H 
ATOM     13  H13 T3S d   1      38.965  -1.392  15.045  0.00  0.00     0.080 H 
BRANCH  11  14
ATOM     14  N26 T3S d   1      40.845  -2.194  14.531  0.00  0.00    -0.069 N 
ATOM     15  C21 T3S d   1      42.227  -1.716  14.753  0.00  0.00     0.084 C 
ATOM     16  C22 T3S d   1      43.125  -2.880  15.205  0.00  0.00    -0.042 C 
ATOM     17  H1  T3S d   1      42.621  -1.296  13.816  0.00  0.00     0.076 H 
ATOM     18  H2  T3S d   1      42.222  -0.938  15.530  0.00  0.00     0.076 H 
ATOM     19  C23 T3S d   1      42.662  -4.236  14.633  0.00  0.00    -0.062 C 
ATOM     20  H3  T3S d   1      43.106  -2.935  16.303  0.00  0.00     0.035 H 
ATOM     21  H4  T3S d   1      44.153  -2.686  14.865  0.00  0.00     0.035 H 
ATOM     22  C24 T3S d   1      41.914  -4.107  13.293  0.00  0.00    -0.042 C 
ATOM     23  H5  T3S d   1      41.991  -4.713  15.363  0.00  0.00     0.033 H 
ATOM     24  H6  T3S d   1      43.547  -4.871  14.479  0.00  0.00     0.033 H 
ATOM     25  C25 T3S d   1      40.751  -3.093  13.350  0.00  0.00     0.084 C 
ATOM     26  H7  T3S d   1      41.508  -5.092  13.021  0.00  0.00     0.035 H 
ATOM     27  H8  T3S d   1      42.628  -3.780  12.523  0.00  0.00     0.035 H 
ATOM     28  H9  T3S d   1      39.801  -3.646  13.401  0.00  0.00     0.076 H 
ATOM     29  H10 T3S d   1      40.770  -2.481  12.437  0.00  0.00     0.076 H 
ATOM     30  H11 T3S d   1      40.606  -2.764  15.327  0.00  0.00     0.280 HD
ENDBRANCH  11  14
ENDBRANCH   1  11
BRANCH   3  31
ATOM     31  O3' T3S d   1      38.591   1.627  12.340  0.00  0.00    -0.393 OA
ATOM     32  H16 T3S d   1      37.995   2.348  12.505  0.00  0.00     0.210 HD
ENDBRANCH   3  31
BRANCH   5  33
ATOM     33  N1  T3S d   1      36.473  -2.158  12.290  0.00  0.00    -0.282 N 
ATOM     34  C6  T3S d   1      36.863  -3.219  13.131  0.00  0.00    -0.002 A 
ATOM     35  C5  T3S d   1      36.096  -4.381  13.212  0.00  0.00     0.022 A 
ATOM     36  H20 T3S d   1      37.772  -3.131  13.724  0.00  0.00     0.113 H 
ATOM     37  C4  T3S d   1      34.930  -4.488  12.445  0.00  0.00     0.256 A 
ATOM     38  O4  T3S d   1      34.225  -5.498  12.494  0.00  0.00    -0.267 OA
ATOM     39  N3  T3S d   1      34.537  -3.437  11.602  0.00  0.00    -0.275 N 
ATOM     40  C2  T3S d   1      35.300  -2.263  11.513  0.00  0.00     0.331 A 
ATOM     41  H24 T3S d   1      33.703  -3.526  11.058  0.00  0.00     0.173 HD
ATOM     42  O2  T3S d   1      34.928  -1.346  10.777  0.00  0.00    -0.246 OA
BRANCH  35  43
ATOM     43  C5M T3S d   1      36.553  -5.517  14.138  0.00  0.00    -0.045 C 
ATOM     44  H21 T3S d   1      37.486  -5.226  14.643  0.00  0.00     0.033 H 
ATOM     45  H22 T3S d   1      36.726  -6.427  13.544  0.00  0.00     0.033 H 
ATOM     46  H23 T3S d   1      35.775  -5.712  14.890  0.00  0.00     0.033 H 
ENDBRANCH  35  43
ENDBRANCH   5  33
TORSDOF 5
