REMARK  6 active torsions:
REMARK  status: ('A' for Active; 'I' for Inactive)
REMARK    1  A    between atoms: N5_1  and  C3_2 
REMARK    2  A    between atoms: C5_8  and  C22_9 
REMARK    3  A    between atoms: C24_11  and  N6_12 
REMARK    4  A    between atoms: N7_15  and  C30_16 
REMARK    5  A    between atoms: C6_21  and  C7_22 
REMARK    6  A    between atoms: C13_29  and  C16_32 
ROOT
ATOM      1  C3  D94 d   1      24.592  13.581  -6.536  0.00  0.00     0.150 A 
ATOM      2  C4  D94 d   1      24.222  14.819  -5.841  0.00  0.00     0.116 A 
ATOM      3  N2  D94 d   1      23.405  14.730  -4.719  0.00  0.00    -0.303 N 
ATOM      4  C2  D94 d   1      22.952  13.488  -4.275  0.00  0.00     0.004 A 
ATOM      5  C1  D94 d   1      23.336  12.395  -4.970  0.00  0.00     0.020 A 
ATOM      6  N1  D94 d   1      24.153  12.419  -6.086  0.00  0.00    -0.240 NA
ATOM      7  C5  D94 d   1      23.195  16.003  -4.252  0.00  0.00     0.116 A 
ATOM      8  N3  D94 d   1      23.830  16.888  -5.004  0.00  0.00    -0.231 NA
ATOM      9  C6  D94 d   1      24.458  16.176  -6.004  0.00  0.00     0.100 A 
ATOM     10  H3  D94 d   1      22.311  13.402  -3.399  0.00  0.00     0.114 H 
ATOM     11  H4  D94 d   1      22.977  11.426  -4.627  0.00  0.00     0.117 H 
ENDROOT
BRANCH   7  12
ATOM     12  C22 D94 d   1      22.350  16.346  -3.025  0.00  0.00     0.008 C 
ATOM     13  C23 D94 d   1      22.147  17.837  -2.638  0.00  0.00    -0.028 C 
ATOM     14  C24 D94 d   1      22.116  17.284  -1.187  0.00  0.00     0.105 C 
ATOM     15  H6  D94 d   1      21.210  18.293  -2.990  0.00  0.00     0.037 H 
ATOM     16  H7  D94 d   1      22.990  18.505  -2.871  0.00  0.00     0.037 H 
ATOM     17  C25 D94 d   1      23.179  16.295  -1.710  0.00  0.00    -0.028 C 
ATOM     18  H8  D94 d   1      21.172  16.790  -0.913  0.00  0.00     0.084 H 
ATOM     19  H22 D94 d   1      24.201  16.696  -1.781  0.00  0.00     0.037 H 
ATOM     20  H23 D94 d   1      23.203  15.318  -1.205  0.00  0.00     0.037 H 
ATOM     21  H5  D94 d   1      21.426  15.749  -3.041  0.00  0.00     0.052 H 
BRANCH  14  22
ATOM     22  N6  D94 d   1      22.427  18.271  -0.104  0.00  0.00    -0.064 N 
ATOM     23  C26 D94 d   1      22.282  19.704  -0.422  0.00  0.00     0.106 C 
ATOM     24  C27 D94 d   1      22.328  20.583   0.825  0.00  0.00     0.105 C 
ATOM     25  H10 D94 d   1      21.317  19.858  -0.928  0.00  0.00     0.078 H 
ATOM     26  H11 D94 d   1      23.100  20.001  -1.095  0.00  0.00     0.078 H 
ATOM     27  N7  D94 d   1      23.615  20.323   1.574  0.00  0.00    -0.072 N 
ATOM     28  H12 D94 d   1      21.472  20.346   1.473  0.00  0.00     0.078 H 
ATOM     29  H13 D94 d   1      22.282  21.642   0.530  0.00  0.00     0.078 H 
ATOM     30  C28 D94 d   1      23.860  18.853   1.858  0.00  0.00     0.105 C 
ATOM     31  H14 D94 d   1      24.364  20.617   0.967  0.00  0.00     0.279 HD
ATOM     32  C29 D94 d   1      23.700  17.991   0.599  0.00  0.00     0.106 C 
ATOM     33  H18 D94 d   1      23.139  18.512   2.616  0.00  0.00     0.078 H 
ATOM     34  H19 D94 d   1      24.883  18.731   2.244  0.00  0.00     0.078 H 
ATOM     35  H20 D94 d   1      24.537  18.200  -0.084  0.00  0.00     0.078 H 
ATOM     36  H21 D94 d   1      23.720  16.930   0.889  0.00  0.00     0.078 H 
ATOM     37  H9  D94 d   1      21.711  18.102   0.585  0.00  0.00     0.280 HD
BRANCH  27  38
ATOM     38  C30 D94 d   1      23.694  21.188   2.803  0.00  0.00     0.066 C 
ATOM     39  H15 D94 d   1      24.636  20.985   3.334  0.00  0.00     0.068 H 
ATOM     40  H16 D94 d   1      22.844  20.964   3.465  0.00  0.00     0.068 H 
ATOM     41  H17 D94 d   1      23.660  22.247   2.509  0.00  0.00     0.068 H 
ENDBRANCH  27  38
ENDBRANCH  14  22
ENDBRANCH   7  12
BRANCH   9  42
ATOM     42  C7  D94 d   1      25.334  16.898  -6.899  0.00  0.00    -0.003 A 
ATOM     43  C8  D94 d   1      25.030  18.148  -7.477  0.00  0.00    -0.042 A 
ATOM     44  C12 D94 d   1      25.968  18.836  -8.266  0.00  0.00     0.068 A 
ATOM     45  H24 D94 d   1      24.053  18.587  -7.309  0.00  0.00     0.088 H 
ATOM     46  C11 D94 d   1      27.275  18.274  -8.414  0.00  0.00    -0.007 A 
ATOM     47  N4  D94 d   1      25.613  20.008  -8.856  0.00  0.00    -0.248 NA
ATOM     48  C9  D94 d   1      27.612  17.050  -7.786  0.00  0.00    -0.070 A 
ATOM     49  C15 D94 d   1      28.207  18.968  -9.195  0.00  0.00    -0.069 A 
ATOM     50  C10 D94 d   1      26.642  16.403  -7.019  0.00  0.00    -0.070 A 
ATOM     51  H25 D94 d   1      28.603  16.625  -7.899  0.00  0.00     0.084 H 
ATOM     52  H26 D94 d   1      26.907  15.489  -6.500  0.00  0.00     0.084 H 
ATOM     53  C14 D94 d   1      27.842  20.179  -9.792  0.00  0.00    -0.053 A 
ATOM     54  H28 D94 d   1      29.205  18.569  -9.336  0.00  0.00     0.085 H 
ATOM     55  C13 D94 d   1      26.549  20.685  -9.602  0.00  0.00     0.067 A 
ATOM     56  H27 D94 d   1      28.556  20.724 -10.399  0.00  0.00     0.087 H 
BRANCH  55  57
ATOM     57  C16 D94 d   1      26.094  21.937 -10.252  0.00  0.00    -0.007 A 
ATOM     58  C17 D94 d   1      26.860  23.116 -10.298  0.00  0.00    -0.071 A 
ATOM     59  C18 D94 d   1      26.391  24.258 -10.959  0.00  0.00    -0.082 A 
ATOM     60  H29 D94 d   1      27.829  23.141  -9.814  0.00  0.00     0.084 H 
ATOM     61  C19 D94 d   1      25.143  24.242 -11.594  0.00  0.00    -0.083 A 
ATOM     62  H30 D94 d   1      26.996  25.157 -10.979  0.00  0.00     0.083 H 
ATOM     63  C20 D94 d   1      24.367  23.095 -11.563  0.00  0.00    -0.082 A 
ATOM     64  H31 D94 d   1      24.785  25.126 -12.109  0.00  0.00     0.083 H 
ATOM     65  C21 D94 d   1      24.849  21.958 -10.916  0.00  0.00    -0.071 A 
ATOM     66  H32 D94 d   1      23.393  23.082 -12.038  0.00  0.00     0.083 H 
ATOM     67  H33 D94 d   1      24.246  21.058 -10.923  0.00  0.00     0.084 H 
ENDBRANCH  55  57
ENDBRANCH   9  42
BRANCH   1  68
ATOM     68  N5  D94 d   1      25.411  13.594  -7.647  0.00  0.00    -0.382 N 
ATOM     69  H1  D94 d   1      25.656  12.711  -8.117  0.00  0.00     0.157 HD
ATOM     70  H2  D94 d   1      25.777  14.487  -8.006  0.00  0.00     0.157 HD
ENDBRANCH   1  68
TORSDOF 6
