REMARK WARNING: 32 MAX_TORS EXCEEDED!!!
REMARK  36 active torsions:
REMARK  status: ('A' for Active; 'I' for Inactive)
REMARK    1  A    between atoms: N_1  and  CA_2 
REMARK    2  A    between atoms: CA_2  and  C_3 
REMARK    3  A    between atoms: CA_2  and  CB_5 
REMARK       I    between atoms: C_3  and  N_13 
REMARK    4  A    between atoms: CB_5  and  CG_6 
REMARK    5  A    between atoms: CZ_11  and  OH_12 
REMARK    6  A    between atoms: N_13  and  CA_14 
REMARK    7  A    between atoms: CA_14  and  CB_15 
REMARK    8  A    between atoms: CA_14  and  C_17 
REMARK    9  A    between atoms: CB_15  and  OG_16 
REMARK   10  A    between atoms: OG_16  and  P_19 
REMARK       I    between atoms: C_17  and  N_23 
REMARK   11  A    between atoms: CA_24  and  C_25 
REMARK       I    between atoms: C_25  and  N_30 
REMARK   12  A    between atoms: N_30  and  CA_31 
REMARK   13  A    between atoms: CA_31  and  C_32 
REMARK   14  A    between atoms: CA_31  and  CB_34 
REMARK       I    between atoms: C_32  and  N_37 
REMARK   15  A    between atoms: CB_34  and  OG1_35 
REMARK   16  A    between atoms: CB_34  and  CG2_36 
REMARK   17  A    between atoms: N_37  and  CA_38 
REMARK   18  A    between atoms: CA_38  and  CB_39 
REMARK   19  A    between atoms: CA_38  and  C_41 
REMARK   20  A    between atoms: CB_39  and  OG_40 
REMARK   21  A    between atoms: OG_40  and  P_43 
REMARK       I    between atoms: C_41  and  N_47 
REMARK   22  A    between atoms: CA_48  and  C_49 
REMARK       I    between atoms: C_49  and  N_54 
REMARK   23  A    between atoms: N_54  and  CA_55 
REMARK   24  A    between atoms: CA_55  and  C_56 
REMARK   25  A    between atoms: CA_55  and  CB_58 
REMARK       I    between atoms: C_56  and  N_60 
REMARK   26  A    between atoms: CB_58  and  OG_59 
REMARK   27  A    between atoms: N_60  and  CA_61 
REMARK   28  A    between atoms: CA_61  and  C_62 
REMARK   29  A    between atoms: CA_61  and  CB_64 
REMARK       I    between atoms: C_62  and  N_72 
REMARK   30  A    between atoms: CB_64  and  CG_65 
REMARK   31  A    between atoms: CZ_70  and  OH_71 
REMARK   32  A    between atoms: N_72  and  CA_73 
REMARK   33  A    between atoms: CA_73  and  CB_74 
REMARK   34  A    between atoms: CA_73  and  C_76 
REMARK   35  A    between atoms: CB_74  and  OG_75 
REMARK   36  A    between atoms: OG_75  and  P_78 
ROOT
ATOM      1  CA  SEP d   1       9.369  10.038  -7.539  0.00  0.00     0.110 C 
ATOM      2  H31 SEP d   1       8.333   9.682  -7.641  0.00  0.00     0.090 H 
ENDROOT
BRANCH   1   3
ATOM      3  N   SEP d   1       9.986  10.000  -8.873  0.00  0.00    -0.344 N 
ATOM      4  C   THR d   1       9.326  10.357  -9.980  0.00  0.00     0.243 C 
ATOM      5  O   THR d   1       8.185  10.825  -9.962  0.00  0.00    -0.271 OA
ATOM      6  H30 SEP d   1      10.935   9.696  -8.956  0.00  0.00     0.163 HD
BRANCH   4   7
ATOM      7  CA  THR d   1      10.055  10.156 -11.316  0.00  0.00     0.113 C 
ATOM      8  H24 THR d   1      10.108  11.131 -11.822  0.00  0.00     0.091 H 
BRANCH   7   9
ATOM      9  N   THR d   1      11.443   9.680 -11.151  0.00  0.00    -0.344 N 
ATOM     10  C   PRO d   1      12.490  10.506 -11.211  0.00  0.00     0.241 C 
ATOM     11  O   PRO d   1      12.393  11.692 -11.536  0.00  0.00    -0.271 OA
ATOM     12  H23 THR d   1      11.604   8.707 -10.989  0.00  0.00     0.163 HD
BRANCH  10  13
ATOM     13  CA  PRO d   1      13.872   9.929 -10.854  0.00  0.00     0.091 C 
ATOM     14  N   PRO d   1      13.838   8.548 -10.343  0.00  0.00    -0.337 N 
ATOM     15  C   SEP d   1      13.271   8.228  -9.159  0.00  0.00     0.245 C 
ATOM     16  CD  PRO d   1      14.506   7.604 -11.263  0.00  0.00    -0.001 C 
ATOM     17  O   SEP d   1      12.771   9.063  -8.402  0.00  0.00    -0.271 OA
ATOM     18  CG  PRO d   1      14.635   8.386 -12.530  0.00  0.00    -0.048 C 
ATOM     19  H21 PRO d   1      13.893   6.704 -11.417  0.00  0.00     0.064 H 
ATOM     20  H22 PRO d   1      15.494   7.313 -10.878  0.00  0.00     0.064 H 
ATOM     21  CB  PRO d   1      14.765   9.817 -12.097  0.00  0.00    -0.036 C 
ATOM     22  H19 PRO d   1      15.528   8.069 -13.089  0.00  0.00     0.035 H 
ATOM     23  H20 PRO d   1      13.742   8.253 -13.158  0.00  0.00     0.035 H 
ATOM     24  H17 PRO d   1      15.810  10.053 -11.847  0.00  0.00     0.036 H 
ATOM     25  H18 PRO d   1      14.415  10.495 -12.889  0.00  0.00     0.036 H 
ATOM     26  H16 PRO d   1      14.337  10.590 -10.107  0.00  0.00     0.087 H 
BRANCH  15  27
ATOM     27  CA  SEP d   1      13.292   6.773  -8.759  0.00  0.00     0.110 C 
ATOM     28  H13 SEP d   1      13.925   6.211  -9.461  0.00  0.00     0.090 H 
BRANCH  27  29
ATOM     29  N   SEP d   1      13.857   6.690  -7.433  0.00  0.00    -0.344 N 
ATOM     30  C   TYR d   1      14.721   5.742  -7.095  0.00  0.00     0.249 C 
ATOM     31  O   TYR d   1      15.071   4.839  -7.861  0.00  0.00    -0.271 OA
ATOM     32  H12 SEP d   1      13.589   7.368  -6.748  0.00  0.00     0.163 HD
BRANCH  30  33
ATOM     33  CA  TYR d   1      15.266   5.834  -5.671  0.00  0.00     0.179 C 
ATOM     34  H4  TYR d   1      14.489   6.302  -5.048  0.00  0.00     0.099 H 
BRANCH  33  35
ATOM     35  N   TYR d   1      15.558   4.489  -5.085  0.00  0.00    -0.066 N 
ATOM     36  H1  TYR d   1      15.914   4.601  -4.149  0.00  0.00     0.275 HD
ATOM     37  H2  TYR d   1      16.245   4.018  -5.652  0.00  0.00     0.275 HD
ATOM     38  H3  TYR d   1      14.711   3.942  -5.060  0.00  0.00     0.275 HD
ENDBRANCH  33  35
BRANCH  33  39
ATOM     39  CB  TYR d   1      16.507   6.742  -5.634  0.00  0.00    -0.006 C 
ATOM     40  H5  TYR d   1      17.306   6.256  -6.213  0.00  0.00     0.043 H 
ATOM     41  H6  TYR d   1      16.825   6.846  -4.586  0.00  0.00     0.043 H 
BRANCH  39  42
ATOM     42  CG  TYR d   1      16.286   8.141  -6.207  0.00  0.00    -0.056 A 
ATOM     43  CD1 TYR d   1      15.673   9.143  -5.454  0.00  0.00    -0.074 A 
ATOM     44  CE1 TYR d   1      15.479  10.415  -5.975  0.00  0.00    -0.051 A 
ATOM     45  H7  TYR d   1      15.343   8.925  -4.445  0.00  0.00     0.084 H 
ATOM     46  CZ  TYR d   1      15.898  10.704  -7.272  0.00  0.00     0.065 A 
ATOM     47  H9  TYR d   1      15.003  11.181  -5.374  0.00  0.00     0.087 H 
ATOM     48  CE2 TYR d   1      16.499   9.723  -8.041  0.00  0.00    -0.051 A 
ATOM     49  CD2 TYR d   1      16.684   8.452  -7.506  0.00  0.00    -0.074 A 
ATOM     50  H10 TYR d   1      16.823   9.943  -9.052  0.00  0.00     0.087 H 
ATOM     51  H8  TYR d   1      17.149   7.685  -8.114  0.00  0.00     0.084 H 
BRANCH  46  52
ATOM     52  OH  TYR d   1      15.717  11.969  -7.807  0.00  0.00    -0.361 OA
ATOM     53  H11 TYR d   1      15.171  11.909  -8.582  0.00  0.00     0.217 HD
ENDBRANCH  46  52
ENDBRANCH  39  42
ENDBRANCH  33  39
ENDBRANCH  30  33
ENDBRANCH  27  29
BRANCH  27  54
ATOM     54  CB  SEP d   1      11.882   6.182  -8.785  0.00  0.00     0.059 C 
ATOM     55  H14 SEP d   1      11.299   6.598  -7.950  0.00  0.00     0.079 H 
ATOM     56  H15 SEP d   1      11.945   5.089  -8.680  0.00  0.00     0.079 H 
BRANCH  54  57
ATOM     57  OG  SEP d   1      11.240   6.497 -10.006  0.00  0.00    -0.280 OA
BRANCH  57  58
ATOM     58  P   SEP d   1      10.954   5.188 -10.902  0.00  0.00     0.422 P 
ATOM     59  O1P SEP d   1      10.500   5.673 -12.361  0.00  0.00    -0.617 OA
ATOM     60  O2P SEP d   1      12.294   4.295 -11.035  0.00  0.00    -0.617 OA
ATOM     61  O3P SEP d   1       9.761   4.324 -10.250  0.00  0.00    -0.617 OA
ENDBRANCH  57  58
ENDBRANCH  54  57
ENDBRANCH  27  54
ENDBRANCH  15  27
ENDBRANCH  10  13
ENDBRANCH   7   9
BRANCH   7  62
ATOM     62  CB  THR d   1       9.195   9.206 -12.194  0.00  0.00     0.060 C 
ATOM     63  H25 THR d   1       8.146   9.531 -12.136  0.00  0.00     0.086 H 
BRANCH  62  64
ATOM     64  OG1 THR d   1       9.294   7.867 -11.696  0.00  0.00    -0.393 OA
ATOM     65  H26 THR d   1      10.201   7.587 -11.723  0.00  0.00     0.210 HD
ENDBRANCH  62  64
BRANCH  62  66
ATOM     66  CG2 THR d   1       9.633   9.243 -13.647  0.00  0.00    -0.050 C 
ATOM     67  H27 THR d   1       9.004   8.560 -14.237  0.00  0.00     0.031 H 
ATOM     68  H28 THR d   1      10.684   8.929 -13.721  0.00  0.00     0.031 H 
ATOM     69  H29 THR d   1       9.528  10.267 -14.036  0.00  0.00     0.031 H 
ENDBRANCH  62  66
ENDBRANCH   7  62
ENDBRANCH   4   7
ENDBRANCH   1   3
BRANCH   1  70
ATOM     70  CB  SEP d   1      10.108   9.101  -6.560  0.00  0.00     0.059 C 
ATOM     71  H32 SEP d   1      11.056   9.565  -6.250  0.00  0.00     0.079 H 
ATOM     72  H33 SEP d   1      10.315   8.140  -7.054  0.00  0.00     0.079 H 
BRANCH  70  73
ATOM     73  OG  SEP d   1       9.277   8.882  -5.406  0.00  0.00    -0.280 OA
BRANCH  73  74
ATOM     74  P   SEP d   1       8.937   7.244  -5.357  0.00  0.00     0.422 P 
ATOM     75  O1P SEP d   1       8.425   6.685  -6.844  0.00  0.00    -0.617 OA
ATOM     76  O2P SEP d   1      10.281   6.449  -4.853  0.00  0.00    -0.617 OA
ATOM     77  O3P SEP d   1       7.558   6.984  -4.284  0.00  0.00    -0.617 OA
ENDBRANCH  73  74
ENDBRANCH  70  73
ENDBRANCH   1  70
BRANCH   1  78
ATOM     78  C   SEP d   1       9.327  11.452  -6.955  0.00  0.00     0.245 C 
ATOM     79  O   SEP d   1      10.378  12.079  -6.796  0.00  0.00    -0.271 OA
ATOM     80  N   PRO d   1       8.109  11.945  -6.621  0.00  0.00    -0.337 N 
ATOM     81  CA  PRO d   1       7.877  13.300  -6.089  0.00  0.00     0.091 C 
ATOM     82  CD  PRO d   1       6.844  11.192  -6.761  0.00  0.00    -0.001 C 
ATOM     83  CB  PRO d   1       6.469  13.200  -5.488  0.00  0.00    -0.036 C 
ATOM     84  H34 PRO d   1       7.898  14.031  -6.910  0.00  0.00     0.087 H 
ATOM     85  CG  PRO d   1       5.780  12.184  -6.332  0.00  0.00    -0.048 C 
ATOM     86  H35 PRO d   1       5.952  14.169  -5.544  0.00  0.00     0.036 H 
ATOM     87  H36 PRO d   1       6.515  12.869  -4.440  0.00  0.00     0.036 H 
ATOM     88  H37 PRO d   1       5.330  12.664  -7.213  0.00  0.00     0.035 H 
ATOM     89  H38 PRO d   1       4.997  11.675  -5.751  0.00  0.00     0.035 H 
ATOM     90  H39 PRO d   1       6.841  10.307  -6.107  0.00  0.00     0.064 H 
ATOM     91  H40 PRO d   1       6.689  10.878  -7.804  0.00  0.00     0.064 H 
BRANCH  81  92
ATOM     92  C   PRO d   1       8.883  13.745  -5.017  0.00  0.00     0.241 C 
ATOM     93  O   PRO d   1       9.218  12.967  -4.116  0.00  0.00    -0.271 OA
ATOM     94  N   SER d   1       9.354  14.989  -5.134  0.00  0.00    -0.344 N 
ATOM     95  H41 SER d   1       9.058  15.536  -5.917  0.00  0.00     0.163 HD
BRANCH  94  96
ATOM     96  CA  SER d   1      10.282  15.594  -4.174  0.00  0.00     0.109 C 
ATOM     97  H42 SER d   1      11.188  14.972  -4.131  0.00  0.00     0.090 H 
BRANCH  96  98
ATOM     98  C   SER d   1       9.682  15.667  -2.775  0.00  0.00     0.243 C 
ATOM     99  O   SER d   1       8.473  15.872  -2.623  0.00  0.00    -0.271 OA
ATOM    100  N   TYR d   1      10.529  15.506  -1.759  0.00  0.00    -0.346 N 
ATOM    101  H46 TYR d   1      11.504  15.392  -1.950  0.00  0.00     0.163 HD
BRANCH 100 102
ATOM    102  CA  TYR d   1      10.067  15.492  -0.367  0.00  0.00     0.093 C 
ATOM    103  H47 TYR d   1       9.245  14.762  -0.314  0.00  0.00     0.088 H 
BRANCH 102 104
ATOM    104  C   TYR d   1       9.486  16.839   0.067  0.00  0.00     0.241 C 
ATOM    105  O   TYR d   1       9.887  17.893  -0.437  0.00  0.00    -0.271 OA
ATOM    106  N   SEP d   1       8.532  16.793   0.993  0.00  0.00    -0.346 N 
ATOM    107  H55 SEP d   1       8.244  15.904   1.350  0.00  0.00     0.163 HD
BRANCH 106 108
ATOM    108  CA  SEP d   1       7.895  17.999   1.502  0.00  0.00     0.083 C 
ATOM    109  H56 SEP d   1       7.885  18.749   0.698  0.00  0.00     0.087 H 
BRANCH 108 110
ATOM    110  CB  SEP d   1       6.452  17.708   1.907  0.00  0.00     0.057 C 
ATOM    111  H57 SEP d   1       6.450  17.043   2.783  0.00  0.00     0.079 H 
ATOM    112  H58 SEP d   1       5.934  17.215   1.071  0.00  0.00     0.079 H 
BRANCH 110 113
ATOM    113  OG  SEP d   1       5.773  18.907   2.232  0.00  0.00    -0.280 OA
BRANCH 113 114
ATOM    114  P   SEP d   1       4.464  19.099   1.308  0.00  0.00     0.422 P 
ATOM    115  O1P SEP d   1       3.878  20.580   1.549  0.00  0.00    -0.617 OA
ATOM    116  O2P SEP d   1       4.851  18.911  -0.249  0.00  0.00    -0.617 OA
ATOM    117  O3P SEP d   1       3.337  18.028   1.734  0.00  0.00    -0.617 OA
ENDBRANCH 113 114
ENDBRANCH 110 113
ENDBRANCH 108 110
BRANCH 108 118
ATOM    118  C   SEP d   1       8.675  18.573   2.680  0.00  0.00     0.112 C 
ATOM    119  O   SEP d   1       9.646  19.305   2.493  0.00  0.00    -0.305 OA
ATOM    120  H59 SEP d   1       8.369  18.332   3.697  0.00  0.00     0.146 H 
ENDBRANCH 108 118
ENDBRANCH 106 108
ENDBRANCH 102 104
BRANCH 102 121
ATOM    121  CB  TYR d   1      11.168  14.995   0.600  0.00  0.00    -0.014 C 
ATOM    122  H48 TYR d   1      11.658  14.128   0.132  0.00  0.00     0.043 H 
ATOM    123  H49 TYR d   1      10.677  14.680   1.532  0.00  0.00     0.043 H 
BRANCH 121 124
ATOM    124  CG  TYR d   1      12.252  15.999   0.964  0.00  0.00    -0.056 A 
ATOM    125  CD1 TYR d   1      12.005  17.025   1.883  0.00  0.00    -0.074 A 
ATOM    126  CE1 TYR d   1      12.996  17.946   2.229  0.00  0.00    -0.051 A 
ATOM    127  H50 TYR d   1      11.024  17.107   2.336  0.00  0.00     0.084 H 
ATOM    128  CZ  TYR d   1      14.261  17.840   1.668  0.00  0.00     0.065 A 
ATOM    129  H52 TYR d   1      12.778  18.741   2.933  0.00  0.00     0.087 H 
ATOM    130  CE2 TYR d   1      14.543  16.814   0.771  0.00  0.00    -0.051 A 
ATOM    131  CD2 TYR d   1      13.537  15.897   0.426  0.00  0.00    -0.074 A 
ATOM    132  H53 TYR d   1      15.534  16.723   0.341  0.00  0.00     0.087 H 
ATOM    133  H51 TYR d   1      13.761  15.097  -0.270  0.00  0.00     0.084 H 
BRANCH 128 134
ATOM    134  OH  TYR d   1      15.235  18.754   2.021  0.00  0.00    -0.361 OA
ATOM    135  H54 TYR d   1      15.965  18.298   2.424  0.00  0.00     0.217 HD
ENDBRANCH 128 134
ENDBRANCH 121 124
ENDBRANCH 102 121
ENDBRANCH 100 102
ENDBRANCH  96  98
BRANCH  96 136
ATOM    136  CB  SER d   1      10.671  16.998  -4.633  0.00  0.00     0.044 C 
ATOM    137  H43 SER d   1      11.363  17.438  -3.900  0.00  0.00     0.077 H 
ATOM    138  H44 SER d   1       9.765  17.619  -4.701  0.00  0.00     0.077 H 
BRANCH 136 139
ATOM    139  OG  SER d   1      11.301  16.958  -5.899  0.00  0.00    -0.398 OA
ATOM    140  H45 SER d   1      11.534  17.840  -6.164  0.00  0.00     0.209 HD
ENDBRANCH 136 139
ENDBRANCH  96 136
ENDBRANCH  94  96
ENDBRANCH  81  92
ENDBRANCH   1  78
TORSDOF 36
