REMARK WARNING: 32 MAX_TORS EXCEEDED!!!
REMARK  36 active torsions:
REMARK  status: ('A' for Active; 'I' for Inactive)
REMARK    1  A    between atoms: N_1  and  CA_2 
REMARK    2  A    between atoms: CA_2  and  C_3 
REMARK    3  A    between atoms: CA_2  and  CB_5 
REMARK       I    between atoms: C_3  and  N_13 
REMARK    4  A    between atoms: CB_5  and  CG_6 
REMARK    5  A    between atoms: CZ_11  and  OH_12 
REMARK    6  A    between atoms: N_13  and  CA_14 
REMARK    7  A    between atoms: CA_14  and  CB_15 
REMARK    8  A    between atoms: CA_14  and  C_17 
REMARK    9  A    between atoms: CB_15  and  OG_16 
REMARK   10  A    between atoms: OG_16  and  P_19 
REMARK       I    between atoms: C_17  and  N_23 
REMARK   11  A    between atoms: CA_24  and  C_25 
REMARK       I    between atoms: C_25  and  N_30 
REMARK   12  A    between atoms: N_30  and  CA_31 
REMARK   13  A    between atoms: CA_31  and  C_32 
REMARK   14  A    between atoms: CA_31  and  CB_34 
REMARK       I    between atoms: C_32  and  N_37 
REMARK   15  A    between atoms: CB_34  and  OG1_35 
REMARK   16  A    between atoms: CB_34  and  CG2_36 
REMARK   17  A    between atoms: N_37  and  CA_38 
REMARK   18  A    between atoms: CA_38  and  C_39 
REMARK   19  A    between atoms: CA_38  and  CB_41 
REMARK       I    between atoms: C_39  and  N_43 
REMARK   20  A    between atoms: CB_41  and  OG_42 
REMARK   21  A    between atoms: CA_44  and  C_45 
REMARK       I    between atoms: C_45  and  N_50 
REMARK   22  A    between atoms: N_50  and  CA_51 
REMARK   23  A    between atoms: CA_51  and  C_52 
REMARK   24  A    between atoms: CA_51  and  CB_54 
REMARK       I    between atoms: C_52  and  N_56 
REMARK   25  A    between atoms: CB_54  and  OG_55 
REMARK   26  A    between atoms: N_56  and  CA_57 
REMARK   27  A    between atoms: CA_57  and  C_58 
REMARK   28  A    between atoms: CA_57  and  CB_60 
REMARK       I    between atoms: C_58  and  N_68 
REMARK   29  A    between atoms: CB_60  and  CG_61 
REMARK   30  A    between atoms: CZ_66  and  OH_67 
REMARK   31  A    between atoms: N_68  and  CA_69 
REMARK   32  A    between atoms: CA_69  and  CB_70 
REMARK   33  A    between atoms: CA_69  and  C_72 
REMARK   34  A    between atoms: CB_70  and  OG_71 
REMARK   35  A    between atoms: OG_71  and  P_74 
REMARK       I    between atoms: C_72  and  N_78 
REMARK   36  A    between atoms: CA_79  and  C_80 
ROOT
ATOM      1  N   PRO d   1      32.608  -5.873  12.170  0.00  0.00    -0.337 N 
ATOM      2  CA  PRO d   1      33.502  -6.959  11.752  0.00  0.00     0.091 C 
ATOM      3  CB  PRO d   1      32.598  -7.865  10.914  0.00  0.00    -0.036 C 
ATOM      4  CG  PRO d   1      31.402  -7.032  10.564  0.00  0.00    -0.048 C 
ATOM      5  CD  PRO d   1      31.231  -6.066  11.682  0.00  0.00    -0.001 C 
ATOM      6  H35 PRO d   1      33.875  -7.499  12.635  0.00  0.00     0.087 H 
ATOM      7  H36 PRO d   1      32.294  -8.748  11.496  0.00  0.00     0.036 H 
ATOM      8  H37 PRO d   1      33.120  -8.189  10.002  0.00  0.00     0.036 H 
ATOM      9  H38 PRO d   1      30.509  -7.667  10.468  0.00  0.00     0.035 H 
ATOM     10  H39 PRO d   1      31.573  -6.496   9.619  0.00  0.00     0.035 H 
ATOM     11  H40 PRO d   1      30.803  -5.119  11.323  0.00  0.00     0.064 H 
ATOM     12  H41 PRO d   1      30.588  -6.484  12.470  0.00  0.00     0.064 H 
ATOM     13  C   SER d   1      33.093  -4.880  12.946  0.00  0.00     0.245 C 
ATOM     14  O   SER d   1      34.262  -4.849  13.337  0.00  0.00    -0.271 OA
ENDROOT
BRANCH  13  15
ATOM     15  CA  SER d   1      32.126  -3.774  13.357  0.00  0.00     0.109 C 
ATOM     16  H31 SER d   1      31.100  -4.168  13.308  0.00  0.00     0.090 H 
BRANCH  15  17
ATOM     17  N   SER d   1      32.394  -3.349  14.729  0.00  0.00    -0.344 N 
ATOM     18  C   THR d   1      32.214  -4.185  15.750  0.00  0.00     0.243 C 
ATOM     19  O   THR d   1      31.905  -5.360  15.594  0.00  0.00    -0.271 OA
ATOM     20  H30 SER d   1      32.717  -2.419  14.904  0.00  0.00     0.163 HD
BRANCH  18  21
ATOM     21  CA  THR d   1      32.406  -3.635  17.159  0.00  0.00     0.113 C 
ATOM     22  H24 THR d   1      33.250  -4.167  17.622  0.00  0.00     0.091 H 
BRANCH  21  23
ATOM     23  N   THR d   1      32.742  -2.212  17.165  0.00  0.00    -0.344 N 
ATOM     24  C   PRO d   1      33.966  -1.790  17.476  0.00  0.00     0.241 C 
ATOM     25  O   PRO d   1      34.846  -2.547  17.895  0.00  0.00    -0.271 OA
ATOM     26  H23 THR d   1      32.038  -1.542  16.931  0.00  0.00     0.163 HD
BRANCH  24  27
ATOM     27  CA  PRO d   1      34.266  -0.293  17.278  0.00  0.00     0.091 C 
ATOM     28  N   PRO d   1      33.143   0.486  16.759  0.00  0.00    -0.337 N 
ATOM     29  C   SEP d   1      32.692   0.355  15.496  0.00  0.00     0.245 C 
ATOM     30  CD  PRO d   1      32.609   1.426  17.763  0.00  0.00    -0.001 C 
ATOM     31  O   SEP d   1      33.202  -0.413  14.667  0.00  0.00    -0.271 OA
ATOM     32  CG  PRO d   1      33.260   0.985  19.039  0.00  0.00    -0.048 C 
ATOM     33  H21 PRO d   1      31.514   1.346  17.833  0.00  0.00     0.064 H 
ATOM     34  H22 PRO d   1      32.886   2.462  17.518  0.00  0.00     0.064 H 
ATOM     35  CB  PRO d   1      34.586   0.409  18.602  0.00  0.00    -0.036 C 
ATOM     36  H19 PRO d   1      33.410   1.839  19.715  0.00  0.00     0.035 H 
ATOM     37  H20 PRO d   1      32.651   0.221  19.544  0.00  0.00     0.035 H 
ATOM     38  H17 PRO d   1      35.329   1.207  18.452  0.00  0.00     0.036 H 
ATOM     39  H18 PRO d   1      34.964  -0.309  19.344  0.00  0.00     0.036 H 
ATOM     40  H16 PRO d   1      35.121  -0.210  16.591  0.00  0.00     0.087 H 
BRANCH  29  41
ATOM     41  CA  SEP d   1      31.498   1.210  15.108  0.00  0.00     0.110 C 
ATOM     42  H13 SEP d   1      31.354   2.012  15.847  0.00  0.00     0.090 H 
BRANCH  41  43
ATOM     43  N   SEP d   1      31.774   1.781  13.819  0.00  0.00    -0.344 N 
ATOM     44  C   TYR d   1      31.677   3.075  13.549  0.00  0.00     0.249 C 
ATOM     45  O   TYR d   1      31.212   3.922  14.328  0.00  0.00    -0.271 OA
ATOM     46  H12 SEP d   1      32.056   1.166  13.082  0.00  0.00     0.163 HD
BRANCH  44  47
ATOM     47  CA  TYR d   1      32.152   3.451  12.159  0.00  0.00     0.179 C 
ATOM     48  H4  TYR d   1      32.112   2.548  11.533  0.00  0.00     0.099 H 
BRANCH  47  49
ATOM     49  N   TYR d   1      31.267   4.464  11.534  0.00  0.00    -0.066 N 
ATOM     50  H1  TYR d   1      31.612   4.689  10.614  0.00  0.00     0.275 HD
ATOM     51  H2  TYR d   1      31.256   5.297  12.102  0.00  0.00     0.275 HD
ATOM     52  H3  TYR d   1      30.332   4.094  11.461  0.00  0.00     0.275 HD
ENDBRANCH  47  49
BRANCH  47  53
ATOM     53  CB  TYR d   1      33.605   3.914  12.216  0.00  0.00    -0.006 C 
ATOM     54  H5  TYR d   1      33.669   4.784  12.887  0.00  0.00     0.043 H 
ATOM     55  H6  TYR d   1      33.918   4.208  11.203  0.00  0.00     0.043 H 
BRANCH  53  56
ATOM     56  CG  TYR d   1      34.557   2.840  12.724  0.00  0.00    -0.056 A 
ATOM     57  CD1 TYR d   1      35.076   1.858  11.863  0.00  0.00    -0.074 A 
ATOM     58  CE1 TYR d   1      35.949   0.867  12.345  0.00  0.00    -0.051 A 
ATOM     59  H7  TYR d   1      34.800   1.865  10.815  0.00  0.00     0.084 H 
ATOM     60  CZ  TYR d   1      36.298   0.883  13.688  0.00  0.00     0.065 A 
ATOM     61  H9  TYR d   1      36.342   0.106  11.681  0.00  0.00     0.087 H 
ATOM     62  CE2 TYR d   1      35.796   1.844  14.540  0.00  0.00    -0.051 A 
ATOM     63  CD2 TYR d   1      34.934   2.803  14.060  0.00  0.00    -0.074 A 
ATOM     64  H10 TYR d   1      36.080   1.844  15.586  0.00  0.00     0.087 H 
ATOM     65  H8  TYR d   1      34.539   3.548  14.742  0.00  0.00     0.084 H 
BRANCH  60  66
ATOM     66  OH  TYR d   1      37.151  -0.046  14.199  0.00  0.00    -0.361 OA
ATOM     67  H11 TYR d   1      36.712  -0.532  14.887  0.00  0.00     0.217 HD
ENDBRANCH  60  66
ENDBRANCH  53  56
ENDBRANCH  47  53
ENDBRANCH  44  47
ENDBRANCH  41  43
BRANCH  41  68
ATOM     68  CB  SEP d   1      30.253   0.344  15.057  0.00  0.00     0.059 C 
ATOM     69  H14 SEP d   1      30.283  -0.289  14.158  0.00  0.00     0.079 H 
ATOM     70  H15 SEP d   1      29.361   0.986  15.024  0.00  0.00     0.079 H 
BRANCH  68  71
ATOM     71  OG  SEP d   1      30.201  -0.473  16.205  0.00  0.00    -0.280 OA
BRANCH  71  72
ATOM     72  P   SEP d   1      28.877  -0.199  17.106  0.00  0.00     0.422 P 
ATOM     73  O1P SEP d   1      28.929  -1.284  18.296  0.00  0.00    -0.617 OA
ATOM     74  O2P SEP d   1      28.882   1.278  17.713  0.00  0.00    -0.617 OA
ATOM     75  O3P SEP d   1      27.547  -0.427  16.221  0.00  0.00    -0.617 OA
ENDBRANCH  71  72
ENDBRANCH  68  71
ENDBRANCH  41  68
ENDBRANCH  29  41
ENDBRANCH  24  27
ENDBRANCH  21  23
BRANCH  21  76
ATOM     76  CB  THR d   1      31.136  -3.963  17.968  0.00  0.00     0.060 C 
ATOM     77  H25 THR d   1      30.945  -5.043  17.886  0.00  0.00     0.086 H 
BRANCH  76  78
ATOM     78  OG1 THR d   1      30.012  -3.262  17.418  0.00  0.00    -0.393 OA
ATOM     79  H26 THR d   1      30.175  -2.327  17.455  0.00  0.00     0.210 HD
ENDBRANCH  76  78
BRANCH  76  80
ATOM     80  CG2 THR d   1      31.316  -3.624  19.445  0.00  0.00    -0.050 C 
ATOM     81  H27 THR d   1      30.394  -3.869  19.992  0.00  0.00     0.031 H 
ATOM     82  H28 THR d   1      31.531  -2.550  19.551  0.00  0.00     0.031 H 
ATOM     83  H29 THR d   1      32.153  -4.208  19.856  0.00  0.00     0.031 H 
ENDBRANCH  76  80
ENDBRANCH  21  76
ENDBRANCH  18  21
ENDBRANCH  15  17
BRANCH  15  84
ATOM     84  CB  SER d   1      32.239  -2.600  12.399  0.00  0.00     0.044 C 
ATOM     85  H32 SER d   1      31.574  -1.790  12.734  0.00  0.00     0.077 H 
ATOM     86  H33 SER d   1      31.945  -2.923  11.389  0.00  0.00     0.077 H 
BRANCH  84  87
ATOM     87  OG  SER d   1      33.565  -2.134  12.372  0.00  0.00    -0.398 OA
ATOM     88  H34 SER d   1      33.819  -1.855  13.244  0.00  0.00     0.209 HD
ENDBRANCH  84  87
ENDBRANCH  15  84
ENDBRANCH  13  15
BRANCH   2  89
ATOM     89  C   PRO d   1      34.705  -6.475  10.932  0.00  0.00     0.241 C 
ATOM     90  O   PRO d   1      34.588  -5.526  10.137  0.00  0.00    -0.271 OA
ATOM     91  N   SER d   1      35.857  -7.105  11.157  0.00  0.00    -0.344 N 
ATOM     92  H42 SER d   1      35.910  -7.769  11.903  0.00  0.00     0.163 HD
BRANCH  91  93
ATOM     93  CA  SER d   1      37.049  -6.853  10.342  0.00  0.00     0.109 C 
ATOM     94  H43 SER d   1      37.167  -5.766  10.226  0.00  0.00     0.090 H 
BRANCH  93  95
ATOM     95  C   SER d   1      36.892  -7.473   8.945  0.00  0.00     0.243 C 
ATOM     96  O   SER d   1      36.142  -8.451   8.787  0.00  0.00    -0.271 OA
ATOM     97  N   TYR d   1      37.560  -6.904   7.936  0.00  0.00    -0.346 N 
ATOM     98  H47 TYR d   1      38.135  -6.104   8.108  0.00  0.00     0.163 HD
BRANCH  97  99
ATOM     99  CA  TYR d   1      37.452  -7.451   6.571  0.00  0.00     0.093 C 
ATOM    100  H48 TYR d   1      36.419  -7.816   6.475  0.00  0.00     0.088 H 
BRANCH  99 101
ATOM    101  C   TYR d   1      38.354  -8.677   6.361  0.00  0.00     0.241 C 
ATOM    102  O   TYR d   1      39.422  -8.776   6.949  0.00  0.00    -0.271 OA
ATOM    103  N   SEP d   1      37.887  -9.625   5.552  0.00  0.00    -0.344 N 
ATOM    104  H56 SEP d   1      36.984  -9.504   5.139  0.00  0.00     0.163 HD
BRANCH 103 105
ATOM    105  CA  SEP d   1      38.648 -10.844   5.242  0.00  0.00     0.110 C 
ATOM    106  H57 SEP d   1      39.712 -10.576   5.164  0.00  0.00     0.090 H 
BRANCH 105 107
ATOM    107  CB  SEP d   1      38.511 -11.898   6.360  0.00  0.00     0.059 C 
ATOM    108  H58 SEP d   1      38.483 -11.382   7.331  0.00  0.00     0.079 H 
ATOM    109  H59 SEP d   1      39.384 -12.566   6.325  0.00  0.00     0.079 H 
BRANCH 107 110
ATOM    110  OG  SEP d   1      37.336 -12.676   6.223  0.00  0.00    -0.280 OA
BRANCH 110 111
ATOM    111  P   SEP d   1      37.359 -13.964   7.205  0.00  0.00     0.422 P 
ATOM    112  O1P SEP d   1      36.844 -13.483   8.647  0.00  0.00    -0.617 OA
ATOM    113  O2P SEP d   1      36.406 -15.130   6.625  0.00  0.00    -0.617 OA
ATOM    114  O3P SEP d   1      38.860 -14.560   7.324  0.00  0.00    -0.617 OA
ENDBRANCH 110 111
ENDBRANCH 107 110
ENDBRANCH 105 107
BRANCH 105 115
ATOM    115  C   SEP d   1      38.193 -11.385   3.889  0.00  0.00     0.245 C 
ATOM    116  O   SEP d   1      37.184 -10.916   3.362  0.00  0.00    -0.271 OA
ATOM    117  N   PRO d   1      38.942 -12.355   3.312  0.00  0.00    -0.339 N 
ATOM    118  CA  PRO d   1      38.573 -12.938   2.025  0.00  0.00     0.065 C 
ATOM    119  CD  PRO d   1      40.193 -12.944   3.812  0.00  0.00    -0.001 C 
ATOM    120  CB  PRO d   1      39.818 -13.745   1.634  0.00  0.00    -0.039 C 
ATOM    121  H60 PRO d   1      38.355 -12.153   1.286  0.00  0.00     0.084 H 
ATOM    122  CG  PRO d   1      40.898 -13.293   2.548  0.00  0.00    -0.048 C 
ATOM    123  H62 PRO d   1      40.092 -13.543   0.588  0.00  0.00     0.036 H 
ATOM    124  H63 PRO d   1      39.633 -14.822   1.763  0.00  0.00     0.036 H 
ATOM    125  H64 PRO d   1      41.414 -12.414   2.135  0.00  0.00     0.035 H 
ATOM    126  H65 PRO d   1      41.626 -14.100   2.719  0.00  0.00     0.035 H 
ATOM    127  H66 PRO d   1      39.998 -13.839   4.421  0.00  0.00     0.064 H 
ATOM    128  H67 PRO d   1      40.769 -12.217   4.403  0.00  0.00     0.064 H 
BRANCH 118 129
ATOM    129  C   PRO d   1      37.378 -13.875   2.148  0.00  0.00     0.110 C 
ATOM    130  O   PRO d   1      36.290 -13.549   1.681  0.00  0.00    -0.305 OA
ATOM    131  H61 PRO d   1      37.489 -14.835   2.651  0.00  0.00     0.146 H 
ENDBRANCH 118 129
ENDBRANCH 105 115
ENDBRANCH 103 105
ENDBRANCH  99 101
BRANCH  99 132
ATOM    132  CB  TYR d   1      37.623  -6.378   5.463  0.00  0.00    -0.014 C 
ATOM    133  H49 TYR d   1      36.871  -5.594   5.636  0.00  0.00     0.043 H 
ATOM    134  H50 TYR d   1      37.432  -6.862   4.494  0.00  0.00     0.043 H 
BRANCH 132 135
ATOM    135  CG  TYR d   1      38.989  -5.705   5.386  0.00  0.00    -0.056 A 
ATOM    136  CD1 TYR d   1      40.066  -6.342   4.762  0.00  0.00    -0.074 A 
ATOM    137  CE1 TYR d   1      41.318  -5.734   4.680  0.00  0.00    -0.051 A 
ATOM    138  H51 TYR d   1      39.925  -7.328   4.334  0.00  0.00     0.084 H 
ATOM    139  CZ  TYR d   1      41.513  -4.477   5.225  0.00  0.00     0.065 A 
ATOM    140  H53 TYR d   1      42.138  -6.246   4.190  0.00  0.00     0.087 H 
ATOM    141  CE2 TYR d   1      40.455  -3.799   5.839  0.00  0.00    -0.051 A 
ATOM    142  CD2 TYR d   1      39.194  -4.418   5.908  0.00  0.00    -0.074 A 
ATOM    143  H54 TYR d   1      40.605  -2.810   6.256  0.00  0.00     0.087 H 
ATOM    144  H52 TYR d   1      38.367  -3.893   6.372  0.00  0.00     0.084 H 
BRANCH 139 145
ATOM    145  OH  TYR d   1      42.770  -3.916   5.132  0.00  0.00    -0.361 OA
ATOM    146  H55 TYR d   1      43.353  -4.520   4.687  0.00  0.00     0.217 HD
ENDBRANCH 139 145
ENDBRANCH 132 135
ENDBRANCH  99 132
ENDBRANCH  97  99
ENDBRANCH  93  95
BRANCH  93 147
ATOM    147  CB  SER d   1      38.291  -7.400  11.043  0.00  0.00     0.044 C 
ATOM    148  H44 SER d   1      39.101  -7.517  10.308  0.00  0.00     0.077 H 
ATOM    149  H45 SER d   1      38.055  -8.378  11.488  0.00  0.00     0.077 H 
BRANCH 147 150
ATOM    150  OG  SER d   1      38.712  -6.512  12.064  0.00  0.00    -0.398 OA
ATOM    151  H46 SER d   1      38.918  -5.667  11.682  0.00  0.00     0.209 HD
ENDBRANCH 147 150
ENDBRANCH  93 147
ENDBRANCH  91  93
ENDBRANCH   2  89
TORSDOF 36
