REMARK  25 active torsions:
REMARK  status: ('A' for Active; 'I' for Inactive)
REMARK    1  A    between atoms: N_1  and  CA_2 
REMARK    2  A    between atoms: CA_2  and  C_3 
REMARK    3  A    between atoms: CA_2  and  CB_5 
REMARK       I    between atoms: C_3  and  N_13 
REMARK    4  A    between atoms: CB_5  and  CG_6 
REMARK    5  A    between atoms: CZ_11  and  OH_12 
REMARK    6  A    between atoms: N_13  and  CA_14 
REMARK    7  A    between atoms: CA_14  and  C_15 
REMARK    8  A    between atoms: CA_14  and  CB_17 
REMARK       I    between atoms: C_15  and  N_19 
REMARK    9  A    between atoms: CB_17  and  OG_18 
REMARK   10  A    between atoms: CA_20  and  C_21 
REMARK       I    between atoms: C_21  and  N_26 
REMARK   11  A    between atoms: N_26  and  CA_27 
REMARK   12  A    between atoms: CA_27  and  C_28 
REMARK   13  A    between atoms: CA_27  and  CB_30 
REMARK       I    between atoms: C_28  and  N_33 
REMARK   14  A    between atoms: CB_30  and  OG1_31 
REMARK   15  A    between atoms: CB_30  and  CG2_32 
REMARK   16  A    between atoms: N_33  and  CA_34 
REMARK   17  A    between atoms: CA_34  and  CB_35 
REMARK   18  A    between atoms: CA_34  and  C_37 
REMARK   19  A    between atoms: CB_35  and  OG_36 
REMARK   20  A    between atoms: OG_36  and  P_39 
REMARK       I    between atoms: C_37  and  N_43 
REMARK   21  A    between atoms: CA_44  and  C_45 
REMARK       I    between atoms: C_45  and  N_50 
REMARK   22  A    between atoms: N_50  and  CA_51 
REMARK   23  A    between atoms: CA_51  and  C_52 
REMARK   24  A    between atoms: CA_51  and  CB_54 
REMARK   25  A    between atoms: CB_54  and  OG_55 
ROOT
ATOM      1  CA  THR d   1      11.000   9.920 -11.850  0.00  0.00     0.113 C 
ATOM      2  H25 THR d   1      11.010  10.799 -12.511  0.00  0.00     0.091 H 
ENDROOT
BRANCH   1   3
ATOM      3  N   THR d   1      12.390   9.617 -11.491  0.00  0.00    -0.344 N 
ATOM      4  C   PRO d   1      13.336  10.560 -11.469  0.00  0.00     0.241 C 
ATOM      5  O   PRO d   1      13.124  11.722 -11.815  0.00  0.00    -0.271 OA
ATOM      6  H24 THR d   1      12.636   8.677 -11.256  0.00  0.00     0.163 HD
BRANCH   4   7
ATOM      7  CA  PRO d   1      14.747  10.146 -11.004  0.00  0.00     0.091 C 
ATOM      8  N   PRO d   1      14.830   8.754 -10.537  0.00  0.00    -0.337 N 
ATOM      9  C   SER d   1      14.254   8.419  -9.365  0.00  0.00     0.245 C 
ATOM     10  CD  PRO d   1      15.542   7.887 -11.502  0.00  0.00    -0.001 C 
ATOM     11  O   SER d   1      13.661   9.238  -8.657  0.00  0.00    -0.271 OA
ATOM     12  CG  PRO d   1      15.666   8.764 -12.732  0.00  0.00    -0.048 C 
ATOM     13  H22 PRO d   1      14.959   6.980 -11.722  0.00  0.00     0.064 H 
ATOM     14  H23 PRO d   1      16.533   7.602 -11.119  0.00  0.00     0.064 H 
ATOM     15  CB  PRO d   1      15.708  10.172 -12.203  0.00  0.00    -0.036 C 
ATOM     16  H20 PRO d   1      16.589   8.530 -13.282  0.00  0.00     0.035 H 
ATOM     17  H21 PRO d   1      14.799   8.626 -13.395  0.00  0.00     0.035 H 
ATOM     18  H18 PRO d   1      16.726  10.439 -11.883  0.00  0.00     0.036 H 
ATOM     19  H19 PRO d   1      15.364  10.887 -12.965  0.00  0.00     0.036 H 
ATOM     20  H17 PRO d   1      15.081  10.834 -10.213  0.00  0.00     0.087 H 
BRANCH   9  21
ATOM     21  CA  SER d   1      14.303   6.943  -8.952  0.00  0.00     0.109 C 
ATOM     22  H13 SER d   1      15.097   6.439  -9.522  0.00  0.00     0.090 H 
BRANCH  21  23
ATOM     23  N   SER d   1      14.598   6.824  -7.534  0.00  0.00    -0.344 N 
ATOM     24  C   TYR d   1      15.587   6.072  -7.062  0.00  0.00     0.249 C 
ATOM     25  O   TYR d   1      16.238   5.282  -7.745  0.00  0.00    -0.271 OA
ATOM     26  H12 SER d   1      14.031   7.331  -6.884  0.00  0.00     0.163 HD
BRANCH  24  27
ATOM     27  CA  TYR d   1      15.874   6.239  -5.582  0.00  0.00     0.179 C 
ATOM     28  H4  TYR d   1      15.011   6.737  -5.116  0.00  0.00     0.099 H 
BRANCH  27  29
ATOM     29  N   TYR d   1      16.058   4.955  -4.935  0.00  0.00    -0.066 N 
ATOM     30  H1  TYR d   1      16.247   5.097  -3.955  0.00  0.00     0.275 HD
ATOM     31  H2  TYR d   1      16.834   4.473  -5.360  0.00  0.00     0.275 HD
ATOM     32  H3  TYR d   1      15.221   4.403  -5.040  0.00  0.00     0.275 HD
ENDBRANCH  27  29
BRANCH  27  33
ATOM     33  CB  TYR d   1      17.103   7.126  -5.393  0.00  0.00    -0.006 C 
ATOM     34  H5  TYR d   1      17.967   6.640  -5.870  0.00  0.00     0.043 H 
ATOM     35  H6  TYR d   1      17.295   7.240  -4.316  0.00  0.00     0.043 H 
BRANCH  33  36
ATOM     36  CG  TYR d   1      16.917   8.501  -6.004  0.00  0.00    -0.056 A 
ATOM     37  CD1 TYR d   1      16.284   9.518  -5.294  0.00  0.00    -0.074 A 
ATOM     38  CE1 TYR d   1      16.105  10.780  -5.851  0.00  0.00    -0.051 A 
ATOM     39  H7  TYR d   1      15.925   9.323  -4.290  0.00  0.00     0.084 H 
ATOM     40  CZ  TYR d   1      16.544  11.032  -7.143  0.00  0.00     0.065 A 
ATOM     41  H9  TYR d   1      15.624  11.564  -5.277  0.00  0.00     0.087 H 
ATOM     42  CE2 TYR d   1      17.161  10.036  -7.879  0.00  0.00    -0.051 A 
ATOM     43  CD2 TYR d   1      17.342   8.769  -7.305  0.00  0.00    -0.074 A 
ATOM     44  H10 TYR d   1      17.501  10.233  -8.889  0.00  0.00     0.087 H 
ATOM     45  H8  TYR d   1      17.820   7.986  -7.882  0.00  0.00     0.084 H 
BRANCH  40  46
ATOM     46  OH  TYR d   1      16.361  12.278  -7.702  0.00  0.00    -0.361 OA
ATOM     47  H11 TYR d   1      15.825  12.198  -8.482  0.00  0.00     0.217 HD
ENDBRANCH  40  46
ENDBRANCH  33  36
ENDBRANCH  27  33
ENDBRANCH  24  27
ENDBRANCH  21  23
BRANCH  21  48
ATOM     48  CB  SER d   1      12.967   6.282  -9.274  0.00  0.00     0.044 C 
ATOM     49  H14 SER d   1      12.232   6.564  -8.506  0.00  0.00     0.077 H 
ATOM     50  H15 SER d   1      13.097   5.190  -9.273  0.00  0.00     0.077 H 
BRANCH  48  51
ATOM     51  OG  SER d   1      12.490   6.691 -10.545  0.00  0.00    -0.398 OA
ATOM     52  H16 SER d   1      11.659   6.266 -10.722  0.00  0.00     0.209 HD
ENDBRANCH  48  51
ENDBRANCH  21  48
ENDBRANCH   9  21
ENDBRANCH   4   7
ENDBRANCH   1   3
BRANCH   1  53
ATOM     53  C   THR d   1      10.139  10.250 -10.623  0.00  0.00     0.243 C 
ATOM     54  O   THR d   1       8.967  10.625 -10.755  0.00  0.00    -0.271 OA
ATOM     55  N   SEP d   1      10.721  10.098  -9.435  0.00  0.00    -0.344 N 
ATOM     56  H31 SEP d   1      11.681   9.822  -9.398  0.00  0.00     0.163 HD
BRANCH  55  57
ATOM     57  CA  SEP d   1       9.999  10.323  -8.180  0.00  0.00     0.110 C 
ATOM     58  H32 SEP d   1       8.957  10.000  -8.318  0.00  0.00     0.090 H 
BRANCH  57  59
ATOM     59  CB  SEP d   1      10.627   9.488  -7.064  0.00  0.00     0.059 C 
ATOM     60  H33 SEP d   1      11.550   9.982  -6.725  0.00  0.00     0.079 H 
ATOM     61  H34 SEP d   1      10.869   8.490  -7.458  0.00  0.00     0.079 H 
BRANCH  59  62
ATOM     62  OG  SEP d   1       9.749   9.347  -5.961  0.00  0.00    -0.280 OA
BRANCH  62  63
ATOM     63  P   SEP d   1       9.669   7.789  -5.549  0.00  0.00     0.422 P 
ATOM     64  O1P SEP d   1       8.449   7.089  -6.335  0.00  0.00    -0.617 OA
ATOM     65  O2P SEP d   1      11.057   7.061  -5.952  0.00  0.00    -0.617 OA
ATOM     66  O3P SEP d   1       9.414   7.677  -3.963  0.00  0.00    -0.617 OA
ENDBRANCH  62  63
ENDBRANCH  59  62
ENDBRANCH  57  59
BRANCH  57  67
ATOM     67  C   SEP d   1       9.995  11.804  -7.783  0.00  0.00     0.245 C 
ATOM     68  O   SEP d   1      11.020  12.477  -7.927  0.00  0.00    -0.271 OA
ATOM     69  N   PRO d   1       8.845  12.314  -7.284  0.00  0.00    -0.337 N 
ATOM     70  CA  PRO d   1       8.727  13.702  -6.813  0.00  0.00     0.091 C 
ATOM     71  CD  PRO d   1       7.561  11.594  -7.165  0.00  0.00    -0.001 C 
ATOM     72  CB  PRO d   1       7.278  13.779  -6.306  0.00  0.00    -0.036 C 
ATOM     73  H35 PRO d   1       8.886  14.396  -7.652  0.00  0.00     0.087 H 
ATOM     74  CG  PRO d   1       6.564  12.699  -7.025  0.00  0.00    -0.048 C 
ATOM     75  H36 PRO d   1       6.837  14.758  -6.543  0.00  0.00     0.036 H 
ATOM     76  H37 PRO d   1       7.239  13.612  -5.220  0.00  0.00     0.036 H 
ATOM     77  H38 PRO d   1       6.234  13.048  -8.014  0.00  0.00     0.035 H 
ATOM     78  H39 PRO d   1       5.692  12.361  -6.445  0.00  0.00     0.035 H 
ATOM     79  H40 PRO d   1       7.555  10.942  -6.279  0.00  0.00     0.064 H 
ATOM     80  H41 PRO d   1       7.361  10.993  -8.064  0.00  0.00     0.064 H 
BRANCH  70  81
ATOM     81  C   PRO d   1       9.692  14.076  -5.679  0.00  0.00     0.241 C 
ATOM     82  O   PRO d   1      10.211  13.198  -4.987  0.00  0.00    -0.271 OA
ATOM     83  N   SER d   1       9.917  15.377  -5.503  0.00  0.00    -0.343 N 
ATOM     84  H42 SER d   1       9.483  16.026  -6.128  0.00  0.00     0.163 HD
BRANCH  83  85
ATOM     85  CA  SER d   1      10.773  15.898  -4.433  0.00  0.00     0.116 C 
ATOM     86  H43 SER d   1      11.634  15.221  -4.331  0.00  0.00     0.093 H 
BRANCH  85  87
ATOM     87  C   SER d   1      10.044  15.933  -3.090  0.00  0.00     0.198 C 
ATOM     88  O   SER d   1       9.279  16.887  -2.787  0.00  0.00    -0.646 OA
ATOM     89  O44 SER d   1      10.211  14.990  -2.271  0.00  0.00    -0.646 OA
ENDBRANCH  85  87
BRANCH  85  90
ATOM     90  CB  SER d   1      11.303  17.291  -4.796  0.00  0.00     0.045 C 
ATOM     91  H44 SER d   1      11.837  17.710  -3.930  0.00  0.00     0.077 H 
ATOM     92  H45 SER d   1      10.455  17.943  -5.055  0.00  0.00     0.077 H 
BRANCH  90  93
ATOM     93  OG  SER d   1      12.191  17.223  -5.901  0.00  0.00    -0.398 OA
ATOM     94  H46 SER d   1      12.927  16.664  -5.681  0.00  0.00     0.209 HD
ENDBRANCH  90  93
ENDBRANCH  85  90
ENDBRANCH  83  85
ENDBRANCH  70  81
ENDBRANCH  57  67
ENDBRANCH  55  57
ENDBRANCH   1  53
BRANCH   1  95
ATOM     95  CB  THR d   1      10.343   8.748 -12.607  0.00  0.00     0.060 C 
ATOM     96  H26 THR d   1       9.338   9.055 -12.933  0.00  0.00     0.086 H 
BRANCH  95  97
ATOM     97  OG1 THR d   1      10.227   7.616 -11.736  0.00  0.00    -0.393 OA
ATOM     98  H27 THR d   1      11.091   7.356 -11.440  0.00  0.00     0.210 HD
ENDBRANCH  95  97
BRANCH  95  99
ATOM     99  CG2 THR d   1      11.163   8.366 -13.833  0.00  0.00    -0.050 C 
ATOM    100  H28 THR d   1      10.675   7.530 -14.355  0.00  0.00     0.031 H 
ATOM    101  H29 THR d   1      12.173   8.063 -13.519  0.00  0.00     0.031 H 
ATOM    102  H30 THR d   1      11.234   9.230 -14.511  0.00  0.00     0.031 H 
ENDBRANCH  95  99
ENDBRANCH   1  95
TORSDOF 25
