REMARK  21 active torsions:
REMARK  status: ('A' for Active; 'I' for Inactive)
REMARK    1  A    between atoms: N_1  and  CA_2 
REMARK    2  A    between atoms: CA_2  and  C_3 
REMARK    3  A    between atoms: CA_2  and  CB_5 
REMARK       I    between atoms: C_3  and  N_13 
REMARK    4  A    between atoms: CB_5  and  CG_6 
REMARK    5  A    between atoms: CZ_11  and  OH_12 
REMARK    6  A    between atoms: N_13  and  CA_14 
REMARK    7  A    between atoms: CA_14  and  CB_15 
REMARK    8  A    between atoms: CA_14  and  C_17 
REMARK    9  A    between atoms: CB_15  and  OG_16 
REMARK   10  A    between atoms: OG_16  and  P_19 
REMARK       I    between atoms: C_17  and  N_23 
REMARK   11  A    between atoms: CA_24  and  C_25 
REMARK       I    between atoms: C_25  and  N_30 
REMARK   12  A    between atoms: N_30  and  CA_31 
REMARK   13  A    between atoms: CA_31  and  C_32 
REMARK   14  A    between atoms: CA_31  and  CB_34 
REMARK       I    between atoms: C_32  and  N_37 
REMARK   15  A    between atoms: CB_34  and  OG1_35 
REMARK   16  A    between atoms: CB_34  and  CG2_36 
REMARK   17  A    between atoms: N_37  and  CA_38 
REMARK   18  A    between atoms: CA_38  and  C_39 
REMARK   19  A    between atoms: CA_38  and  CB_41 
REMARK       I    between atoms: C_39  and  N_43 
REMARK   20  A    between atoms: CB_41  and  OG_42 
REMARK   21  A    between atoms: CA_44  and  C_45 
ROOT
ATOM      1  C   SEP d   1      33.706  -0.541  15.410  0.00  0.00     0.245 C 
ATOM      2  O   SEP d   1      34.167  -1.229  14.488  0.00  0.00    -0.271 OA
ATOM      3  N   PRO d   1      34.243  -0.523  16.653  0.00  0.00    -0.337 N 
ATOM      4  CA  PRO d   1      35.370  -1.391  17.030  0.00  0.00     0.091 C 
ATOM      5  CB  PRO d   1      35.708  -0.931  18.466  0.00  0.00    -0.036 C 
ATOM      6  CG  PRO d   1      34.461  -0.301  18.969  0.00  0.00    -0.048 C 
ATOM      7  CD  PRO d   1      33.835   0.354  17.769  0.00  0.00    -0.001 C 
ATOM      8  H16 PRO d   1      36.221  -1.217  16.355  0.00  0.00     0.087 H 
ATOM      9  H17 PRO d   1      36.532  -0.203  18.455  0.00  0.00     0.036 H 
ATOM     10  H18 PRO d   1      35.987  -1.791  19.092  0.00  0.00     0.036 H 
ATOM     11  H19 PRO d   1      34.692   0.449  19.740  0.00  0.00     0.035 H 
ATOM     12  H20 PRO d   1      33.787  -1.062  19.388  0.00  0.00     0.035 H 
ATOM     13  H21 PRO d   1      32.740   0.387  17.864  0.00  0.00     0.064 H 
ATOM     14  H22 PRO d   1      34.222   1.374  17.630  0.00  0.00     0.064 H 
ENDROOT
BRANCH   4  15
ATOM     15  C   PRO d   1      35.034  -2.890  17.019  0.00  0.00     0.241 C 
ATOM     16  O   PRO d   1      35.039  -3.525  18.070  0.00  0.00    -0.271 OA
ATOM     17  N   THR d   1      34.779  -3.441  15.832  0.00  0.00    -0.344 N 
ATOM     18  H23 THR d   1      34.875  -2.880  15.009  0.00  0.00     0.163 HD
BRANCH  17  19
ATOM     19  CA  THR d   1      34.361  -4.845  15.689  0.00  0.00     0.113 C 
ATOM     20  H24 THR d   1      34.215  -5.255  16.699  0.00  0.00     0.091 H 
BRANCH  19  21
ATOM     21  C   THR d   1      35.424  -5.682  14.976  0.00  0.00     0.243 C 
ATOM     22  O   THR d   1      36.347  -5.134  14.363  0.00  0.00    -0.271 OA
ATOM     23  N   SER d   1      35.279  -7.006  15.051  0.00  0.00    -0.344 N 
ATOM     24  H30 SER d   1      34.500  -7.379  15.555  0.00  0.00     0.163 HD
BRANCH  23  25
ATOM     25  CA  SER d   1      36.221  -7.931  14.421  0.00  0.00     0.109 C 
ATOM     26  H31 SER d   1      37.236  -7.627  14.717  0.00  0.00     0.090 H 
BRANCH  25  27
ATOM     27  C   SER d   1      36.149  -7.881  12.888  0.00  0.00     0.245 C 
ATOM     28  O   SER d   1      35.051  -7.860  12.320  0.00  0.00    -0.271 OA
ATOM     29  N   PRO d   1      37.320  -7.857  12.215  0.00  0.00    -0.336 N 
ATOM     30  CA  PRO d   1      37.363  -7.867  10.753  0.00  0.00     0.098 C 
ATOM     31  CD  PRO d   1      38.678  -7.802  12.794  0.00  0.00    -0.001 C 
ATOM     32  CB  PRO d   1      38.748  -7.295  10.455  0.00  0.00    -0.035 C 
ATOM     33  H35 PRO d   1      36.569  -7.229  10.338  0.00  0.00     0.089 H 
ATOM     34  CG  PRO d   1      39.584  -7.777  11.583  0.00  0.00    -0.048 C 
ATOM     35  H36 PRO d   1      38.720  -6.196  10.430  0.00  0.00     0.036 H 
ATOM     36  H37 PRO d   1      39.130  -7.674   9.495  0.00  0.00     0.036 H 
ATOM     37  H38 PRO d   1      40.429  -7.093  11.752  0.00  0.00     0.035 H 
ATOM     38  H39 PRO d   1      39.966  -8.786  11.371  0.00  0.00     0.035 H 
ATOM     39  H40 PRO d   1      38.876  -8.689  13.414  0.00  0.00     0.064 H 
ATOM     40  H41 PRO d   1      38.809  -6.894  13.401  0.00  0.00     0.064 H 
BRANCH  30  41
ATOM     41  C   PRO d   1      37.241  -9.274  10.159  0.00  0.00     0.196 C 
ATOM     42  O   PRO d   1      36.849 -10.230  10.881  0.00  0.00    -0.646 OA
ATOM     43  O36 PRO d   1      37.532  -9.475   8.950  0.00  0.00    -0.646 OA
ENDBRANCH  30  41
ENDBRANCH  25  27
BRANCH  25  44
ATOM     44  CB  SER d   1      35.988  -9.362  14.926  0.00  0.00     0.044 C 
ATOM     45  H32 SER d   1      34.957  -9.663  14.687  0.00  0.00     0.077 H 
ATOM     46  H33 SER d   1      36.133  -9.385  16.016  0.00  0.00     0.077 H 
BRANCH  44  47
ATOM     47  OG  SER d   1      36.887 -10.275  14.322  0.00  0.00    -0.398 OA
ATOM     48  H34 SER d   1      36.764 -10.263  13.380  0.00  0.00     0.209 HD
ENDBRANCH  44  47
ENDBRANCH  25  44
ENDBRANCH  23  25
ENDBRANCH  19  21
BRANCH  19  49
ATOM     49  CB  THR d   1      33.026  -4.982  14.908  0.00  0.00     0.060 C 
ATOM     50  H25 THR d   1      32.793  -6.051  14.796  0.00  0.00     0.086 H 
BRANCH  49  51
ATOM     51  OG1 THR d   1      33.171  -4.399  13.608  0.00  0.00    -0.393 OA
ATOM     52  H26 THR d   1      33.393  -3.480  13.697  0.00  0.00     0.210 HD
ENDBRANCH  49  51
BRANCH  49  53
ATOM     53  CG2 THR d   1      31.874  -4.309  15.647  0.00  0.00    -0.050 C 
ATOM     54  H27 THR d   1      30.947  -4.426  15.066  0.00  0.00     0.031 H 
ATOM     55  H28 THR d   1      32.095  -3.239  15.773  0.00  0.00     0.031 H 
ATOM     56  H29 THR d   1      31.749  -4.777  16.635  0.00  0.00     0.031 H 
ENDBRANCH  49  53
ENDBRANCH  19  49
ENDBRANCH  17  19
ENDBRANCH   4  15
BRANCH   1  57
ATOM     57  CA  SEP d   1      32.487   0.352  15.152  0.00  0.00     0.110 C 
ATOM     58  H13 SEP d   1      32.489   1.190  15.865  0.00  0.00     0.090 H 
BRANCH  57  59
ATOM     59  N   SEP d   1      32.584   0.869  13.794  0.00  0.00    -0.344 N 
ATOM     60  C   TYR d   1      32.518   2.163  13.500  0.00  0.00     0.249 C 
ATOM     61  O   TYR d   1      32.194   3.048  14.306  0.00  0.00    -0.271 OA
ATOM     62  H12 SEP d   1      32.706   0.217  13.045  0.00  0.00     0.163 HD
BRANCH  60  63
ATOM     63  CA  TYR d   1      32.883   2.500  12.065  0.00  0.00     0.179 C 
ATOM     64  H4  TYR d   1      32.812   1.585  11.459  0.00  0.00     0.099 H 
BRANCH  63  65
ATOM     65  N   TYR d   1      31.968   3.479  11.513  0.00  0.00    -0.066 N 
ATOM     66  H1  TYR d   1      32.231   3.686  10.562  0.00  0.00     0.275 HD
ATOM     67  H2  TYR d   1      32.007   4.323  12.063  0.00  0.00     0.275 HD
ATOM     68  H3  TYR d   1      31.030   3.110  11.530  0.00  0.00     0.275 HD
ENDBRANCH  63  65
BRANCH  63  69
ATOM     69  CB  TYR d   1      34.334   2.999  12.030  0.00  0.00    -0.006 C 
ATOM     70  H5  TYR d   1      34.403   3.926  12.618  0.00  0.00     0.043 H 
ATOM     71  H6  TYR d   1      34.611   3.205  10.986  0.00  0.00     0.043 H 
BRANCH  69  72
ATOM     72  CG  TYR d   1      35.307   1.990  12.600  0.00  0.00    -0.056 A 
ATOM     73  CD1 TYR d   1      35.741   0.911  11.832  0.00  0.00    -0.074 A 
ATOM     74  CE1 TYR d   1      36.625  -0.031  12.358  0.00  0.00    -0.051 A 
ATOM     75  H7  TYR d   1      35.387   0.802  10.813  0.00  0.00     0.084 H 
ATOM     76  CZ  TYR d   1      37.077   0.106  13.663  0.00  0.00     0.065 A 
ATOM     77  H9  TYR d   1      36.957  -0.865  11.751  0.00  0.00     0.087 H 
ATOM     78  CE2 TYR d   1      36.654   1.163  14.452  0.00  0.00    -0.051 A 
ATOM     79  CD2 TYR d   1      35.774   2.097  13.917  0.00  0.00    -0.074 A 
ATOM     80  H10 TYR d   1      37.005   1.261  15.473  0.00  0.00     0.087 H 
ATOM     81  H8  TYR d   1      35.442   2.926  14.532  0.00  0.00     0.084 H 
BRANCH  76  82
ATOM     82  OH  TYR d   1      37.954  -0.818  14.170  0.00  0.00    -0.361 OA
ATOM     83  H11 TYR d   1      38.142  -1.472  13.507  0.00  0.00     0.217 HD
ENDBRANCH  76  82
ENDBRANCH  69  72
ENDBRANCH  63  69
ENDBRANCH  60  63
ENDBRANCH  57  59
BRANCH  57  84
ATOM     84  CB  SEP d   1      31.193  -0.446  15.324  0.00  0.00     0.059 C 
ATOM     85  H14 SEP d   1      31.099  -1.167  14.499  0.00  0.00     0.079 H 
ATOM     86  H15 SEP d   1      30.337   0.244  15.307  0.00  0.00     0.079 H 
BRANCH  84  87
ATOM     87  OG  SEP d   1      31.205  -1.144  16.554  0.00  0.00    -0.280 OA
BRANCH  87  88
ATOM     88  P   SEP d   1      29.835  -0.969  17.375  0.00  0.00     0.422 P 
ATOM     89  O1P SEP d   1      30.177  -0.991  18.952  0.00  0.00    -0.617 OA
ATOM     90  O2P SEP d   1      29.107   0.422  16.996  0.00  0.00    -0.617 OA
ATOM     91  O3P SEP d   1      28.851  -2.189  17.006  0.00  0.00    -0.617 OA
ENDBRANCH  87  88
ENDBRANCH  84  87
ENDBRANCH  57  84
ENDBRANCH   1  57
TORSDOF 21
