REMARK  29 active torsions:
REMARK  status: ('A' for Active; 'I' for Inactive)
REMARK    1  A    between atoms: CA_2  and  C_3 
REMARK       I    between atoms: C_3  and  N_8 
REMARK    2  A    between atoms: N_8  and  CA_9 
REMARK    3  A    between atoms: CA_9  and  C_10 
REMARK    4  A    between atoms: CA_9  and  CB_12 
REMARK       I    between atoms: C_10  and  N_14 
REMARK    5  A    between atoms: CB_12  and  OG_13 
REMARK    6  A    between atoms: N_14  and  CA_15 
REMARK    7  A    between atoms: CA_15  and  C_16 
REMARK    8  A    between atoms: CA_15  and  CB_18 
REMARK       I    between atoms: C_16  and  N_26 
REMARK    9  A    between atoms: CB_18  and  CG_19 
REMARK   10  A    between atoms: CZ_24  and  OH_25 
REMARK   11  A    between atoms: N_26  and  CA_27 
REMARK   12  A    between atoms: CA_27  and  C_28 
REMARK   13  A    between atoms: CA_27  and  CB_30 
REMARK       I    between atoms: C_28  and  N_32 
REMARK   14  A    between atoms: CB_30  and  OG_31 
REMARK   15  A    between atoms: CA_33  and  C_34 
REMARK       I    between atoms: C_34  and  N_39 
REMARK   16  A    between atoms: N_39  and  CA_40 
REMARK   17  A    between atoms: CA_40  and  C_41 
REMARK   18  A    between atoms: CA_40  and  CB_43 
REMARK       I    between atoms: C_41  and  N_46 
REMARK   19  A    between atoms: CB_43  and  OG1_44 
REMARK   20  A    between atoms: CB_43  and  CG2_45 
REMARK   21  A    between atoms: N_46  and  CA_47 
REMARK   22  A    between atoms: CA_47  and  C_48 
REMARK   23  A    between atoms: CA_47  and  CB_50 
REMARK       I    between atoms: C_48  and  N_52 
REMARK   24  A    between atoms: CB_50  and  OG_51 
REMARK   25  A    between atoms: CA_53  and  C_54 
REMARK       I    between atoms: C_54  and  N_59 
REMARK   26  A    between atoms: N_59  and  CA_60 
REMARK   27  A    between atoms: CA_60  and  C_61 
REMARK   28  A    between atoms: CA_60  and  CB_63 
REMARK   29  A    between atoms: CB_63  and  OG_64 
ROOT
ATOM      1  N   PRO d   1      14.869   8.636 -11.032  0.00  0.00    -0.337 N 
ATOM      2  CA  PRO d   1      14.870  10.030 -11.482  0.00  0.00     0.091 C 
ATOM      3  CB  PRO d   1      15.844  10.012 -12.669  0.00  0.00    -0.036 C 
ATOM      4  CG  PRO d   1      15.745   8.630 -13.206  0.00  0.00    -0.048 C 
ATOM      5  CD  PRO d   1      15.582   7.759 -11.986  0.00  0.00    -0.001 C 
ATOM      6  H29 PRO d   1      15.240  10.690 -10.684  0.00  0.00     0.087 H 
ATOM      7  H30 PRO d   1      16.870  10.227 -12.335  0.00  0.00     0.036 H 
ATOM      8  H31 PRO d   1      15.544  10.748 -13.430  0.00  0.00     0.036 H 
ATOM      9  H32 PRO d   1      16.659   8.361 -13.756  0.00  0.00     0.035 H 
ATOM     10  H33 PRO d   1      14.874   8.533 -13.871  0.00  0.00     0.035 H 
ATOM     11  H34 PRO d   1      14.987   6.864 -12.218  0.00  0.00     0.064 H 
ATOM     12  H35 PRO d   1      16.561   7.455 -11.586  0.00  0.00     0.064 H 
ATOM     13  C   SER d   1      14.278   8.273  -9.874  0.00  0.00     0.245 C 
ATOM     14  O   SER d   1      13.779   9.092  -9.085  0.00  0.00    -0.271 OA
ENDROOT
BRANCH  13  15
ATOM     15  CA  SER d   1      14.235   6.778  -9.549  0.00  0.00     0.109 C 
ATOM     16  H25 SER d   1      14.937   6.239 -10.202  0.00  0.00     0.090 H 
BRANCH  15  17
ATOM     17  N   SER d   1      14.625   6.600  -8.166  0.00  0.00    -0.344 N 
ATOM     18  C   TYR d   1      15.679   5.884  -7.788  0.00  0.00     0.241 C 
ATOM     19  O   TYR d   1      16.379   5.220  -8.559  0.00  0.00    -0.271 OA
ATOM     20  H24 SER d   1      14.072   7.039  -7.458  0.00  0.00     0.163 HD
BRANCH  18  21
ATOM     21  CA  TYR d   1      15.987   5.938  -6.297  0.00  0.00     0.093 C 
ATOM     22  H16 TYR d   1      15.113   6.369  -5.787  0.00  0.00     0.088 H 
BRANCH  21  23
ATOM     23  N   TYR d   1      16.217   4.612  -5.733  0.00  0.00    -0.346 N 
ATOM     24  C   SER d   1      15.239   3.714  -5.621  0.00  0.00     0.243 C 
ATOM     25  O   SER d   1      14.082   3.919  -6.000  0.00  0.00    -0.271 OA
ATOM     26  H15 TYR d   1      17.136   4.370  -5.421  0.00  0.00     0.163 HD
BRANCH  24  27
ATOM     27  CA  SER d   1      15.622   2.385  -4.990  0.00  0.00     0.109 C 
ATOM     28  H11 SER d   1      16.357   2.578  -4.194  0.00  0.00     0.090 H 
BRANCH  27  29
ATOM     29  N   SER d   1      14.457   1.734  -4.393  0.00  0.00    -0.344 N 
ATOM     30  C   PRO d   1      13.945   2.118  -3.227  0.00  0.00     0.249 C 
ATOM     31  O   PRO d   1      14.400   3.048  -2.556  0.00  0.00    -0.271 OA
ATOM     32  H10 SER d   1      14.029   0.972  -4.879  0.00  0.00     0.163 HD
BRANCH  30  33
ATOM     33  CA  PRO d   1      12.730   1.337  -2.736  0.00  0.00     0.178 C 
ATOM     34  N   PRO d   1      12.856   0.958  -1.329  0.00  0.00    -0.062 N 
ATOM     35  CD  PRO d   1      11.771   1.522  -0.508  0.00  0.00     0.083 C 
ATOM     36  H1  PRO d   1      13.739   1.296  -0.979  0.00  0.00     0.278 HD
ATOM     37  H2  PRO d   1      12.829  -0.047  -1.259  0.00  0.00     0.278 HD
ATOM     38  CG  PRO d   1      11.292   2.674  -1.339  0.00  0.00    -0.040 C 
ATOM     39  H8  PRO d   1      12.149   1.866   0.466  0.00  0.00     0.075 H 
ATOM     40  H9  PRO d   1      10.969   0.786  -0.351  0.00  0.00     0.075 H 
ATOM     41  CB  PRO d   1      11.479   2.230  -2.754  0.00  0.00    -0.028 C 
ATOM     42  H6  PRO d   1      10.231   2.883  -1.136  0.00  0.00     0.035 H 
ATOM     43  H7  PRO d   1      11.889   3.574  -1.133  0.00  0.00     0.035 H 
ATOM     44  H4  PRO d   1      10.603   1.660  -3.098  0.00  0.00     0.036 H 
ATOM     45  H5  PRO d   1      11.634   3.097  -3.413  0.00  0.00     0.036 H 
ATOM     46  H3  PRO d   1      12.589   0.447  -3.367  0.00  0.00     0.099 H 
ENDBRANCH  30  33
ENDBRANCH  27  29
BRANCH  27  47
ATOM     47  CB  SER d   1      16.266   1.473  -6.034  0.00  0.00     0.044 C 
ATOM     48  H12 SER d   1      17.207   1.927  -6.378  0.00  0.00     0.077 H 
ATOM     49  H13 SER d   1      15.580   1.360  -6.887  0.00  0.00     0.077 H 
BRANCH  47  50
ATOM     50  OG  SER d   1      16.540   0.193  -5.484  0.00  0.00    -0.398 OA
ATOM     51  H14 SER d   1      17.135   0.286  -4.749  0.00  0.00     0.209 HD
ENDBRANCH  47  50
ENDBRANCH  27  47
ENDBRANCH  24  27
ENDBRANCH  21  23
BRANCH  21  52
ATOM     52  CB  TYR d   1      17.184   6.861  -6.049  0.00  0.00    -0.014 C 
ATOM     53  H17 TYR d   1      18.071   6.410  -6.517  0.00  0.00     0.043 H 
ATOM     54  H18 TYR d   1      17.342   6.938  -4.963  0.00  0.00     0.043 H 
BRANCH  52  55
ATOM     55  CG  TYR d   1      17.012   8.259  -6.605  0.00  0.00    -0.056 A 
ATOM     56  CD1 TYR d   1      16.367   9.248  -5.866  0.00  0.00    -0.074 A 
ATOM     57  CE1 TYR d   1      16.223  10.534  -6.362  0.00  0.00    -0.051 A 
ATOM     58  H19 TYR d   1      15.971   9.008  -4.886  0.00  0.00     0.084 H 
ATOM     59  CZ  TYR d   1      16.726  10.847  -7.620  0.00  0.00     0.065 A 
ATOM     60  H21 TYR d   1      15.721  11.292  -5.772  0.00  0.00     0.087 H 
ATOM     61  CE2 TYR d   1      17.363   9.888  -8.379  0.00  0.00    -0.051 A 
ATOM     62  CD2 TYR d   1      17.510   8.598  -7.866  0.00  0.00    -0.074 A 
ATOM     63  H22 TYR d   1      17.745  10.133  -9.363  0.00  0.00     0.087 H 
ATOM     64  H20 TYR d   1      18.020   7.845  -8.457  0.00  0.00     0.084 H 
BRANCH  59  65
ATOM     65  OH  TYR d   1      16.582  12.114  -8.126  0.00  0.00    -0.361 OA
ATOM     66  H23 TYR d   1      16.080  12.077  -8.932  0.00  0.00     0.217 HD
ENDBRANCH  59  65
ENDBRANCH  52  55
ENDBRANCH  21  52
ENDBRANCH  18  21
ENDBRANCH  15  17
BRANCH  15  67
ATOM     67  CB  SER d   1      12.821   6.233  -9.769  0.00  0.00     0.044 C 
ATOM     68  H26 SER d   1      12.125   6.767  -9.105  0.00  0.00     0.077 H 
ATOM     69  H27 SER d   1      12.809   5.160  -9.526  0.00  0.00     0.077 H 
BRANCH  67  70
ATOM     70  OG  SER d   1      12.401   6.406 -11.112  0.00  0.00    -0.398 OA
ATOM     71  H28 SER d   1      11.523   6.059 -11.215  0.00  0.00     0.209 HD
ENDBRANCH  67  70
ENDBRANCH  15  67
ENDBRANCH  13  15
BRANCH   2  72
ATOM     72  C   PRO d   1      13.478  10.514 -11.924  0.00  0.00     0.241 C 
ATOM     73  O   PRO d   1      13.322  11.677 -12.287  0.00  0.00    -0.271 OA
ATOM     74  N   THR d   1      12.491   9.616 -11.900  0.00  0.00    -0.344 N 
ATOM     75  H36 THR d   1      12.716   8.661 -11.708  0.00  0.00     0.163 HD
BRANCH  74  76
ATOM     76  CA  THR d   1      11.085   9.974 -12.144  0.00  0.00     0.113 C 
ATOM     77  H37 THR d   1      11.079  10.840 -12.822  0.00  0.00     0.091 H 
BRANCH  76  78
ATOM     78  C   THR d   1      10.328  10.360 -10.868  0.00  0.00     0.243 C 
ATOM     79  O   THR d   1       9.240  10.941 -10.935  0.00  0.00    -0.271 OA
ATOM     80  N   SER d   1      10.893  10.017  -9.713  0.00  0.00    -0.344 N 
ATOM     81  H43 SER d   1      11.797   9.590  -9.726  0.00  0.00     0.163 HD
BRANCH  80  82
ATOM     82  CA  SER d   1      10.236  10.243  -8.420  0.00  0.00     0.109 C 
ATOM     83  H44 SER d   1       9.178   9.967  -8.541  0.00  0.00     0.090 H 
BRANCH  82  84
ATOM     84  C   SER d   1      10.274  11.707  -7.976  0.00  0.00     0.245 C 
ATOM     85  O   SER d   1      11.329  12.346  -8.046  0.00  0.00    -0.271 OA
ATOM     86  N   PRO d   1       9.117  12.243  -7.533  0.00  0.00    -0.337 N 
ATOM     87  CA  PRO d   1       9.000  13.625  -7.052  0.00  0.00     0.091 C 
ATOM     88  CD  PRO d   1       7.812  11.551  -7.499  0.00  0.00    -0.001 C 
ATOM     89  CB  PRO d   1       7.536  13.717  -6.603  0.00  0.00    -0.036 C 
ATOM     90  H48 PRO d   1       9.198  14.325  -7.877  0.00  0.00     0.087 H 
ATOM     91  CG  PRO d   1       6.834  12.681  -7.408  0.00  0.00    -0.048 C 
ATOM     92  H49 PRO d   1       7.127  14.716  -6.813  0.00  0.00     0.036 H 
ATOM     93  H50 PRO d   1       7.445  13.502  -5.528  0.00  0.00     0.036 H 
ATOM     94  H51 PRO d   1       6.590  13.066  -8.409  0.00  0.00     0.035 H 
ATOM     95  H52 PRO d   1       5.911  12.357  -6.905  0.00  0.00     0.035 H 
ATOM     96  H53 PRO d   1       7.737  10.892  -6.622  0.00  0.00     0.064 H 
ATOM     97  H54 PRO d   1       7.652  10.963  -8.415  0.00  0.00     0.064 H 
BRANCH  87  98
ATOM     98  C   PRO d   1       9.934  13.969  -5.887  0.00  0.00     0.241 C 
ATOM     99  O   PRO d   1      10.302  13.092  -5.099  0.00  0.00    -0.271 OA
ATOM    100  N   SER d   1      10.298  15.246  -5.789  0.00  0.00    -0.346 N 
ATOM    101  H55 SER d   1       9.958  15.891  -6.473  0.00  0.00     0.163 HD
BRANCH 100 102
ATOM    102  CA  SER d   1      11.173  15.753  -4.726  0.00  0.00     0.083 C 
ATOM    103  H56 SER d   1      12.028  15.065  -4.649  0.00  0.00     0.086 H 
BRANCH 102 104
ATOM    104  C   SER d   1      10.502  15.804  -3.352  0.00  0.00     0.112 C 
ATOM    105  O   SER d   1       9.313  15.506  -3.209  0.00  0.00    -0.305 OA
ATOM    106  H57 SER d   1      11.085  16.109  -2.484  0.00  0.00     0.146 H 
ENDBRANCH 102 104
BRANCH 102 107
ATOM    107  CB  SER d   1      11.711  17.137  -5.100  0.00  0.00     0.041 C 
ATOM    108  H58 SER d   1      12.302  17.534  -4.261  0.00  0.00     0.077 H 
ATOM    109  H59 SER d   1      10.866  17.810  -5.305  0.00  0.00     0.077 H 
BRANCH 107 110
ATOM    110  OG  SER d   1      12.535  17.057  -6.255  0.00  0.00    -0.398 OA
ATOM    111  H60 SER d   1      13.268  16.478  -6.080  0.00  0.00     0.209 HD
ENDBRANCH 107 110
ENDBRANCH 102 107
ENDBRANCH 100 102
ENDBRANCH  87  98
ENDBRANCH  82  84
BRANCH  82 112
ATOM    112  CB  SER d   1      10.832   9.335  -7.337  0.00  0.00     0.044 C 
ATOM    113  H45 SER d   1      10.805   9.860  -6.371  0.00  0.00     0.077 H 
ATOM    114  H46 SER d   1      11.874   9.100  -7.597  0.00  0.00     0.077 H 
BRANCH 112 115
ATOM    115  OG  SER d   1      10.095   8.126  -7.230  0.00  0.00    -0.398 OA
ATOM    116  H47 SER d   1      10.481   7.580  -6.555  0.00  0.00     0.209 HD
ENDBRANCH 112 115
ENDBRANCH  82 112
ENDBRANCH  80  82
ENDBRANCH  76  78
BRANCH  76 117
ATOM    117  CB  THR d   1      10.310   8.821 -12.816  0.00  0.00     0.060 C 
ATOM    118  H38 THR d   1       9.253   9.111 -12.910  0.00  0.00     0.086 H 
BRANCH 117 119
ATOM    119  OG1 THR d   1      10.403   7.645 -12.003  0.00  0.00    -0.393 OA
ATOM    120  H39 THR d   1      11.316   7.400 -11.906  0.00  0.00     0.210 HD
ENDBRANCH 117 119
BRANCH 117 121
ATOM    121  CG2 THR d   1      10.862   8.527 -14.201  0.00  0.00    -0.050 C 
ATOM    122  H40 THR d   1      10.292   7.703 -14.655  0.00  0.00     0.031 H 
ATOM    123  H41 THR d   1      11.921   8.240 -14.120  0.00  0.00     0.031 H 
ATOM    124  H42 THR d   1      10.772   9.425 -14.830  0.00  0.00     0.031 H 
ENDBRANCH 117 121
ENDBRANCH  76 117
ENDBRANCH  74  76
ENDBRANCH   2  72
TORSDOF 29
