REMARK  27 active torsions:
REMARK  status: ('A' for Active; 'I' for Inactive)
REMARK    1  A    between atoms: CA_2  and  C_3 
REMARK       I    between atoms: C_3  and  N_8 
REMARK    2  A    between atoms: N_8  and  CA_9 
REMARK    3  A    between atoms: CA_9  and  C_10 
REMARK    4  A    between atoms: CA_9  and  CB_12 
REMARK       I    between atoms: C_10  and  N_14 
REMARK    5  A    between atoms: CB_12  and  OG_13 
REMARK    6  A    between atoms: N_14  and  CA_15 
REMARK    7  A    between atoms: CA_15  and  C_16 
REMARK    8  A    between atoms: CA_15  and  CB_18 
REMARK       I    between atoms: C_16  and  N_26 
REMARK    9  A    between atoms: CB_18  and  CG_19 
REMARK   10  A    between atoms: CZ_24  and  OH_25 
REMARK   11  A    between atoms: N_26  and  CA_27 
REMARK   12  A    between atoms: CA_27  and  CB_28 
REMARK   13  A    between atoms: CA_27  and  C_30 
REMARK   14  A    between atoms: CB_28  and  OG_29 
REMARK   15  A    between atoms: OG_29  and  P_32 
REMARK       I    between atoms: C_30  and  N_36 
REMARK   16  A    between atoms: CA_37  and  C_38 
REMARK       I    between atoms: C_38  and  N_43 
REMARK   17  A    between atoms: N_43  and  CA_44 
REMARK   18  A    between atoms: CA_44  and  C_45 
REMARK   19  A    between atoms: CA_44  and  CB_47 
REMARK       I    between atoms: C_45  and  N_50 
REMARK   20  A    between atoms: CB_47  and  OG1_48 
REMARK   21  A    between atoms: CB_47  and  CG2_49 
REMARK   22  A    between atoms: N_50  and  CA_51 
REMARK   23  A    between atoms: CA_51  and  CB_52 
REMARK   24  A    between atoms: CA_51  and  C_54 
REMARK   25  A    between atoms: CB_52  and  OG_53 
REMARK   26  A    between atoms: OG_53  and  P_56 
REMARK       I    between atoms: C_54  and  N_60 
REMARK   27  A    between atoms: CA_61  and  C_62 
ROOT
ATOM      1  CA  SEP d   1      14.215   6.971  -8.900  0.00  0.00     0.110 C 
ATOM      2  H25 SEP d   1      15.080   6.577  -9.453  0.00  0.00     0.090 H 
ENDROOT
BRANCH   1   3
ATOM      3  N   SEP d   1      14.509   6.884  -7.483  0.00  0.00    -0.344 N 
ATOM      4  C   TYR d   1      15.493   6.121  -7.018  0.00  0.00     0.241 C 
ATOM      5  O   TYR d   1      16.125   5.318  -7.720  0.00  0.00    -0.271 OA
ATOM      6  H24 SEP d   1      13.957   7.412  -6.838  0.00  0.00     0.163 HD
BRANCH   4   7
ATOM      7  CA  TYR d   1      15.798   6.282  -5.530  0.00  0.00     0.093 C 
ATOM      8  H16 TYR d   1      14.930   6.766  -5.059  0.00  0.00     0.088 H 
BRANCH   7   9
ATOM      9  N   TYR d   1      15.994   4.992  -4.871  0.00  0.00    -0.346 N 
ATOM     10  C   SER d   1      15.060   4.040  -4.839  0.00  0.00     0.243 C 
ATOM     11  O   SER d   1      13.921   4.174  -5.305  0.00  0.00    -0.271 OA
ATOM     12  H15 TYR d   1      16.870   4.815  -4.423  0.00  0.00     0.163 HD
BRANCH  10  13
ATOM     13  CA  SER d   1      15.484   2.734  -4.176  0.00  0.00     0.109 C 
ATOM     14  H11 SER d   1      16.198   2.984  -3.378  0.00  0.00     0.090 H 
BRANCH  13  15
ATOM     15  N   SER d   1      14.372   2.025  -3.561  0.00  0.00    -0.344 N 
ATOM     16  C   PRO d   1      13.889   2.343  -2.365  0.00  0.00     0.249 C 
ATOM     17  O   PRO d   1      14.266   3.311  -1.711  0.00  0.00    -0.271 OA
ATOM     18  H10 SER d   1      13.954   1.266  -4.060  0.00  0.00     0.163 HD
BRANCH  16  19
ATOM     19  CA  PRO d   1      12.813   1.427  -1.818  0.00  0.00     0.178 C 
ATOM     20  N   PRO d   1      13.311   0.689  -0.666  0.00  0.00    -0.062 N 
ATOM     21  CD  PRO d   1      12.332   0.668   0.442  0.00  0.00     0.083 C 
ATOM     22  H1  PRO d   1      14.160   1.125  -0.342  0.00  0.00     0.278 HD
ATOM     23  H2  PRO d   1      13.506  -0.259  -0.946  0.00  0.00     0.278 HD
ATOM     24  CG  PRO d   1      11.142   1.406  -0.127  0.00  0.00    -0.040 C 
ATOM     25  H8  PRO d   1      12.729   1.185   1.328  0.00  0.00     0.075 H 
ATOM     26  H9  PRO d   1      12.063  -0.364   0.710  0.00  0.00     0.075 H 
ATOM     27  CB  PRO d   1      11.660   2.244  -1.233  0.00  0.00    -0.028 C 
ATOM     28  H6  PRO d   1      10.398   0.691  -0.508  0.00  0.00     0.035 H 
ATOM     29  H7  PRO d   1      10.681   2.038   0.646  0.00  0.00     0.035 H 
ATOM     30  H4  PRO d   1      10.880   2.416  -1.990  0.00  0.00     0.036 H 
ATOM     31  H5  PRO d   1      12.021   3.211  -0.853  0.00  0.00     0.036 H 
ATOM     32  H3  PRO d   1      12.462   0.748  -2.609  0.00  0.00     0.099 H 
ENDBRANCH  16  19
ENDBRANCH  13  15
BRANCH  13  33
ATOM     33  CB  SER d   1      16.202   1.831  -5.189  0.00  0.00     0.044 C 
ATOM     34  H12 SER d   1      16.754   1.052  -4.643  0.00  0.00     0.077 H 
ATOM     35  H13 SER d   1      16.908   2.441  -5.772  0.00  0.00     0.077 H 
BRANCH  33  36
ATOM     36  OG  SER d   1      15.290   1.209  -6.079  0.00  0.00    -0.398 OA
ATOM     37  H14 SER d   1      15.769   0.660  -6.689  0.00  0.00     0.209 HD
ENDBRANCH  33  36
ENDBRANCH  13  33
ENDBRANCH  10  13
ENDBRANCH   7   9
BRANCH   7  38
ATOM     38  CB  TYR d   1      17.017   7.207  -5.340  0.00  0.00    -0.014 C 
ATOM     39  H17 TYR d   1      17.897   6.724  -5.790  0.00  0.00     0.043 H 
ATOM     40  H18 TYR d   1      17.186   7.347  -4.262  0.00  0.00     0.043 H 
BRANCH  38  41
ATOM     41  CG  TYR d   1      16.831   8.574  -5.984  0.00  0.00    -0.056 A 
ATOM     42  CD1 TYR d   1      16.185   9.609  -5.300  0.00  0.00    -0.074 A 
ATOM     43  CE1 TYR d   1      15.997  10.855  -5.888  0.00  0.00    -0.051 A 
ATOM     44  H19 TYR d   1      15.824   9.437  -4.293  0.00  0.00     0.084 H 
ATOM     45  CZ  TYR d   1      16.445  11.079  -7.186  0.00  0.00     0.065 A 
ATOM     46  H21 TYR d   1      15.504  11.648  -5.338  0.00  0.00     0.087 H 
ATOM     47  CE2 TYR d   1      17.078  10.069  -7.894  0.00  0.00    -0.051 A 
ATOM     48  CD2 TYR d   1      17.264   8.817  -7.287  0.00  0.00    -0.074 A 
ATOM     49  H22 TYR d   1      17.426  10.244  -8.906  0.00  0.00     0.087 H 
ATOM     50  H20 TYR d   1      17.753   8.024  -7.841  0.00  0.00     0.084 H 
BRANCH  45  51
ATOM     51  OH  TYR d   1      16.258  12.308  -7.774  0.00  0.00    -0.361 OA
ATOM     52  H23 TYR d   1      15.730  12.206  -8.557  0.00  0.00     0.217 HD
ENDBRANCH  45  51
ENDBRANCH  38  41
ENDBRANCH   7  38
ENDBRANCH   4   7
ENDBRANCH   1   3
BRANCH   1  53
ATOM     53  CB  SEP d   1      12.993   6.118  -9.263  0.00  0.00     0.059 C 
ATOM     54  H26 SEP d   1      12.179   6.331  -8.555  0.00  0.00     0.079 H 
ATOM     55  H27 SEP d   1      13.263   5.053  -9.203  0.00  0.00     0.079 H 
BRANCH  53  56
ATOM     56  OG  SEP d   1      12.558   6.416 -10.578  0.00  0.00    -0.280 OA
BRANCH  56  57
ATOM     57  P   SEP d   1      12.452   5.129 -11.550  0.00  0.00     0.422 P 
ATOM     58  O1P SEP d   1      10.993   4.466 -11.405  0.00  0.00    -0.617 OA
ATOM     59  O2P SEP d   1      12.658   5.639 -13.065  0.00  0.00    -0.617 OA
ATOM     60  O3P SEP d   1      13.590   4.037 -11.205  0.00  0.00    -0.617 OA
ENDBRANCH  56  57
ENDBRANCH  53  56
ENDBRANCH   1  53
BRANCH   1  61
ATOM     61  C   SEP d   1      14.011   8.429  -9.315  0.00  0.00     0.245 C 
ATOM     62  O   SEP d   1      13.287   9.171  -8.640  0.00  0.00    -0.271 OA
ATOM     63  N   PRO d   1      14.644   8.838 -10.438  0.00  0.00    -0.337 N 
ATOM     64  CA  PRO d   1      14.532  10.204 -10.981  0.00  0.00     0.091 C 
ATOM     65  CD  PRO d   1      15.511   7.994 -11.283  0.00  0.00    -0.001 C 
ATOM     66  CB  PRO d   1      15.471  10.174 -12.194  0.00  0.00    -0.036 C 
ATOM     67  H28 PRO d   1      14.870  10.938 -10.235  0.00  0.00     0.087 H 
ATOM     68  CG  PRO d   1      15.538   8.741 -12.583  0.00  0.00    -0.048 C 
ATOM     69  H29 PRO d   1      16.469  10.549 -11.922  0.00  0.00     0.036 H 
ATOM     70  H30 PRO d   1      15.063  10.780 -13.016  0.00  0.00     0.036 H 
ATOM     71  H31 PRO d   1      16.468   8.531 -13.132  0.00  0.00     0.035 H 
ATOM     72  H32 PRO d   1      14.674   8.467 -13.206  0.00  0.00     0.035 H 
ATOM     73  H33 PRO d   1      15.082   6.990 -11.412  0.00  0.00     0.064 H 
ATOM     74  H34 PRO d   1      16.520   7.909 -10.854  0.00  0.00     0.064 H 
BRANCH  64  75
ATOM     75  C   PRO d   1      13.121  10.577 -11.443  0.00  0.00     0.241 C 
ATOM     76  O   PRO d   1      12.833  11.761 -11.603  0.00  0.00    -0.271 OA
ATOM     77  N   THR d   1      12.268   9.577 -11.666  0.00  0.00    -0.344 N 
ATOM     78  H35 THR d   1      12.575   8.639 -11.508  0.00  0.00     0.163 HD
BRANCH  77  79
ATOM     79  CA  THR d   1      10.894   9.802 -12.136  0.00  0.00     0.113 C 
ATOM     80  H36 THR d   1      10.934  10.585 -12.908  0.00  0.00     0.091 H 
BRANCH  79  81
ATOM     81  C   THR d   1       9.951  10.263 -11.028  0.00  0.00     0.243 C 
ATOM     82  O   THR d   1       8.926  10.893 -11.299  0.00  0.00    -0.271 OA
ATOM     83  N   SEP d   1      10.291   9.934  -9.785  0.00  0.00    -0.344 N 
ATOM     84  H42 SEP d   1      11.181   9.508  -9.621  0.00  0.00     0.163 HD
BRANCH  83  85
ATOM     85  CA  SEP d   1       9.401  10.177  -8.651  0.00  0.00     0.110 C 
ATOM     86  H43 SEP d   1       8.371  10.195  -9.037  0.00  0.00     0.090 H 
BRANCH  85  87
ATOM     87  CB  SEP d   1       9.507   9.032  -7.641  0.00  0.00     0.059 C 
ATOM     88  H44 SEP d   1       9.034   8.133  -8.062  0.00  0.00     0.079 H 
ATOM     89  H45 SEP d   1       8.989   9.318  -6.714  0.00  0.00     0.079 H 
BRANCH  87  90
ATOM     90  OG  SEP d   1      10.861   8.752  -7.350  0.00  0.00    -0.280 OA
BRANCH  90  91
ATOM     91  P   SEP d   1      11.031   8.061  -5.904  0.00  0.00     0.422 P 
ATOM     92  O1P SEP d   1      10.572   6.515  -5.975  0.00  0.00    -0.617 OA
ATOM     93  O2P SEP d   1      12.596   8.154  -5.522  0.00  0.00    -0.617 OA
ATOM     94  O3P SEP d   1      10.124   8.822  -4.802  0.00  0.00    -0.617 OA
ENDBRANCH  90  91
ENDBRANCH  87  90
ENDBRANCH  85  87
BRANCH  85  95
ATOM     95  C   SEP d   1       9.658  11.522  -7.966  0.00  0.00     0.245 C 
ATOM     96  O   SEP d   1      10.811  11.961  -7.880  0.00  0.00    -0.271 OA
ATOM     97  N   PRO d   1       8.579  12.180  -7.484  0.00  0.00    -0.339 N 
ATOM     98  CA  PRO d   1       8.675  13.465  -6.787  0.00  0.00     0.065 C 
ATOM     99  CD  PRO d   1       7.178  11.729  -7.593  0.00  0.00    -0.001 C 
ATOM    100  CB  PRO d   1       7.212  13.791  -6.440  0.00  0.00    -0.039 C 
ATOM    101  H46 PRO d   1       9.104  14.231  -7.449  0.00  0.00     0.084 H 
ATOM    102  CG  PRO d   1       6.400  12.990  -7.390  0.00  0.00    -0.048 C 
ATOM    103  H48 PRO d   1       7.014  14.865  -6.573  0.00  0.00     0.036 H 
ATOM    104  H49 PRO d   1       6.988  13.503  -5.402  0.00  0.00     0.036 H 
ATOM    105  H50 PRO d   1       6.277  13.527  -8.342  0.00  0.00     0.035 H 
ATOM    106  H51 PRO d   1       5.410  12.770  -6.963  0.00  0.00     0.035 H 
ATOM    107  H52 PRO d   1       6.940  10.988  -6.815  0.00  0.00     0.064 H 
ATOM    108  H53 PRO d   1       6.978  11.297  -8.585  0.00  0.00     0.064 H 
BRANCH  98 109
ATOM    109  C   PRO d   1       9.509  13.381  -5.511  0.00  0.00     0.110 C 
ATOM    110  O   PRO d   1       9.754  14.403  -4.866  0.00  0.00    -0.305 OA
ATOM    111  H47 PRO d   1       9.888  12.418  -5.170  0.00  0.00     0.146 H 
ENDBRANCH  98 109
ENDBRANCH  85  95
ENDBRANCH  83  85
ENDBRANCH  79  81
BRANCH  79 112
ATOM    112  CB  THR d   1      10.268   8.527 -12.755  0.00  0.00     0.060 C 
ATOM    113  H37 THR d   1       9.195   8.709 -12.917  0.00  0.00     0.086 H 
BRANCH 112 114
ATOM    114  OG1 THR d   1      10.417   7.427 -11.848  0.00  0.00    -0.393 OA
ATOM    115  H38 THR d   1      11.341   7.277 -11.683  0.00  0.00     0.210 HD
ENDBRANCH 112 114
BRANCH 112 116
ATOM    116  CG2 THR d   1      10.905   8.184 -14.095  0.00  0.00    -0.050 C 
ATOM    117  H39 THR d   1      10.436   7.276 -14.502  0.00  0.00     0.031 H 
ATOM    118  H40 THR d   1      11.982   8.009 -13.955  0.00  0.00     0.031 H 
ATOM    119  H41 THR d   1      10.757   9.019 -14.796  0.00  0.00     0.031 H 
ENDBRANCH 112 116
ENDBRANCH  79 112
ENDBRANCH  77  79
ENDBRANCH  64  75
ENDBRANCH   1  61
TORSDOF 27
