REMARK  4 active torsions:
REMARK  status: ('A' for Active; 'I' for Inactive)
REMARK    1  A    between atoms: S5_2  and  N21_4 
REMARK    2  A    between atoms: S5_2  and  C5_12 
REMARK    3  A    between atoms: C22_5  and  C2M_6 
REMARK    4  A    between atoms: C4_14  and  CM_15 
ROOT
ATOM      1  N21 H52 d   1      52.704 103.252  31.279  0.00  0.00    -0.301 N 
ATOM      2  C22 H52 d   1      54.083 103.744  31.180  0.00  0.00     0.042 C 
ATOM      3  C23 H52 d   1      54.627 104.703  32.266  0.00  0.00     0.100 C 
ATOM      4  N24 H52 d   1      54.381 104.129  33.621  0.00  0.00    -0.073 N 
ATOM      5  C25 H52 d   1      53.115 104.542  34.174  0.00  0.00     0.083 C 
ATOM      6  C26 H52 d   1      52.080 103.583  33.588  0.00  0.00    -0.027 C 
ATOM      7  C27 H52 d   1      51.687 103.922  32.207  0.00  0.00     0.007 C 
ATOM      8  H1  H52 d   1      54.697 102.836  31.270  0.00  0.00     0.075 H 
ATOM      9  H5  H52 d   1      54.117 105.674  32.183  0.00  0.00     0.078 H 
ATOM     10  H6  H52 d   1      55.708 104.843  32.120  0.00  0.00     0.078 H 
ATOM     11  H7  H52 d   1      55.118 104.431  34.239  0.00  0.00     0.277 HD
ATOM     12  H8  H52 d   1      54.391 103.123  33.553  0.00  0.00     0.277 HD
ATOM     13  H9  H52 d   1      52.888 105.578  33.882  0.00  0.00     0.075 H 
ATOM     14  H10 H52 d   1      53.132 104.466  35.271  0.00  0.00     0.075 H 
ATOM     15  H11 H52 d   1      51.182 103.608  34.223  0.00  0.00     0.037 H 
ATOM     16  H12 H52 d   1      52.503 102.568  33.591  0.00  0.00     0.037 H 
ATOM     17  H13 H52 d   1      50.676 103.543  31.997  0.00  0.00     0.065 H 
ATOM     18  H14 H52 d   1      51.706 105.013  32.065  0.00  0.00     0.065 H 
ENDROOT
BRANCH   1  19
ATOM     19  S5  H52 d   1      52.248 101.900  30.406  0.00  0.00     0.262 S 
ATOM     20  O1  H52 d   1      53.487 101.247  30.068  0.00  0.00    -0.200 OA
ATOM     21  O2  H52 d   1      51.190 101.248  31.140  0.00  0.00    -0.200 OA
BRANCH  19  22
ATOM     22  C5  H52 d   1      51.561 102.413  28.834  0.00  0.00     0.091 A 
ATOM     23  C10 H52 d   1      51.279 101.451  27.752  0.00  0.00     0.006 A 
ATOM     24  C4  H52 d   1      51.512  99.972  27.805  0.00  0.00    -0.032 A 
ATOM     25  C9  H52 d   1      50.740 102.004  26.473  0.00  0.00    -0.006 A 
ATOM     26  C3  H52 d   1      51.205  99.228  26.689  0.00  0.00     0.008 A 
ATOM     27  N2  H52 d   1      50.722  99.775  25.550  0.00  0.00    -0.272 NA
ATOM     28  H22 H52 d   1      51.357  98.155  26.724  0.00  0.00     0.115 H 
ATOM     29  C1  H52 d   1      50.469 101.095  25.402  0.00  0.00     0.013 A 
ATOM     30  H21 H52 d   1      50.060 101.466  24.469  0.00  0.00     0.116 H 
ATOM     31  C8  H52 d   1      50.496 103.416  26.328  0.00  0.00    -0.071 A 
ATOM     32  C7  H52 d   1      50.767 104.277  27.388  0.00  0.00    -0.081 A 
ATOM     33  H18 H52 d   1      50.103 103.807  25.397  0.00  0.00     0.084 H 
ATOM     34  C6  H52 d   1      51.294 103.787  28.622  0.00  0.00    -0.059 A 
ATOM     35  H19 H52 d   1      50.575 105.338  27.275  0.00  0.00     0.083 H 
ATOM     36  H20 H52 d   1      51.496 104.490  29.422  0.00  0.00     0.085 H 
BRANCH  24  37
ATOM     37  CM  H52 d   1      52.045  99.186  29.009  0.00  0.00    -0.049 C 
ATOM     38  H15 H52 d   1      52.110  98.119  28.750  0.00  0.00     0.033 H 
ATOM     39  H16 H52 d   1      51.363  99.316  29.863  0.00  0.00     0.033 H 
ATOM     40  H17 H52 d   1      53.044  99.560  29.278  0.00  0.00     0.033 H 
ENDBRANCH  24  37
ENDBRANCH  19  22
ENDBRANCH   1  19
BRANCH   2  41
ATOM     41  C2M H52 d   1      54.411 104.348  29.806  0.00  0.00    -0.055 C 
ATOM     42  H2  H52 d   1      55.454 104.696  29.798  0.00  0.00     0.030 H 
ATOM     43  H3  H52 d   1      53.740 105.197  29.609  0.00  0.00     0.030 H 
ATOM     44  H4  H52 d   1      54.274 103.584  29.027  0.00  0.00     0.030 H 
ENDBRANCH   2  41
TORSDOF 4
