REMARK  7 active torsions:
REMARK  status: ('A' for Active; 'I' for Inactive)
REMARK    1  A    between atoms: C17_10  and  O33_26 
REMARK    2  A    between atoms: N16_33  and  C20_11 
REMARK    3  A    between atoms: C21_12  and  C28_16 
REMARK    4  A    between atoms: O33_26  and  C26_15 
REMARK    5  A    between atoms: N34_18  and  C35_17 
REMARK    6  A    between atoms: C18_27  and  C36_28 
REMARK    7  A    between atoms: N16_33  and  C9_34 
ROOT
ATOM      1  C10 BZ9 d   1     -19.759  12.661 -33.049  0.00  0.00     0.011 A 
ATOM      2  C13 BZ9 d   1     -18.451  13.275 -35.390  0.00  0.00    -0.082 A 
ATOM      3  C15 BZ9 d   1     -19.906  11.858 -34.171  0.00  0.00    -0.069 A 
ATOM      4  C17 BZ9 d   1     -20.445  12.334 -31.880  0.00  0.00     0.095 A 
ATOM      5  C20 BZ9 d   1     -18.854  14.598 -31.915  0.00  0.00     0.061 A 
ATOM      6  C18 BZ9 d   1     -20.349  13.124 -30.735  0.00  0.00    -0.025 A 
ATOM      7  C19 BZ9 d   1     -19.577  14.283 -30.776  0.00  0.00    -0.047 A 
ATOM      8  C14 BZ9 d   1     -19.219  12.141 -35.369  0.00  0.00    -0.082 A 
ATOM      9  C12 BZ9 d   1     -18.262  14.074 -34.271  0.00  0.00    -0.070 A 
ATOM     10  C11 BZ9 d   1     -18.937  13.790 -33.077  0.00  0.00     0.004 A 
ATOM     11  H5  BZ9 d   1     -17.971  13.560 -36.319  0.00  0.00     0.083 H 
ATOM     12  H6  BZ9 d   1     -20.562  10.996 -34.125  0.00  0.00     0.085 H 
ATOM     13  H19 BZ9 d   1     -19.542  14.940 -29.915  0.00  0.00     0.087 H 
ATOM     14  H20 BZ9 d   1     -19.295  11.491 -36.233  0.00  0.00     0.083 H 
ATOM     15  H21 BZ9 d   1     -17.589  14.922 -34.321  0.00  0.00     0.084 H 
ENDROOT
BRANCH   4  16
ATOM     16  O33 BZ9 d   1     -21.125  11.147 -31.835  0.00  0.00    -0.290 OA
BRANCH  16  17
ATOM     17  C26 BZ9 d   1     -22.414  10.919 -31.743  0.00  0.00     0.182 A 
ATOM     18  C21 BZ9 d   1     -22.834   9.602 -31.769  0.00  0.00     0.047 A 
ATOM     19  C22 BZ9 d   1     -24.220   9.361 -31.768  0.00  0.00    -0.065 A 
ATOM     20  C23 BZ9 d   1     -25.060  10.479 -31.671  0.00  0.00    -0.065 A 
ATOM     21  H7  BZ9 d   1     -24.620   8.356 -31.839  0.00  0.00     0.085 H 
ATOM     22  C24 BZ9 d   1     -24.527  11.749 -31.619  0.00  0.00     0.005 A 
ATOM     23  H15 BZ9 d   1     -26.135  10.344 -31.637  0.00  0.00     0.085 H 
ATOM     24  N25 BZ9 d   1     -23.197  11.940 -31.679  0.00  0.00    -0.236 NA
ATOM     25  H8  BZ9 d   1     -25.187  12.604 -31.529  0.00  0.00     0.114 H 
BRANCH  18  26
ATOM     26  C28 BZ9 d   1     -22.018   8.502 -31.928  0.00  0.00     0.091 A 
ATOM     27  N27 BZ9 d   1     -22.558   7.315 -31.590  0.00  0.00    -0.062 NA
ATOM     28  C32 BZ9 d   1     -21.978   6.132 -31.739  0.00  0.00     0.722 A 
ATOM     29  N34 BZ9 d   1     -22.579   4.976 -31.397  0.00  0.00    -0.227 N 
ATOM     30  N31 BZ9 d   1     -20.791   6.108 -32.336  0.00  0.00    -0.075 NA
ATOM     31  H12 BZ9 d   1     -22.076   4.102 -31.608  0.00  0.00     0.177 HD
ATOM     32  C30 BZ9 d   1     -20.191   7.222 -32.638  0.00  0.00     0.023 A 
ATOM     33  C29 BZ9 d   1     -20.713   8.502 -32.494  0.00  0.00    -0.036 A 
ATOM     34  H13 BZ9 d   1     -19.188   7.144 -33.041  0.00  0.00     0.115 H 
ATOM     35  H14 BZ9 d   1     -20.183   9.403 -32.782  0.00  0.00     0.089 H 
BRANCH  29  36
ATOM     36  C35 BZ9 d   1     -23.899   4.856 -30.744  0.00  0.00    -0.005 C 
ATOM     37  H9  BZ9 d   1     -24.134   3.793 -30.585  0.00  0.00     0.057 H 
ATOM     38  H10 BZ9 d   1     -24.668   5.310 -31.386  0.00  0.00     0.057 H 
ATOM     39  H11 BZ9 d   1     -23.877   5.375 -29.775  0.00  0.00     0.057 H 
ENDBRANCH  29  36
ENDBRANCH  18  26
ENDBRANCH  16  17
ENDBRANCH   4  16
BRANCH   6  40
ATOM     40  C36 BZ9 d   1     -21.106  12.755 -29.450  0.00  0.00    -0.049 C 
ATOM     41  H16 BZ9 d   1     -20.895  13.504 -28.672  0.00  0.00     0.033 H 
ATOM     42  H17 BZ9 d   1     -20.779  11.764 -29.103  0.00  0.00     0.033 H 
ATOM     43  H18 BZ9 d   1     -22.187  12.733 -29.654  0.00  0.00     0.033 H 
ENDBRANCH   6  40
BRANCH   5  44
ATOM     44  N16 BZ9 d   1     -18.102  15.692 -31.776  0.00  0.00    -0.189 N 
ATOM     45  H22 BZ9 d   1     -17.466  15.752 -30.968  0.00  0.00     0.184 HD
BRANCH  44  46
ATOM     46  C9  BZ9 d   1     -18.135  16.691 -32.618  0.00  0.00     0.706 A 
ATOM     47  N1  BZ9 d   1     -19.257  17.145 -33.167  0.00  0.00    -0.062 NA
ATOM     48  C3  BZ9 d   1     -18.899  18.172 -33.921  0.00  0.00     0.103 A 
ATOM     49  C4  BZ9 d   1     -17.501  18.317 -33.835  0.00  0.00     0.078 A 
ATOM     50  C8  BZ9 d   1     -19.640  19.014 -34.728  0.00  0.00    -0.052 A 
ATOM     51  C5  BZ9 d   1     -16.828  19.315 -34.584  0.00  0.00    -0.054 A 
ATOM     52  N2  BZ9 d   1     -17.042  17.374 -33.003  0.00  0.00    -0.188 N 
ATOM     53  C6  BZ9 d   1     -17.567  20.201 -35.385  0.00  0.00    -0.081 A 
ATOM     54  H1  BZ9 d   1     -15.748  19.394 -34.539  0.00  0.00     0.087 H 
ATOM     55  C7  BZ9 d   1     -18.982  20.029 -35.414  0.00  0.00    -0.081 A 
ATOM     56  H2  BZ9 d   1     -17.082  20.983 -35.957  0.00  0.00     0.083 H 
ATOM     57  H3  BZ9 d   1     -19.574  20.723 -35.999  0.00  0.00     0.083 H 
ATOM     58  H23 BZ9 d   1     -16.066  17.208 -32.720  0.00  0.00     0.184 HD
ATOM     59  H4  BZ9 d   1     -20.712  18.886 -34.824  0.00  0.00     0.087 H 
ENDBRANCH  44  46
ENDBRANCH   5  44
TORSDOF 7
