REMARK WARNING: 32 MAX_TORS EXCEEDED!!!
REMARK  56 active torsions:
REMARK  status: ('A' for Active; 'I' for Inactive)
REMARK    1  A    between atoms: CA_2  and  N_1 
REMARK    2  A    between atoms: CA_2  and  CB_5 
REMARK    3  A    between atoms: C_3  and  CA_2 
REMARK       I    between atoms: N_10  and  C_3 
REMARK    4  A    between atoms: CB_5  and  CG_6 
REMARK    5  A    between atoms: CG_6  and  CD_7 
REMARK    6  A    between atoms: CA_11  and  N_10 
REMARK    7  A    between atoms: CA_11  and  CB_14 
REMARK    8  A    between atoms: C_12  and  CA_11 
REMARK       I    between atoms: N_17  and  C_12 
REMARK    9  A    between atoms: CB_14  and  CG2_16 
REMARK   10  A    between atoms: CB_14  and  OG1_15 
REMARK   11  A    between atoms: CA_18  and  N_17 
REMARK   12  A    between atoms: CA_18  and  CB_21 
REMARK   13  A    between atoms: C_19  and  CA_18 
REMARK       I    between atoms: N_28  and  C_19 
REMARK   14  A    between atoms: CB_21  and  CG_22 
REMARK   15  A    between atoms: CA_29  and  N_28 
REMARK   16  A    between atoms: CA_29  and  CB_32 
REMARK   17  A    between atoms: C_30  and  CA_29 
REMARK       I    between atoms: N_34  and  C_30 
REMARK   18  A    between atoms: CB_32  and  OG_33 
REMARK   19  A    between atoms: CA_35  and  N_34 
REMARK   20  A    between atoms: CA_35  and  CB_38 
REMARK   21  A    between atoms: C_36  and  CA_35 
REMARK       I    between atoms: N_42  and  C_36 
REMARK   22  A    between atoms: CB_38  and  CG_39 
REMARK   23  A    between atoms: CA_43  and  N_42 
REMARK   24  A    between atoms: CA_43  and  CB_46 
REMARK   25  A    between atoms: C_44  and  CA_43 
REMARK       I    between atoms: N_50  and  C_44 
REMARK   26  A    between atoms: CB_46  and  CG_47 
REMARK   27  A    between atoms: CG_47  and  CD1_48 
REMARK   28  A    between atoms: CG_47  and  CD2_49 
REMARK   29  A    between atoms: CA_51  and  N_50 
REMARK   30  A    between atoms: CA_51  and  CB_54 
REMARK   31  A    between atoms: C_52  and  CA_51 
REMARK       I    between atoms: N_64  and  C_52 
REMARK   32  A    between atoms: CB_54  and  CG_55 
REMARK   33  A    between atoms: CA_65  and  N_64 
REMARK   34  A    between atoms: CA_65  and  CB_68 
REMARK   35  A    between atoms: C_66  and  CA_65 
REMARK       I    between atoms: N_71  and  C_66 
REMARK   36  A    between atoms: CB_68  and  CG_69 
REMARK   37  A    between atoms: CG_69  and  CD_70 
REMARK   38  A    between atoms: CA_72  and  N_71 
REMARK   39  A    between atoms: CA_72  and  CB_75 
REMARK   40  A    between atoms: C_73  and  CA_72 
REMARK       I    between atoms: N_79  and  C_73 
REMARK   41  A    between atoms: CB_75  and  CG_76 
REMARK   42  A    between atoms: CG_76  and  CD1_77 
REMARK   43  A    between atoms: CG_76  and  CD2_78 
REMARK   44  A    between atoms: CA_80  and  N_79 
REMARK   45  A    between atoms: CA_80  and  CB_83 
REMARK   46  A    between atoms: C_81  and  CA_80 
REMARK       I    between atoms: N_87  and  C_81 
REMARK   47  A    between atoms: CB_83  and  CG_84 
REMARK   48  A    between atoms: CG_84  and  CD1_85 
REMARK   49  A    between atoms: CG_84  and  CD2_86 
REMARK   50  A    between atoms: C_89  and  CA_88 
REMARK       I    between atoms: C_89  and  N_94 
REMARK   51  A    between atoms: N_94  and  CA_95 
REMARK   52  A    between atoms: CA_95  and  CB_98 
REMARK   53  A    between atoms: CA_95  and  C_96 
REMARK   54  A    between atoms: C_96  and  O1_103 
REMARK   55  A    between atoms: CB_98  and  CG_99 
REMARK   56  A    between atoms: CG_99  and  CD_100 
ROOT
ATOM      1  CA  TRP d   1      -0.892 -23.384   9.069  0.00  0.00     0.093 C 
ATOM      2  H46 TRP d   1      -0.312 -23.076   9.951  0.00  0.00     0.088 H 
ENDROOT
BRANCH   1   3
ATOM      3  N   TRP d   1      -2.120 -22.598   9.041  0.00  0.00    -0.346 N 
ATOM      4  C   LEU d   1      -2.089 -21.272   9.041  0.00  0.00     0.241 C 
ATOM      5  O   LEU d   1      -1.031 -20.622   9.010  0.00  0.00    -0.271 OA
ATOM      6  H45 TRP d   1      -3.002 -23.068   9.021  0.00  0.00     0.163 HD
BRANCH   4   7
ATOM      7  CA  LEU d   1      -3.457 -20.579   9.088  0.00  0.00     0.089 C 
ATOM      8  H35 LEU d   1      -3.329 -19.538   8.758  0.00  0.00     0.087 H 
BRANCH   7   9
ATOM      9  N   LEU d   1      -4.410 -21.232   8.177  0.00  0.00    -0.346 N 
ATOM     10  C   ASP d   1      -4.254 -21.184   6.855  0.00  0.00     0.241 C 
ATOM     11  O   ASP d   1      -3.364 -20.543   6.320  0.00  0.00    -0.271 OA
ATOM     12  H34 LEU d   1      -5.193 -21.723   8.559  0.00  0.00     0.163 HD
BRANCH  10  13
ATOM     13  CA  ASP d   1      -5.226 -21.981   5.988  0.00  0.00     0.098 C 
ATOM     14  H31 ASP d   1      -4.743 -22.138   5.012  0.00  0.00     0.088 H 
BRANCH  13  15
ATOM     15  N   ASP d   1      -5.532 -23.299   6.536  0.00  0.00    -0.345 N 
ATOM     16  C   SER d   1      -4.586 -24.224   6.686  0.00  0.00     0.243 C 
ATOM     17  O   SER d   1      -3.418 -24.050   6.350  0.00  0.00    -0.271 OA
ATOM     18  H30 ASP d   1      -6.472 -23.512   6.804  0.00  0.00     0.163 HD
BRANCH  16  19
ATOM     19  CA  SER d   1      -5.001 -25.524   7.347  0.00  0.00     0.109 C 
ATOM     20  H26 SER d   1      -4.098 -25.996   7.763  0.00  0.00     0.090 H 
BRANCH  19  21
ATOM     21  N   SER d   1      -5.927 -25.284   8.453  0.00  0.00    -0.344 N 
ATOM     22  C   PHE d   1      -5.571 -24.559   9.510  0.00  0.00     0.241 C 
ATOM     23  O   PHE d   1      -4.482 -23.999   9.598  0.00  0.00    -0.271 OA
ATOM     24  H25 SER d   1      -6.847 -25.673   8.414  0.00  0.00     0.163 HD
BRANCH  22  25
ATOM     25  CA  PHE d   1      -6.584 -24.457  10.653  0.00  0.00     0.093 C 
ATOM     26  H17 PHE d   1      -6.218 -23.699  11.361  0.00  0.00     0.088 H 
BRANCH  25  27
ATOM     27  N   PHE d   1      -7.907 -24.017  10.200  0.00  0.00    -0.346 N 
ATOM     28  C   THR d   1      -8.028 -22.962   9.397  0.00  0.00     0.243 C 
ATOM     29  O   THR d   1      -7.055 -22.354   8.958  0.00  0.00    -0.271 OA
ATOM     30  H16 PHE d   1      -8.724 -24.512  10.496  0.00  0.00     0.163 HD
BRANCH  28  31
ATOM     31  CA  THR d   1      -9.442 -22.523   9.016  0.00  0.00     0.113 C 
ATOM     32  H10 THR d   1     -10.171 -23.064   9.637  0.00  0.00     0.091 H 
BRANCH  31  33
ATOM     33  N   THR d   1      -9.621 -21.076   9.234  0.00  0.00    -0.344 N 
ATOM     34  C   GLU d   1     -10.307 -20.570  10.261  0.00  0.00     0.249 C 
ATOM     35  O   GLU d   1     -10.844 -21.284  11.109  0.00  0.00    -0.271 OA
ATOM     36  H9  THR d   1      -9.208 -20.442   8.580  0.00  0.00     0.163 HD
BRANCH  34  37
ATOM     37  CA  GLU d   1     -10.463 -19.026  10.360  0.00  0.00     0.176 C 
ATOM     38  H4  GLU d   1     -11.289 -19.014   9.633  0.00  0.00     0.099 H 
BRANCH  37  39
ATOM     39  N   GLU d   1     -11.266 -18.348  11.428  0.00  0.00    -0.066 N 
ATOM     40  H1  GLU d   1     -11.226 -17.349  11.296  0.00  0.00     0.275 HD
ATOM     41  H2  GLU d   1     -10.888 -18.582  12.332  0.00  0.00     0.275 HD
ATOM     42  H3  GLU d   1     -12.224 -18.656  11.374  0.00  0.00     0.275 HD
ENDBRANCH  37  39
BRANCH  37  43
ATOM     43  CB  GLU d   1      -9.560 -18.080   9.520  0.00  0.00    -0.021 C 
ATOM     44  H5  GLU d   1     -10.175 -17.209   9.249  0.00  0.00     0.037 H 
ATOM     45  H6  GLU d   1      -9.282 -18.630   8.609  0.00  0.00     0.037 H 
BRANCH  43  46
ATOM     46  CG  GLU d   1      -8.232 -17.525  10.139  0.00  0.00     0.018 C 
ATOM     47  H7  GLU d   1      -7.769 -16.856   9.399  0.00  0.00     0.049 H 
ATOM     48  H8  GLU d   1      -7.566 -18.379  10.329  0.00  0.00     0.049 H 
BRANCH  46  49
ATOM     49  CD  GLU d   1      -8.381 -16.739  11.458  0.00  0.00     0.172 C 
ATOM     50  OE2 GLU d   1      -9.379 -16.908  12.186  0.00  0.00    -0.648 OA
ATOM     51  OE1 GLU d   1      -7.467 -15.942  11.774  0.00  0.00    -0.648 OA
ENDBRANCH  46  49
ENDBRANCH  43  46
ENDBRANCH  37  43
ENDBRANCH  34  37
ENDBRANCH  31  33
BRANCH  31  52
ATOM     52  CB  THR d   1      -9.660 -22.894   7.535  0.00  0.00     0.060 C 
ATOM     53  H11 THR d   1      -8.934 -22.339   6.922  0.00  0.00     0.086 H 
BRANCH  52  54
ATOM     54  CG2 THR d   1      -9.457 -24.386   7.304  0.00  0.00    -0.050 C 
ATOM     55  H13 THR d   1      -9.619 -24.618   6.241  0.00  0.00     0.031 H 
ATOM     56  H14 THR d   1     -10.174 -24.953   7.916  0.00  0.00     0.031 H 
ATOM     57  H15 THR d   1      -8.431 -24.665   7.588  0.00  0.00     0.031 H 
ENDBRANCH  52  54
BRANCH  52  58
ATOM     58  OG1 THR d   1     -10.991 -22.527   7.134  0.00  0.00    -0.393 OA
ATOM     59  H12 THR d   1     -11.119 -21.597   7.278  0.00  0.00     0.210 HD
ENDBRANCH  52  58
ENDBRANCH  31  52
ENDBRANCH  28  31
ENDBRANCH  25  27
BRANCH  25  60
ATOM     60  CB  PHE d   1      -6.625 -25.803  11.386  0.00  0.00    -0.014 C 
ATOM     61  H18 PHE d   1      -7.149 -26.533  10.752  0.00  0.00     0.043 H 
ATOM     62  H19 PHE d   1      -7.176 -25.674  12.329  0.00  0.00     0.043 H 
BRANCH  60  63
ATOM     63  CG  PHE d   1      -5.256 -26.333  11.698  0.00  0.00    -0.056 A 
ATOM     64  CD1 PHE d   1      -4.532 -25.830  12.766  0.00  0.00    -0.077 A 
ATOM     65  CE1 PHE d   1      -3.248 -26.292  13.032  0.00  0.00    -0.082 A 
ATOM     66  H20 PHE d   1      -4.971 -25.069  13.401  0.00  0.00     0.084 H 
ATOM     67  CZ  PHE d   1      -2.675 -27.242  12.219  0.00  0.00    -0.083 A 
ATOM     68  H22 PHE d   1      -2.698 -25.903  13.881  0.00  0.00     0.083 H 
ATOM     69  CE2 PHE d   1      -3.368 -27.734  11.138  0.00  0.00    -0.082 A 
ATOM     70  H24 PHE d   1      -1.675 -27.604  12.431  0.00  0.00     0.083 H 
ATOM     71  CD2 PHE d   1      -4.653 -27.278  10.872  0.00  0.00    -0.077 A 
ATOM     72  H23 PHE d   1      -2.912 -28.477  10.494  0.00  0.00     0.083 H 
ATOM     73  H21 PHE d   1      -5.191 -27.662  10.013  0.00  0.00     0.084 H 
ENDBRANCH  60  63
ENDBRANCH  25  60
ENDBRANCH  22  25
ENDBRANCH  19  21
BRANCH  19  74
ATOM     74  CB  SER d   1      -5.596 -26.478   6.315  0.00  0.00     0.044 C 
ATOM     75  H27 SER d   1      -5.779 -27.455   6.787  0.00  0.00     0.077 H 
ATOM     76  H28 SER d   1      -4.887 -26.600   5.483  0.00  0.00     0.077 H 
BRANCH  74  77
ATOM     77  OG  SER d   1      -6.814 -25.966   5.818  0.00  0.00    -0.398 OA
ATOM     78  H29 SER d   1      -6.658 -25.123   5.408  0.00  0.00     0.209 HD
ENDBRANCH  74  77
ENDBRANCH  19  74
ENDBRANCH  16  19
ENDBRANCH  13  15
BRANCH  13  79
ATOM     79  CB  ASP d   1      -6.507 -21.178   5.752  0.00  0.00     0.043 C 
ATOM     80  H32 ASP d   1      -6.237 -20.125   5.580  0.00  0.00     0.052 H 
ATOM     81  H33 ASP d   1      -7.141 -21.253   6.648  0.00  0.00     0.052 H 
BRANCH  79  82
ATOM     82  CG  ASP d   1      -7.291 -21.680   4.559  0.00  0.00     0.175 C 
ATOM     83  OD1 ASP d   1      -6.694 -21.836   3.474  0.00  0.00    -0.648 OA
ATOM     84  OD2 ASP d   1      -8.506 -21.915   4.705  0.00  0.00    -0.648 OA
ENDBRANCH  79  82
ENDBRANCH  13  79
ENDBRANCH  10  13
ENDBRANCH   7   9
BRANCH   7  85
ATOM     85  CB  LEU d   1      -3.988 -20.566  10.532  0.00  0.00    -0.035 C 
ATOM     86  H36 LEU d   1      -3.143 -20.325  11.194  0.00  0.00     0.037 H 
ATOM     87  H37 LEU d   1      -4.355 -21.578  10.759  0.00  0.00     0.037 H 
BRANCH  85  88
ATOM     88  CG  LEU d   1      -5.126 -19.576  10.852  0.00  0.00    -0.059 C 
ATOM     89  H38 LEU d   1      -5.926 -19.747  10.117  0.00  0.00     0.038 H 
BRANCH  88  90
ATOM     90  CD1 LEU d   1      -5.705 -19.825  12.239  0.00  0.00    -0.073 C 
ATOM     91  H39 LEU d   1      -6.512 -19.104  12.434  0.00  0.00     0.028 H 
ATOM     92  H40 LEU d   1      -4.914 -19.704  12.994  0.00  0.00     0.028 H 
ATOM     93  H41 LEU d   1      -6.107 -20.848  12.290  0.00  0.00     0.028 H 
ENDBRANCH  88  90
BRANCH  88  94
ATOM     94  CD2 LEU d   1      -4.687 -18.119  10.727  0.00  0.00    -0.073 C 
ATOM     95  H42 LEU d   1      -4.270 -17.946   9.724  0.00  0.00     0.028 H 
ATOM     96  H43 LEU d   1      -3.920 -17.901  11.485  0.00  0.00     0.028 H 
ATOM     97  H44 LEU d   1      -5.554 -17.460  10.882  0.00  0.00     0.028 H 
ENDBRANCH  88  94
ENDBRANCH  85  88
ENDBRANCH   7  85
ENDBRANCH   4   7
ENDBRANCH   1   3
BRANCH   1  98
ATOM     98  CB  TRP d   1      -1.216 -24.875   9.209  0.00  0.00    -0.012 C 
ATOM     99  H47 TRP d   1      -1.665 -25.234   8.271  0.00  0.00     0.044 H 
ATOM    100  H48 TRP d   1      -1.932 -25.010  10.033  0.00  0.00     0.044 H 
BRANCH  98 101
ATOM    101  CG  TRP d   1       0.005 -25.669   9.495  0.00  0.00    -0.028 A 
ATOM    102  CD1 TRP d   1       0.781 -26.335   8.592  0.00  0.00    -0.015 A 
ATOM    103  NE1 TRP d   1       1.837 -26.927   9.228  0.00  0.00    -0.365 N 
ATOM    104  H49 TRP d   1       0.588 -26.387   7.522  0.00  0.00     0.112 H 
ATOM    105  CE2 TRP d   1       1.763 -26.660  10.568  0.00  0.00     0.042 A 
ATOM    106  H50 TRP d   1       2.572 -27.485   8.771  0.00  0.00     0.165 HD
ATOM    107  CD2 TRP d   1       0.623 -25.848  10.770  0.00  0.00    -0.002 A 
ATOM    108  CZ2 TRP d   1       2.604 -27.044  11.614  0.00  0.00    -0.056 A 
ATOM    109  CE3 TRP d   1       0.309 -25.429  12.069  0.00  0.00    -0.070 A 
ATOM    110  CZ3 TRP d   1       1.140 -25.820  13.112  0.00  0.00    -0.082 A 
ATOM    111  H51 TRP d   1      -0.563 -24.813  12.257  0.00  0.00     0.084 H 
ATOM    112  CH2 TRP d   1       2.279 -26.614  12.873  0.00  0.00    -0.081 A 
ATOM    113  H53 TRP d   1       0.908 -25.509  14.124  0.00  0.00     0.083 H 
ATOM    114  H54 TRP d   1       2.914 -26.892  13.707  0.00  0.00     0.083 H 
ATOM    115  H52 TRP d   1       3.479 -27.658  11.437  0.00  0.00     0.086 H 
ENDBRANCH  98 101
ENDBRANCH   1  98
BRANCH   1 116
ATOM    116  C   TRP d   1      -0.033 -23.129   7.831  0.00  0.00     0.241 C 
ATOM    117  O   TRP d   1       1.188 -22.985   7.925  0.00  0.00    -0.271 OA
ATOM    118  N   LYS d   1      -0.684 -23.032   6.678  0.00  0.00    -0.346 N 
ATOM    119  H55 LYS d   1      -1.679 -23.137   6.674  0.00  0.00     0.163 HD
BRANCH 118 120
ATOM    120  CA  LYS d   1       0.007 -22.776   5.412  0.00  0.00     0.089 C 
ATOM    121  H56 LYS d   1       0.747 -23.579   5.276  0.00  0.00     0.087 H 
BRANCH 120 122
ATOM    122  CB  LYS d   1      -0.989 -22.856   4.257  0.00  0.00    -0.038 C 
ATOM    123  H57 LYS d   1      -0.526 -22.415   3.362  0.00  0.00     0.036 H 
ATOM    124  H58 LYS d   1      -1.887 -22.281   4.526  0.00  0.00     0.036 H 
BRANCH 122 125
ATOM    125  CG  LYS d   1      -1.403 -24.288   3.938  0.00  0.00    -0.066 C 
ATOM    126  H59 LYS d   1      -1.677 -24.794   4.876  0.00  0.00     0.032 H 
ATOM    127  H60 LYS d   1      -0.550 -24.808   3.477  0.00  0.00     0.032 H 
BRANCH 125 128
ATOM    128  CD  LYS d   1      -2.590 -24.353   2.983  0.00  0.00    -0.076 C 
ATOM    129  H61 LYS d   1      -2.846 -25.405   2.787  0.00  0.00     0.027 H 
ATOM    130  H62 LYS d   1      -2.327 -23.858   2.037  0.00  0.00     0.027 H 
ATOM    131  H63 LYS d   1      -3.453 -23.844   3.436  0.00  0.00     0.027 H 
ENDBRANCH 125 128
ENDBRANCH 122 125
ENDBRANCH 120 122
BRANCH 120 132
ATOM    132  C   LYS d   1       0.771 -21.454   5.378  0.00  0.00     0.241 C 
ATOM    133  O   LYS d   1       1.775 -21.334   4.661  0.00  0.00    -0.271 OA
ATOM    134  N   LEU d   1       0.326 -20.486   6.179  0.00  0.00    -0.346 N 
ATOM    135  H64 LEU d   1      -0.485 -20.662   6.737  0.00  0.00     0.163 HD
BRANCH 134 136
ATOM    136  CA  LEU d   1       0.972 -19.178   6.278  0.00  0.00     0.089 C 
ATOM    137  H65 LEU d   1       1.194 -18.838   5.256  0.00  0.00     0.087 H 
BRANCH 136 138
ATOM    138  CB  LEU d   1       0.016 -18.169   6.932  0.00  0.00    -0.035 C 
ATOM    139  H66 LEU d   1       0.550 -17.211   7.012  0.00  0.00     0.037 H 
ATOM    140  H67 LEU d   1      -0.220 -18.542   7.939  0.00  0.00     0.037 H 
BRANCH 138 141
ATOM    141  CG  LEU d   1      -1.312 -17.899   6.217  0.00  0.00    -0.059 C 
ATOM    142  H68 LEU d   1      -1.748 -18.869   5.936  0.00  0.00     0.038 H 
BRANCH 141 143
ATOM    143  CD1 LEU d   1      -2.311 -17.182   7.141  0.00  0.00    -0.073 C 
ATOM    144  H69 LEU d   1      -3.251 -17.004   6.597  0.00  0.00     0.028 H 
ATOM    145  H70 LEU d   1      -1.887 -16.220   7.464  0.00  0.00     0.028 H 
ATOM    146  H71 LEU d   1      -2.510 -17.809   8.023  0.00  0.00     0.028 H 
ENDBRANCH 141 143
BRANCH 141 147
ATOM    147  CD2 LEU d   1      -1.081 -17.101   4.945  0.00  0.00    -0.073 C 
ATOM    148  H72 LEU d   1      -0.364 -17.634   4.303  0.00  0.00     0.028 H 
ATOM    149  H73 LEU d   1      -0.677 -16.111   5.202  0.00  0.00     0.028 H 
ATOM    150  H74 LEU d   1      -2.034 -16.981   4.409  0.00  0.00     0.028 H 
ENDBRANCH 141 147
ENDBRANCH 138 141
ENDBRANCH 136 138
BRANCH 136 151
ATOM    151  C   LEU d   1       2.292 -19.197   7.065  0.00  0.00     0.241 C 
ATOM    152  O   LEU d   1       3.065 -18.245   6.977  0.00  0.00    -0.271 OA
ATOM    153  N   LEU d   1       2.550 -20.262   7.831  0.00  0.00    -0.346 N 
ATOM    154  H75 LEU d   1       1.894 -21.017   7.852  0.00  0.00     0.163 HD
BRANCH 153 155
ATOM    155  CA  LEU d   1       3.774 -20.353   8.644  0.00  0.00     0.090 C 
ATOM    156  H76 LEU d   1       3.817 -19.448   9.267  0.00  0.00     0.087 H 
BRANCH 155 157
ATOM    157  CB  LEU d   1       3.734 -21.575   9.582  0.00  0.00    -0.035 C 
ATOM    158  H77 LEU d   1       4.737 -21.683  10.021  0.00  0.00     0.037 H 
ATOM    159  H78 LEU d   1       3.508 -22.456   8.963  0.00  0.00     0.037 H 
BRANCH 157 160
ATOM    160  CG  LEU d   1       2.731 -21.561  10.736  0.00  0.00    -0.059 C 
ATOM    161  H79 LEU d   1       1.722 -21.474  10.307  0.00  0.00     0.038 H 
BRANCH 160 162
ATOM    162  CD1 LEU d   1       2.811 -22.868  11.509  0.00  0.00    -0.073 C 
ATOM    163  H80 LEU d   1       2.087 -22.849  12.337  0.00  0.00     0.028 H 
ATOM    164  H81 LEU d   1       3.826 -22.994  11.913  0.00  0.00     0.028 H 
ATOM    165  H82 LEU d   1       2.578 -23.707  10.836  0.00  0.00     0.028 H 
ENDBRANCH 160 162
BRANCH 160 166
ATOM    166  CD2 LEU d   1       2.944 -20.383  11.671  0.00  0.00    -0.073 C 
ATOM    167  H83 LEU d   1       2.884 -19.445  11.099  0.00  0.00     0.028 H 
ATOM    168  H84 LEU d   1       3.935 -20.462  12.141  0.00  0.00     0.028 H 
ATOM    169  H85 LEU d   1       2.167 -20.388  12.450  0.00  0.00     0.028 H 
ENDBRANCH 160 166
ENDBRANCH 157 160
ENDBRANCH 155 157
BRANCH 155 170
ATOM    170  C   LEU d   1       5.065 -20.402   7.807  0.00  0.00     0.243 C 
ATOM    171  O   LEU d   1       5.187 -21.208   6.880  0.00  0.00    -0.271 OA
ATOM    172  N   PRO d   1       6.043 -19.546   8.145  0.00  0.00    -0.337 N 
ATOM    173  CA  PRO d   1       7.328 -19.618   7.466  0.00  0.00     0.091 C 
ATOM    174  CD  PRO d   1       6.013 -18.466   9.151  0.00  0.00    -0.001 C 
ATOM    175  CB  PRO d   1       8.010 -18.322   7.902  0.00  0.00    -0.036 C 
ATOM    176  H86 PRO d   1       7.188 -19.645   6.375  0.00  0.00     0.087 H 
ATOM    177  CG  PRO d   1       7.443 -18.044   9.243  0.00  0.00    -0.048 C 
ATOM    178  H87 PRO d   1       7.777 -17.505   7.203  0.00  0.00     0.036 H 
ATOM    179  H88 PRO d   1       9.100 -18.456   7.960  0.00  0.00     0.036 H 
ATOM    180  H89 PRO d   1       7.969 -18.626  10.014  0.00  0.00     0.035 H 
ATOM    181  H90 PRO d   1       7.516 -16.972   9.479  0.00  0.00     0.035 H 
ATOM    182  H91 PRO d   1       5.649 -18.839  10.120  0.00  0.00     0.064 H 
ATOM    183  H92 PRO d   1       5.377 -17.633   8.817  0.00  0.00     0.064 H 
BRANCH 173 184
ATOM    184  C   PRO d   1       8.165 -20.830   7.893  0.00  0.00     0.241 C 
ATOM    185  O   PRO d   1       7.849 -21.490   8.897  0.00  0.00    -0.271 OA
ATOM    186  N   GLU d   1       9.210 -21.120   7.120  0.00  0.00    -0.345 N 
ATOM    187  H93 GLU d   1       9.297 -20.669   6.232  0.00  0.00     0.163 HD
BRANCH 186 188
ATOM    188  CA  GLU d   1      10.234 -22.079   7.533  0.00  0.00     0.093 C 
ATOM    189  H94 GLU d   1       9.749 -22.925   8.042  0.00  0.00     0.089 H 
BRANCH 188 190
ATOM    190  CB  GLU d   1      11.020 -22.612   6.331  0.00  0.00    -0.028 C 
ATOM    191  H95 GLU d   1      11.936 -23.094   6.704  0.00  0.00     0.037 H 
ATOM    192  H96 GLU d   1      11.289 -21.760   5.689  0.00  0.00     0.037 H 
BRANCH 190 193
ATOM    193  CG  GLU d   1      10.260 -23.619   5.491  0.00  0.00     0.018 C 
ATOM    194  H97 GLU d   1       9.343 -23.142   5.115  0.00  0.00     0.049 H 
ATOM    195  H98 GLU d   1       9.993 -24.476   6.127  0.00  0.00     0.049 H 
BRANCH 193 196
ATOM    196  CD  GLU d   1      11.064 -24.126   4.305  0.00  0.00     0.172 C 
ATOM    197  OE2 GLU d   1      12.295 -24.300   4.426  0.00  0.00    -0.648 OA
ATOM    198  OE1 GLU d   1      10.459 -24.355   3.241  0.00  0.00    -0.648 OA
ENDBRANCH 193 196
ENDBRANCH 190 193
ENDBRANCH 188 190
BRANCH 188 199
ATOM    199  C   GLU d   1      11.183 -21.385   8.500  0.00  0.00     0.163 C 
ATOM    200  O   GLU d   1      11.498 -21.919   9.562  0.00  0.00    -0.648 OA
BRANCH 199 201
ATOM    201  O1  GLU d   1      11.677 -20.189   8.193  0.00  0.00    -0.775 OA
ATOM    202  H99 GLU d   1      11.416 -19.560   8.856  0.00  0.00     0.167 HD
ENDBRANCH 199 201
ENDBRANCH 188 199
ENDBRANCH 186 188
ENDBRANCH 173 184
ENDBRANCH 155 170
ENDBRANCH 153 155
ENDBRANCH 136 151
ENDBRANCH 134 136
ENDBRANCH 120 132
ENDBRANCH 118 120
ENDBRANCH   1 116
TORSDOF 56
