REMARK  12 active torsions:
REMARK  status: ('A' for Active; 'I' for Inactive)
REMARK    1  A    between atoms: C16_2  and  C15_3 
REMARK       I    between atoms: C16_2  and  N17_18 
REMARK    2  A    between atoms: C15_3  and  C14_4 
REMARK    3  A    between atoms: C14_4  and  C13_5 
REMARK    4  A    between atoms: C13_5  and  C12_6 
REMARK    5  A    between atoms: C12_6  and  C11_7 
REMARK    6  A    between atoms: C11_7  and  N10_8 
REMARK    7  A    between atoms: N10_8  and  C6_9 
REMARK    8  A    between atoms: N17_18  and  C19_19 
REMARK    9  A    between atoms: C23_23  and  C25_25 
REMARK   10  A    between atoms: N26_27  and  C28_28 
REMARK   11  A    between atoms: C28_28  and  C29_29 
REMARK   12  A    between atoms: C29_29  and  C30_30 
ROOT
ATOM      1  C15 FXG d   1      71.261  21.510   7.554  0.00  0.00     0.010 C 
ATOM      2  H1  FXG d   1      71.441  20.667   8.237  0.00  0.00     0.047 H 
ATOM      3  H2  FXG d   1      70.711  21.154   6.670  0.00  0.00     0.047 H 
ENDROOT
BRANCH   1   4
ATOM      4  C16 FXG d   1      72.592  22.078   7.110  0.00  0.00     0.222 C 
ATOM      5  O18 FXG d   1      73.182  22.895   7.802  0.00  0.00    -0.273 OA
ATOM      6  N17 FXG d   1      73.050  21.622   5.942  0.00  0.00    -0.327 N 
ATOM      7  H15 FXG d   1      72.491  20.957   5.446  0.00  0.00     0.169 HD
BRANCH   6   8
ATOM      8  C19 FXG d   1      74.271  22.019   5.366  0.00  0.00     0.035 A 
ATOM      9  C20 FXG d   1      74.609  23.365   5.202  0.00  0.00    -0.057 A 
ATOM     10  C21 FXG d   1      75.829  23.722   4.624  0.00  0.00    -0.080 A 
ATOM     11  H16 FXG d   1      73.920  24.137   5.526  0.00  0.00     0.086 H 
ATOM     12  C22 FXG d   1      76.715  22.730   4.202  0.00  0.00    -0.069 A 
ATOM     13  H17 FXG d   1      76.087  24.768   4.503  0.00  0.00     0.083 H 
ATOM     14  C23 FXG d   1      76.382  21.383   4.362  0.00  0.00     0.022 A 
ATOM     15  H18 FXG d   1      77.661  23.005   3.750  0.00  0.00     0.085 H 
ATOM     16  C24 FXG d   1      75.160  21.033   4.940  0.00  0.00    -0.043 A 
ATOM     17  H19 FXG d   1      74.901  19.987   5.058  0.00  0.00     0.088 H 
BRANCH  14  18
ATOM     18  C25 FXG d   1      77.327  20.306   3.910  0.00  0.00     0.218 C 
ATOM     19  O27 FXG d   1      78.623  20.394   4.207  0.00  0.00    -0.169 OA
ATOM     20  N26 FXG d   1      76.877  19.325   3.250  0.00  0.00    -0.177 NA
BRANCH  20  21
ATOM     21  C28 FXG d   1      77.590  18.427   2.859  0.00  0.00    -0.013 C 
BRANCH  21  22
ATOM     22  C29 FXG d   1      78.308  17.476   2.463  0.00  0.00    -0.023 C 
ATOM     23  H20 FXG d   1      78.889  17.579   1.548  0.00  0.00     0.099 H 
BRANCH  22  24
ATOM     24  C30 FXG d   1      78.365  16.232   3.227  0.00  0.00    -0.083 C 
ATOM     25  C31 FXG d   1      77.447  15.298   3.048  0.00  0.00    -0.121 C 
ATOM     26  H22 FXG d   1      77.493  14.372   3.620  0.00  0.00     0.066 H 
ATOM     27  H23 FXG d   1      76.644  15.454   2.329  0.00  0.00     0.066 H 
ATOM     28  H21 FXG d   1      79.167  16.074   3.947  0.00  0.00     0.083 H 
ENDBRANCH  22  24
ENDBRANCH  21  22
ENDBRANCH  20  21
ENDBRANCH  14  18
ENDBRANCH   6   8
ENDBRANCH   1   4
BRANCH   1  29
ATOM     29  C14 FXG d   1      70.420  22.561   8.273  0.00  0.00    -0.057 C 
ATOM     30  H3  FXG d   1      71.071  23.390   8.585  0.00  0.00     0.033 H 
ATOM     31  H4  FXG d   1      69.956  22.105   9.160  0.00  0.00     0.033 H 
BRANCH  29  32
ATOM     32  C13 FXG d   1      69.326  23.103   7.363  0.00  0.00    -0.063 C 
ATOM     33  H5  FXG d   1      68.394  23.200   7.938  0.00  0.00     0.033 H 
ATOM     34  H6  FXG d   1      69.171  22.403   6.529  0.00  0.00     0.033 H 
BRANCH  32  35
ATOM     35  C12 FXG d   1      69.712  24.467   6.805  0.00  0.00    -0.050 C 
ATOM     36  H7  FXG d   1      70.610  24.360   6.178  0.00  0.00     0.035 H 
ATOM     37  H8  FXG d   1      69.927  25.151   7.639  0.00  0.00     0.035 H 
BRANCH  35  38
ATOM     38  C11 FXG d   1      68.582  25.045   5.964  0.00  0.00    -0.006 C 
ATOM     39  H9  FXG d   1      68.499  26.131   6.121  0.00  0.00     0.064 H 
ATOM     40  H10 FXG d   1      67.626  24.564   6.217  0.00  0.00     0.064 H 
BRANCH  38  41
ATOM     41  N10 FXG d   1      68.953  24.754   4.585  0.00  0.00    -0.373 N 
ATOM     42  H11 FXG d   1      69.853  24.292   4.394  0.00  0.00     0.161 HD
BRANCH  41  43
ATOM     43  C6  FXG d   1      68.141  25.077   3.545  0.00  0.00     0.157 A 
ATOM     44  C1  FXG d   1      68.533  24.783   2.245  0.00  0.00     0.149 A 
ATOM     45  C2  FXG d   1      67.680  25.132   1.221  0.00  0.00     0.162 A 
ATOM     46  N7  FXG d   1      69.608  24.203   1.674  0.00  0.00    -0.236 NA
ATOM     47  N9  FXG d   1      68.217  24.771   0.043  0.00  0.00    -0.333 N 
ATOM     48  N3  FXG d   1      66.488  25.739   1.439  0.00  0.00    -0.222 NA
ATOM     49  C8  FXG d   1      69.412  24.198   0.330  0.00  0.00     0.066 A 
ATOM     50  H12 FXG d   1      67.803  24.903  -0.891  0.00  0.00     0.168 HD
ATOM     51  H13 FXG d   1      70.108  23.796  -0.405  0.00  0.00     0.143 H 
ATOM     52  C4  FXG d   1      66.139  26.010   2.708  0.00  0.00     0.091 A 
ATOM     53  N5  FXG d   1      66.944  25.689   3.739  0.00  0.00    -0.222 NA
ATOM     54  H14 FXG d   1      65.191  26.497   2.906  0.00  0.00     0.146 H 
ENDBRANCH  41  43
ENDBRANCH  38  41
ENDBRANCH  35  38
ENDBRANCH  32  35
ENDBRANCH  29  32
ENDBRANCH   1  29
TORSDOF 12
