REMARK  10 active torsions:
REMARK  status: ('A' for Active; 'I' for Inactive)
REMARK    1  A    between atoms: N29_2  and  C30_3 
REMARK    2  A    between atoms: C28_4  and  N29_2 
REMARK    3  A    between atoms: N22_28  and  C23_6 
REMARK    4  A    between atoms: C20_7  and  C19_25 
REMARK    5  A    between atoms: C21_27  and  C20_7 
REMARK    6  A    between atoms: C15_8  and  N14_22 
REMARK       I    between atoms: C12_9  and  N11_17 
REMARK       I    between atoms: N14_22  and  C12_9 
REMARK    7  A    between atoms: N11_17  and  C10_10 
REMARK    8  A    between atoms: C5_11  and  C6_12 
REMARK    9  A    between atoms: C2_14  and  C1_15 
REMARK   10  A    between atoms: C21_27  and  N22_28 
ROOT
ATOM      1  C15 FRS d   1      90.326  75.546  25.225  0.00  0.00     0.174 A 
ATOM      2  N17 FRS d   1      91.507  74.966  25.124  0.00  0.00    -0.235 NA
ATOM      3  C18 FRS d   1      92.238  75.547  24.093  0.00  0.00     0.018 A 
ATOM      4  C19 FRS d   1      91.586  76.561  23.431  0.00  0.00     0.005 A 
ATOM      5  S16 FRS d   1      90.011  76.819  24.097  0.00  0.00    -0.055 SA
ATOM      6  H11 FRS d   1      93.245  75.225  23.831  0.00  0.00     0.116 H 
ENDROOT
BRANCH   4   7
ATOM      7  C20 FRS d   1      92.164  77.339  22.299  0.00  0.00    -0.019 C 
ATOM      8  H3  FRS d   1      91.911  76.858  21.342  0.00  0.00     0.043 H 
ATOM      9  H4  FRS d   1      93.258  77.399  22.401  0.00  0.00     0.043 H 
BRANCH   7  10
ATOM     10  C21 FRS d   1      91.557  78.731  22.360  0.00  0.00    -0.002 C 
ATOM     11  H12 FRS d   1      91.482  79.058  23.408  0.00  0.00     0.064 H 
ATOM     12  H13 FRS d   1      90.555  78.719  21.907  0.00  0.00     0.064 H 
BRANCH  10  13
ATOM     13  N22 FRS d   1      92.416  79.642  21.623  0.00  0.00    -0.374 N 
ATOM     14  H14 FRS d   1      93.338  79.898  22.005  0.00  0.00     0.161 HD
BRANCH  13  15
ATOM     15  C23 FRS d   1      92.011  80.158  20.434  0.00  0.00     0.128 A 
ATOM     16  C27 FRS d   1      90.775  79.820  19.871  0.00  0.00     0.006 A 
ATOM     17  C28 FRS d   1      90.422  80.381  18.643  0.00  0.00     0.148 A 
ATOM     18  H2  FRS d   1      90.105  79.136  20.379  0.00  0.00     0.095 H 
ATOM     19  N26 FRS d   1      91.290  81.232  18.046  0.00  0.00    -0.224 NA
ATOM     20  C25 FRS d   1      92.467  81.544  18.607  0.00  0.00     0.091 A 
ATOM     21  N24 FRS d   1      92.830  81.016  19.784  0.00  0.00    -0.225 NA
ATOM     22  H15 FRS d   1      93.134  82.233  18.102  0.00  0.00     0.146 H 
BRANCH  17  23
ATOM     23  N29 FRS d   1      89.251  80.120  17.993  0.00  0.00    -0.171 N 
ATOM     24  H1  FRS d   1      89.117  80.590  17.086  0.00  0.00     0.186 HD
BRANCH  23  25
ATOM     25  C30 FRS d   1      88.235  79.304  18.410  0.00  0.00     0.723 A 
ATOM     26  N35 FRS d   1      87.026  79.368  17.839  0.00  0.00    -0.106 N 
ATOM     27  N33 FRS d   1      86.289  78.394  18.534  0.00  0.00    -0.152 NA
ATOM     28  H16 FRS d   1      86.712  79.983  17.075  0.00  0.00     0.208 HD
ATOM     29  C32 FRS d   1      87.108  77.823  19.459  0.00  0.00     0.125 A 
ATOM     30  N31 FRS d   1      88.340  78.390  19.388  0.00  0.00    -0.055 NA
ATOM     31  H17 FRS d   1      86.820  77.032  20.150  0.00  0.00     0.150 H 
ENDBRANCH  23  25
ENDBRANCH  17  23
ENDBRANCH  13  15
ENDBRANCH  10  13
ENDBRANCH   7  10
ENDBRANCH   4   7
BRANCH   1  32
ATOM     32  N14 FRS d   1      89.484  75.089  26.193  0.00  0.00    -0.287 N 
ATOM     33  C12 FRS d   1      88.260  75.580  26.412  0.00  0.00     0.326 C 
ATOM     34  O13 FRS d   1      87.812  76.493  25.738  0.00  0.00    -0.247 OA
ATOM     35  N11 FRS d   1      87.546  75.030  27.402  0.00  0.00    -0.306 N 
ATOM     36  H9  FRS d   1      87.963  74.289  27.928  0.00  0.00     0.171 HD
ATOM     37  H10 FRS d   1      89.801  74.340  26.776  0.00  0.00     0.172 HD
BRANCH  35  38
ATOM     38  C10 FRS d   1      86.305  75.414  27.729  0.00  0.00     0.077 A 
ATOM     39  C5  FRS d   1      85.857  75.837  28.954  0.00  0.00     0.186 A 
ATOM     40  O4  FRS d   1      84.510  76.068  28.770  0.00  0.00    -0.308 OA
ATOM     41  C2  FRS d   1      84.189  75.795  27.461  0.00  0.00     0.052 A 
ATOM     42  C3  FRS d   1      85.299  75.373  26.751  0.00  0.00    -0.026 A 
ATOM     43  H5  FRS d   1      85.373  75.084  25.704  0.00  0.00     0.090 H 
BRANCH  39  44
ATOM     44  C6  FRS d   1      86.426  76.056  30.308  0.00  0.00     0.441 C 
ATOM     45  F9  FRS d   1      87.592  76.666  30.236  0.00  0.00    -0.164 F 
ATOM     46  F8  FRS d   1      86.584  74.882  30.882  0.00  0.00    -0.164 F 
ATOM     47  F7  FRS d   1      85.607  76.789  31.038  0.00  0.00    -0.164 F 
ENDBRANCH  39  44
BRANCH  41  48
ATOM     48  C1  FRS d   1      82.773  75.997  27.083  0.00  0.00    -0.031 C 
ATOM     49  H6  FRS d   1      82.206  76.347  27.958  0.00  0.00     0.036 H 
ATOM     50  H7  FRS d   1      82.349  75.046  26.728  0.00  0.00     0.036 H 
ATOM     51  H8  FRS d   1      82.711  76.748  26.282  0.00  0.00     0.036 H 
ENDBRANCH  41  48
ENDBRANCH  35  38
ENDBRANCH   1  32
TORSDOF 10
