REMARK  9 active torsions:
REMARK  status: ('A' for Active; 'I' for Inactive)
REMARK    1  A    between atoms: C22_6  and  C23_5 
REMARK    2  A    between atoms: N7_27  and  C22_6 
REMARK    3  A    between atoms: C22_6  and  C29_28 
REMARK    4  A    between atoms: C14_11  and  C17_7 
REMARK    5  A    between atoms: C17_7  and  C18_21 
REMARK    6  A    between atoms: C8_14  and  C10_13 
REMARK    7  A    between atoms: C2_19  and  N7_27 
REMARK    8  A    between atoms: C18_21  and  C19_22 
REMARK    9  A    between atoms: C19_22  and  O20_23 
ROOT
ATOM      1  C8  1FR d   1     113.950  56.711  44.457  0.00  0.00     0.108 A 
ATOM      2  C4  1FR d   1     114.716  55.971  43.404  0.00  0.00     0.037 A 
ATOM      3  C5  1FR d   1     113.830  55.725  42.392  0.00  0.00     0.131 A 
ATOM      4  C6  1FR d   1     114.210  55.047  41.238  0.00  0.00     0.040 A 
ATOM      5  C3  1FR d   1     116.027  55.540  43.305  0.00  0.00    -0.024 A 
ATOM      6  C2  1FR d   1     116.401  54.860  42.139  0.00  0.00     0.124 A 
ATOM      7  O21 1FR d   1     112.567  56.249  42.724  0.00  0.00    -0.210 OA
ATOM      8  N9  1FR d   1     112.662  56.865  44.023  0.00  0.00    -0.126 NA
ATOM      9  N1  1FR d   1     115.489  54.632  41.147  0.00  0.00    -0.241 NA
ATOM     10  H11 1FR d   1     113.501  54.859  40.439  0.00  0.00     0.119 H 
ATOM     11  H12 1FR d   1     116.739  55.722  44.102  0.00  0.00     0.090 H 
ENDROOT
BRANCH   1  12
ATOM     12  C10 1FR d   1     114.493  57.201  45.758  0.00  0.00    -0.002 A 
ATOM     13  C15 1FR d   1     115.790  57.722  45.832  0.00  0.00    -0.065 A 
ATOM     14  C14 1FR d   1     116.298  58.187  47.047  0.00  0.00    -0.056 A 
ATOM     15  H8  1FR d   1     116.404  57.765  44.940  0.00  0.00     0.085 H 
ATOM     16  C13 1FR d   1     115.499  58.124  48.188  0.00  0.00    -0.056 A 
ATOM     17  C12 1FR d   1     114.206  57.608  48.115  0.00  0.00     0.035 A 
ATOM     18  H9  1FR d   1     115.885  58.478  49.137  0.00  0.00     0.086 H 
ATOM     19  C11 1FR d   1     113.697  57.151  46.902  0.00  0.00    -0.050 A 
ATOM     20 CL   1FR d   1     113.197  57.535  49.595  0.00  0.00    -0.084 Cl
ATOM     21  H10 1FR d   1     112.688  56.759  46.847  0.00  0.00     0.087 H 
BRANCH  14  22
ATOM     22  C17 1FR d   1     117.701  58.754  47.149  0.00  0.00    -0.039 C 
ATOM     23  H6  1FR d   1     118.403  58.068  46.652  0.00  0.00     0.040 H 
ATOM     24  H7  1FR d   1     117.973  58.851  48.210  0.00  0.00     0.040 H 
BRANCH  22  25
ATOM     25  C18 1FR d   1     117.789  60.128  46.483  0.00  0.00    -0.042 C 
ATOM     26  H13 1FR d   1     117.157  60.126  45.583  0.00  0.00     0.036 H 
ATOM     27  H14 1FR d   1     118.834  60.316  46.196  0.00  0.00     0.036 H 
BRANCH  25  28
ATOM     28  C19 1FR d   1     117.325  61.249  47.405  0.00  0.00     0.017 C 
ATOM     29  H15 1FR d   1     118.139  61.978  47.534  0.00  0.00     0.073 H 
ATOM     30  H16 1FR d   1     117.051  60.828  48.384  0.00  0.00     0.073 H 
BRANCH  28  31
ATOM     31  O20 1FR d   1     116.184  61.904  46.831  0.00  0.00    -0.401 OA
ATOM     32  H17 1FR d   1     115.897  62.602  47.408  0.00  0.00     0.209 HD
ENDBRANCH  28  31
ENDBRANCH  25  28
ENDBRANCH  22  25
ENDBRANCH  14  22
ENDBRANCH   1  12
BRANCH   6  33
ATOM     33  N7  1FR d   1     117.675  54.416  41.954  0.00  0.00    -0.366 N 
ATOM     34  H18 1FR d   1     117.870  53.940  41.062  0.00  0.00     0.161 HD
BRANCH  33  35
ATOM     35  C22 1FR d   1     118.800  54.541  42.886  0.00  0.00     0.033 C 
ATOM     36  H5  1FR d   1     118.556  53.956  43.785  0.00  0.00     0.079 H 
BRANCH  35  37
ATOM     37  C23 1FR d   1     119.134  55.926  43.338  0.00  0.00    -0.036 A 
ATOM     38  C28 1FR d   1     118.734  57.066  42.634  0.00  0.00    -0.075 A 
ATOM     39  C27 1FR d   1     119.073  58.336  43.106  0.00  0.00    -0.082 A 
ATOM     40  H1  1FR d   1     118.160  56.964  41.720  0.00  0.00     0.084 H 
ATOM     41  C26 1FR d   1     119.818  58.483  44.276  0.00  0.00    -0.083 A 
ATOM     42  H2  1FR d   1     118.754  59.215  42.558  0.00  0.00     0.083 H 
ATOM     43  C25 1FR d   1     120.221  57.357  44.988  0.00  0.00    -0.082 A 
ATOM     44  H3  1FR d   1     120.083  59.473  44.630  0.00  0.00     0.083 H 
ATOM     45  C24 1FR d   1     119.876  56.090  44.514  0.00  0.00    -0.075 A 
ATOM     46  H22 1FR d   1     120.796  57.463  45.901  0.00  0.00     0.083 H 
ATOM     47  H4  1FR d   1     120.190  55.213  45.069  0.00  0.00     0.084 H 
ENDBRANCH  35  37
BRANCH  35  48
ATOM     48  C29 1FR d   1     120.012  53.916  42.200  0.00  0.00    -0.053 C 
ATOM     49  H19 1FR d   1     120.886  53.986  42.864  0.00  0.00     0.030 H 
ATOM     50  H20 1FR d   1     120.220  54.453  41.263  0.00  0.00     0.030 H 
ATOM     51  H21 1FR d   1     119.804  52.859  41.979  0.00  0.00     0.030 H 
ENDBRANCH  35  48
ENDBRANCH  33  35
ENDBRANCH   6  33
TORSDOF 9
