REMARK  3 active torsions:
REMARK  status: ('A' for Active; 'I' for Inactive)
REMARK    1  A    between atoms: C2'_10  and  O2'_11 
REMARK    2  A    between atoms: C1'_12  and  N9_13 
REMARK    3  A    between atoms: C2_20  and  N2_21 
ROOT
ATOM      1  P   35G d   1      17.248  35.914  26.177  0.00  0.00     0.408 P 
ATOM      2  O1P 35G d   1      18.036  36.130  27.449  0.00  0.00    -0.624 OA
ATOM      3  O2P 35G d   1      16.759  37.076  25.340  0.00  0.00    -0.624 OA
ATOM      4  O5' 35G d   1      15.949  35.055  26.565  0.00  0.00    -0.287 OA
ATOM      5  C5' 35G d   1      15.196  34.416  25.536  0.00  0.00     0.058 C 
ATOM      6  C4' 35G d   1      16.174  33.530  24.791  0.00  0.00     0.090 C 
ATOM      7  O4' 35G d   1      15.677  32.836  23.659  0.00  0.00    -0.353 OA
ATOM      8  C3' 35G d   1      17.291  34.333  24.187  0.00  0.00     0.106 C 
ATOM      9  O3' 35G d   1      18.047  34.910  25.228  0.00  0.00    -0.279 OA
ATOM     10  C2' 35G d   1      17.987  33.263  23.392  0.00  0.00     0.106 C 
ATOM     11  C1' 35G d   1      16.831  32.363  22.974  0.00  0.00     0.139 C 
ATOM     12  H1  35G d   1      14.765  35.166  24.856  0.00  0.00     0.079 H 
ATOM     13  H2  35G d   1      14.389  33.810  25.973  0.00  0.00     0.079 H 
ATOM     14  H3  35G d   1      16.573  32.803  25.514  0.00  0.00     0.090 H 
ATOM     15  H4  35G d   1      16.920  35.130  23.526  0.00  0.00     0.092 H 
ATOM     16  H5  35G d   1      18.495  33.679  22.510  0.00  0.00     0.093 H 
ATOM     17  H7  35G d   1      17.041  31.320  23.254  0.00  0.00     0.122 H 
ENDROOT
BRANCH  11  18
ATOM     18  N9  35G d   1      16.614  32.451  21.514  0.00  0.00    -0.295 N 
ATOM     19  C8  35G d   1      16.349  33.558  20.785  0.00  0.00     0.071 A 
ATOM     20  N7  35G d   1      16.226  33.241  19.461  0.00  0.00    -0.234 NA
ATOM     21  H8  35G d   1      16.248  34.562  21.195  0.00  0.00     0.144 H 
ATOM     22  C5  35G d   1      16.408  31.909  19.342  0.00  0.00     0.171 A 
ATOM     23  C6  35G d   1      16.434  30.918  18.253  0.00  0.00     0.292 A 
ATOM     24  C4  35G d   1      16.669  31.405  20.694  0.00  0.00     0.161 A 
ATOM     25  O6  35G d   1      16.229  31.240  17.067  0.00  0.00    -0.265 OA
ATOM     26  N1  35G d   1      16.663  29.642  18.583  0.00  0.00    -0.154 N 
ATOM     27  C2  35G d   1      16.891  29.240  19.846  0.00  0.00     0.680 A 
ATOM     28  H9  35G d   1      16.665  28.955  17.857  0.00  0.00     0.187 HD
ATOM     29  N3  35G d   1      16.897  30.095  20.888  0.00  0.00    -0.174 N 
ATOM     30  H12 35G d   1      17.077  29.742  21.839  0.00  0.00     0.186 HD
BRANCH  27  31
ATOM     31  N2  35G d   1      17.129  27.935  20.091  0.00  0.00    -0.234 N 
ATOM     32  H10 35G d   1      17.305  27.616  21.054  0.00  0.00     0.174 HD
ATOM     33  H11 35G d   1      17.135  27.258  19.315  0.00  0.00     0.174 HD
ENDBRANCH  27  31
ENDBRANCH  11  18
BRANCH  10  34
ATOM     34  O2' 35G d   1      18.946  32.604  24.228  0.00  0.00    -0.388 OA
ATOM     35  H6  35G d   1      19.388  31.927  23.729  0.00  0.00     0.210 HD
ENDBRANCH  10  34
TORSDOF 3
