REMARK  8 active torsions:
REMARK  status: ('A' for Active; 'I' for Inactive)
REMARK    1  A    between atoms: C22_7  and  C28_3 
REMARK    2  A    between atoms: C17_8  and  C26_4 
REMARK    3  A    between atoms: C7_15  and  C24_5 
REMARK    4  A    between atoms: C9_14  and  N8_35 
REMARK    5  A    between atoms: C7_15  and  C5_17 
REMARK    6  A    between atoms: N8_35  and  C7_15 
REMARK       I    between atoms: C34_23  and  N35_24 
REMARK    7  A    between atoms: C33_25  and  C34_23 
REMARK    8  A    between atoms: C18_31  and  N15_32 
ROOT
ATOM      1  C17 3FR d   1      57.123  22.272  43.161  0.00  0.00     0.065 A 
ATOM      2  C12 3FR d   1      56.381  21.038  42.781  0.00  0.00     0.036 A 
ATOM      3  C13 3FR d   1      55.684  20.685  41.628  0.00  0.00     0.019 A 
ATOM      4  C11 3FR d   1      56.486  20.172  43.861  0.00  0.00     0.076 A 
ATOM      5  C10 3FR d   1      55.869  18.928  43.771  0.00  0.00    -0.010 A 
ATOM      6  C9  3FR d   1      55.174  18.592  42.600  0.00  0.00     0.125 A 
ATOM      7  N15 3FR d   1      57.219  20.838  44.773  0.00  0.00    -0.233 N 
ATOM      8  N16 3FR d   1      57.634  22.127  44.398  0.00  0.00    -0.171 NA
ATOM      9  N14 3FR d   1      55.102  19.476  41.569  0.00  0.00    -0.243 NA
ATOM     10  H10 3FR d   1      55.613  21.373  40.794  0.00  0.00     0.116 H 
ATOM     11  H11 3FR d   1      55.925  18.227  44.596  0.00  0.00     0.093 H 
ENDROOT
BRANCH   7  12
ATOM     12  C18 3FR d   1      57.564  20.366  45.985  0.00  0.00     0.061 A 
ATOM     13  C23 3FR d   1      58.115  19.096  46.226  0.00  0.00    -0.044 A 
ATOM     14  C22 3FR d   1      58.474  18.648  47.503  0.00  0.00    -0.021 A 
ATOM     15  H9  3FR d   1      58.269  18.432  45.383  0.00  0.00     0.088 H 
ATOM     16  C21 3FR d   1      58.292  19.479  48.603  0.00  0.00    -0.051 A 
ATOM     17  C20 3FR d   1      57.757  20.744  48.409  0.00  0.00     0.037 A 
ATOM     18  H22 3FR d   1      58.564  19.143  49.597  0.00  0.00     0.087 H 
ATOM     19 CL   3FR d   1      57.507  21.843  49.806  0.00  0.00    -0.084 Cl
ATOM     20  C19 3FR d   1      57.411  21.160  47.126  0.00  0.00    -0.034 A 
ATOM     21  H23 3FR d   1      57.000  22.156  47.005  0.00  0.00     0.089 H 
BRANCH  14  22
ATOM     22  C28 3FR d   1      59.049  17.288  47.721  0.00  0.00    -0.010 A 
ATOM     23  C33 3FR d   1      60.289  16.924  47.195  0.00  0.00     0.042 A 
ATOM     24  C32 3FR d   1      60.797  15.645  47.427  0.00  0.00    -0.067 A 
ATOM     25  C31 3FR d   1      60.074  14.727  48.187  0.00  0.00    -0.082 A 
ATOM     26  H20 3FR d   1      61.759  15.364  47.014  0.00  0.00     0.085 H 
ATOM     27  C30 3FR d   1      58.838  15.089  48.718  0.00  0.00    -0.082 A 
ATOM     28  H1  3FR d   1      60.472  13.735  48.364  0.00  0.00     0.083 H 
ATOM     29  C29 3FR d   1      58.330  16.366  48.487  0.00  0.00    -0.071 A 
ATOM     30  H2  3FR d   1      58.272  14.379  49.310  0.00  0.00     0.083 H 
ATOM     31  H21 3FR d   1      57.370  16.646  48.905  0.00  0.00     0.084 H 
BRANCH  23  32
ATOM     32  C34 3FR d   1      61.100  17.884  46.372  0.00  0.00     0.250 C 
ATOM     33  O36 3FR d   1      61.673  18.809  46.924  0.00  0.00    -0.268 OA
ATOM     34  N35 3FR d   1      61.170  17.698  45.055  0.00  0.00    -0.366 N 
ATOM     35  H18 3FR d   1      60.689  16.930  44.632  0.00  0.00     0.159 HD
ATOM     36  H19 3FR d   1      61.704  18.326  44.489  0.00  0.00     0.159 HD
ENDBRANCH  23  32
ENDBRANCH  14  22
ENDBRANCH   7  12
BRANCH   1  37
ATOM     37  C26 3FR d   1      57.164  23.386  42.151  0.00  0.00    -0.033 C 
ATOM     38  H3  3FR d   1      57.740  24.230  42.559  0.00  0.00     0.035 H 
ATOM     39  H4  3FR d   1      56.139  23.716  41.927  0.00  0.00     0.035 H 
ATOM     40  H5  3FR d   1      57.643  23.027  41.228  0.00  0.00     0.035 H 
ENDBRANCH   1  37
BRANCH   6  41
ATOM     41  N8  3FR d   1      54.558  17.390  42.441  0.00  0.00    -0.366 N 
ATOM     42  H24 3FR d   1      54.077  17.228  41.545  0.00  0.00     0.161 HD
BRANCH  41  43
ATOM     43  C7  3FR d   1      54.513  16.307  43.420  0.00  0.00     0.033 C 
ATOM     44  H12 3FR d   1      53.979  16.674  44.309  0.00  0.00     0.079 H 
BRANCH  43  45
ATOM     45  C24 3FR d   1      53.733  15.137  42.824  0.00  0.00    -0.053 C 
ATOM     46  H6  3FR d   1      52.740  15.484  42.502  0.00  0.00     0.030 H 
ATOM     47  H7  3FR d   1      53.618  14.349  43.583  0.00  0.00     0.030 H 
ATOM     48  H8  3FR d   1      54.279  14.735  41.958  0.00  0.00     0.030 H 
ENDBRANCH  43  45
BRANCH  43  49
ATOM     49  C5  3FR d   1      55.860  15.838  43.857  0.00  0.00    -0.036 A 
ATOM     50  C4  3FR d   1      55.999  15.272  45.126  0.00  0.00    -0.075 A 
ATOM     51  C3  3FR d   1      57.244  14.824  45.565  0.00  0.00    -0.082 A 
ATOM     52  H13 3FR d   1      55.134  15.181  45.773  0.00  0.00     0.084 H 
ATOM     53  C2  3FR d   1      58.363  14.944  44.743  0.00  0.00    -0.083 A 
ATOM     54  H15 3FR d   1      57.342  14.381  46.549  0.00  0.00     0.083 H 
ATOM     55  C1  3FR d   1      58.234  15.512  43.477  0.00  0.00    -0.082 A 
ATOM     56  H16 3FR d   1      59.330  14.597  45.087  0.00  0.00     0.083 H 
ATOM     57  C6  3FR d   1      56.987  15.954  43.036  0.00  0.00    -0.075 A 
ATOM     58  H17 3FR d   1      59.102  15.610  42.836  0.00  0.00     0.083 H 
ATOM     59  H14 3FR d   1      56.890  16.391  42.049  0.00  0.00     0.084 H 
ENDBRANCH  43  49
ENDBRANCH  41  43
ENDBRANCH   6  41
TORSDOF 8
