REMARK  5 active torsions:
REMARK  status: ('A' for Active; 'I' for Inactive)
REMARK    1  A    between atoms: C4_2  and  N3_13 
REMARK    2  A    between atoms: C7_6  and  C5_3 
REMARK    3  A    between atoms: N4_17  and  C7_6 
REMARK    4  A    between atoms: S2_19  and  C13_14 
REMARK    5  A    between atoms: S2_19  and  N5_21 
ROOT
ATOM      1  C4  GD9 d   1      22.255  61.781  22.108  0.00  0.00     0.147 A 
ATOM      2  C5  GD9 d   1      21.375  65.398  21.367  0.00  0.00     0.011 A 
ATOM      3  C6  GD9 d   1      22.592  65.205  20.863  0.00  0.00    -0.039 A 
ATOM      4  N1  GD9 d   1      24.157  63.285  20.755  0.00  0.00    -0.227 NA
ATOM      5  C8  GD9 d   1      25.609  61.469  20.667  0.00  0.00     0.026 A 
ATOM      6  N2  GD9 d   1      23.448  61.257  21.720  0.00  0.00    -0.209 NA
ATOM      7  S1  GD9 d   1      20.661  64.068  22.110  0.00  0.00    -0.087 SA
ATOM      8  C2  GD9 d   1      22.993  63.829  21.110  0.00  0.00     0.081 A 
ATOM      9  C1  GD9 d   1      22.032  63.123  21.786  0.00  0.00     0.080 A 
ATOM     10  C3  GD9 d   1      24.375  61.989  21.052  0.00  0.00     0.163 A 
ATOM     11  C18 GD9 d   1      26.254  61.914  19.517  0.00  0.00    -0.068 A 
ATOM     12  C19 GD9 d   1      27.490  61.382  19.182  0.00  0.00    -0.080 A 
ATOM     13  C20 GD9 d   1      28.088  60.437  19.990  0.00  0.00    -0.055 A 
ATOM     14  C21 GD9 d   1      27.454  60.012  21.141  0.00  0.00     0.062 A 
ATOM     15  N6  GD9 d   1      27.863  59.090  22.079  0.00  0.00    -0.278 N 
ATOM     16  C22 GD9 d   1      26.251  60.535  21.438  0.00  0.00     0.025 A 
ATOM     17  C23 GD9 d   1      25.828  59.920  22.652  0.00  0.00     0.035 A 
ATOM     18  N7  GD9 d   1      26.803  59.061  23.031  0.00  0.00    -0.186 NA
ATOM     19  H1  GD9 d   1      23.190  65.956  20.349  0.00  0.00     0.088 H 
ATOM     20  H20 GD9 d   1      25.795  62.669  18.889  0.00  0.00     0.085 H 
ATOM     21  H21 GD9 d   1      27.990  61.711  18.278  0.00  0.00     0.083 H 
ATOM     22  H22 GD9 d   1      29.055  60.028  19.721  0.00  0.00     0.087 H 
ATOM     23  H23 GD9 d   1      28.737  58.545  22.090  0.00  0.00     0.189 HD
ATOM     24  H24 GD9 d   1      24.893  60.107  23.178  0.00  0.00     0.118 H 
ENDROOT
BRANCH   2  25
ATOM     25  C7  GD9 d   1      20.691  66.743  21.278  0.00  0.00     0.113 C 
ATOM     26  H2  GD9 d   1      21.420  67.531  21.518  0.00  0.00     0.084 H 
ATOM     27  H3  GD9 d   1      19.866  66.773  22.005  0.00  0.00     0.084 H 
BRANCH  25  28
ATOM     28  N4  GD9 d   1      20.161  66.980  19.955  0.00  0.00    -0.064 N 
ATOM     29  C9  GD9 d   1      19.921  68.393  19.672  0.00  0.00     0.095 C 
ATOM     30  C10 GD9 d   1      19.530  68.524  18.196  0.00  0.00     0.016 C 
ATOM     31  H4  GD9 d   1      19.105  68.767  20.308  0.00  0.00     0.077 H 
ATOM     32  H5  GD9 d   1      20.835  68.973  19.868  0.00  0.00     0.077 H 
ATOM     33  N5  GD9 d   1      18.472  67.555  17.898  0.00  0.00    -0.208 NA
ATOM     34  H6  GD9 d   1      20.406  68.321  17.562  0.00  0.00     0.059 H 
ATOM     35  H7  GD9 d   1      19.164  69.543  18.000  0.00  0.00     0.059 H 
ATOM     36  C11 GD9 d   1      18.885  66.207  18.208  0.00  0.00     0.016 C 
ATOM     37  C12 GD9 d   1      18.981  66.172  19.714  0.00  0.00     0.095 C 
ATOM     38  H8  GD9 d   1      18.140  65.481  17.850  0.00  0.00     0.059 H 
ATOM     39  H9  GD9 d   1      19.861  65.986  17.752  0.00  0.00     0.059 H 
ATOM     40  H10 GD9 d   1      19.117  65.145  20.083  0.00  0.00     0.077 H 
ATOM     41  H11 GD9 d   1      18.090  66.615  20.183  0.00  0.00     0.077 H 
ATOM     42  H19 GD9 d   1      20.865  66.673  19.302  0.00  0.00     0.280 HD
BRANCH  33  43
ATOM     43  S2  GD9 d   1      18.013  67.564  16.242  0.00  0.00     0.207 S 
ATOM     44  O2  GD9 d   1      19.233  67.342  15.453  0.00  0.00    -0.212 OA
ATOM     45  O1  GD9 d   1      17.038  66.497  15.981  0.00  0.00    -0.212 OA
BRANCH  43  46
ATOM     46  C13 GD9 d   1      17.257  69.177  15.870  0.00  0.00     0.028 C 
ATOM     47  H12 GD9 d   1      17.986  69.977  16.065  0.00  0.00     0.050 H 
ATOM     48  H13 GD9 d   1      16.373  69.323  16.508  0.00  0.00     0.050 H 
ATOM     49  H14 GD9 d   1      16.955  69.206  14.813  0.00  0.00     0.050 H 
ENDBRANCH  43  46
ENDBRANCH  33  43
ENDBRANCH  25  28
ENDBRANCH   2  25
BRANCH   1  50
ATOM     50  N3  GD9 d   1      21.380  60.990  22.810  0.00  0.00    -0.361 N 
ATOM     51  C14 GD9 d   1      21.950  59.888  23.583  0.00  0.00     0.016 C 
ATOM     52  C15 GD9 d   1      21.062  59.602  24.789  0.00  0.00     0.034 C 
ATOM     53  H15 GD9 d   1      22.958  60.164  23.927  0.00  0.00     0.067 H 
ATOM     54  H16 GD9 d   1      22.011  58.990  22.951  0.00  0.00     0.067 H 
ATOM     55  O3  GD9 d   1      19.686  59.525  24.439  0.00  0.00    -0.388 OA
ATOM     56  H17 GD9 d   1      21.368  58.644  25.234  0.00  0.00     0.076 H 
ATOM     57  H18 GD9 d   1      21.195  60.408  25.526  0.00  0.00     0.076 H 
ATOM     58  C16 GD9 d   1      19.250  60.743  23.850  0.00  0.00     0.034 C 
ATOM     59  C17 GD9 d   1      19.955  60.889  22.500  0.00  0.00     0.016 C 
ATOM     60  H25 GD9 d   1      19.512  61.589  24.502  0.00  0.00     0.076 H 
ATOM     61  H26 GD9 d   1      18.160  60.718  23.702  0.00  0.00     0.076 H 
ATOM     62  H27 GD9 d   1      19.761  60.010  21.868  0.00  0.00     0.067 H 
ATOM     63  H28 GD9 d   1      19.609  61.796  21.982  0.00  0.00     0.067 H 
ENDBRANCH   1  50
TORSDOF 5
