REMARK  5 active torsions:
REMARK  status: ('A' for Active; 'I' for Inactive)
REMARK    1  A    between atoms: C1_3  and  C2_4 
REMARK    2  A    between atoms: C2_4  and  O2_5 
REMARK    3  A    between atoms: C2_4  and  C3_6 
REMARK    4  A    between atoms: C3_6  and  O3_7 
REMARK    5  A    between atoms: C3_6  and  C4_8 
ROOT
ATOM      1  C2  TLA d   1      26.006  81.120  48.194  0.00  0.00     0.153 C 
ATOM      2  H1  TLA d   1      25.267  81.383  47.423  0.00  0.00     0.105 H 
ENDROOT
BRANCH   1   3
ATOM      3  C1  TLA d   1      27.135  80.390  47.530  0.00  0.00     0.206 C 
ATOM      4  O1  TLA d   1      26.907  79.344  46.941  0.00  0.00    -0.646 OA
ATOM      5  O11 TLA d   1      28.366  80.890  47.581  0.00  0.00    -0.646 OA
ENDBRANCH   1   3
BRANCH   1   6
ATOM      6  O2  TLA d   1      26.492  82.343  48.761  0.00  0.00    -0.382 OA
ATOM      7  H2  TLA d   1      25.775  82.803  49.181  0.00  0.00     0.210 HD
ENDBRANCH   1   6
BRANCH   1   8
ATOM      8  C3  TLA d   1      25.299  80.200  49.216  0.00  0.00     0.153 C 
ATOM      9  H3  TLA d   1      24.766  79.419  48.654  0.00  0.00     0.105 H 
BRANCH   8  10
ATOM     10  O3  TLA d   1      26.240  79.537  50.071  0.00  0.00    -0.382 OA
ATOM     11  H4  TLA d   1      25.773  78.982  50.684  0.00  0.00     0.210 HD
ENDBRANCH   8  10
BRANCH   8  12
ATOM     12  C4  TLA d   1      24.262  81.002  49.982  0.00  0.00     0.206 C 
ATOM     13  O4  TLA d   1      23.792  82.015  49.479  0.00  0.00    -0.646 OA
ATOM     14  O41 TLA d   1      23.851  80.643  51.201  0.00  0.00    -0.646 OA
ENDBRANCH   8  12
ENDBRANCH   1   8
TORSDOF 5
