REMARK  17 active torsions:
REMARK  status: ('A' for Active; 'I' for Inactive)
REMARK    1  A    between atoms: C1_1  and  C7_11 
REMARK    2  A    between atoms: C2_2  and  O2_3 
REMARK    3  A    between atoms: C3_4  and  O3_5 
REMARK    4  A    between atoms: C4_6  and  O4_7 
REMARK    5  A    between atoms: C5_8  and  C6_10 
REMARK    6  A    between atoms: C7_11  and  C8_12 
REMARK       I    between atoms: C8_12  and  N1_14 
REMARK    7  A    between atoms: N1_14  and  C9_15 
REMARK    8  A    between atoms: C9_15  and  C10_16 
REMARK    9  A    between atoms: C9_15  and  C11_18 
REMARK       I    between atoms: C10_16  and  N3_20 
REMARK   10  A    between atoms: C11_18  and  C12_19 
REMARK   11  A    between atoms: C15_21  and  C16_22 
REMARK       I    between atoms: C16_22  and  N4_27 
REMARK   12  A    between atoms: N4_27  and  C20_28 
REMARK   13  A    between atoms: C20_28  and  C21_29 
REMARK   14  A    between atoms: C20_28  and  C22_31 
REMARK       I    between atoms: C21_29  and  N5_35 
REMARK   15  A    between atoms: C22_31  and  C23_32 
REMARK   16  A    between atoms: C23_32  and  C24_33 
REMARK   17  A    between atoms: C23_32  and  C25_34 
ROOT
ATOM      1  C10 2G0 d   1       8.454  46.992  11.922  0.00  0.00     0.243 C 
ATOM      2  O7  2G0 d   1       8.559  46.580  13.085  0.00  0.00    -0.271 OA
ATOM      3  N3  2G0 d   1       7.357  46.763  11.172  0.00  0.00    -0.337 N 
ATOM      4  C15 2G0 d   1       6.220  45.998  11.706  0.00  0.00     0.091 C 
ATOM      5  C17 2G0 d   1       5.169  46.107  10.602  0.00  0.00    -0.036 C 
ATOM      6  C18 2G0 d   1       5.980  46.364   9.353  0.00  0.00    -0.048 C 
ATOM      7  C19 2G0 d   1       7.072  47.283   9.823  0.00  0.00    -0.001 C 
ATOM      8  H21 2G0 d   1       5.852  46.506  12.610  0.00  0.00     0.087 H 
ATOM      9  H22 2G0 d   1       4.479  46.941  10.799  0.00  0.00     0.036 H 
ATOM     10  H23 2G0 d   1       4.597  45.172  10.512  0.00  0.00     0.036 H 
ATOM     11  H24 2G0 d   1       5.366  46.847   8.579  0.00  0.00     0.035 H 
ATOM     12  H25 2G0 d   1       6.399  45.427   8.957  0.00  0.00     0.035 H 
ATOM     13  H26 2G0 d   1       7.957  47.215   9.174  0.00  0.00     0.064 H 
ATOM     14  H27 2G0 d   1       6.726  48.326   9.863  0.00  0.00     0.064 H 
ENDROOT
BRANCH   1  15
ATOM     15  C9  2G0 d   1       9.580  47.795  11.294  0.00  0.00     0.089 C 
ATOM     16  H15 2G0 d   1      10.438  47.690  11.974  0.00  0.00     0.087 H 
BRANCH  15  17
ATOM     17  N1  2G0 d   1      10.063  47.375   9.986  0.00  0.00    -0.348 N 
ATOM     18  C8  2G0 d   1      10.238  46.093   9.693  0.00  0.00     0.220 C 
ATOM     19  O6  2G0 d   1       9.927  45.192  10.470  0.00  0.00    -0.274 OA
ATOM     20  H14 2G0 d   1      10.267  48.068   9.294  0.00  0.00     0.163 HD
BRANCH  18  21
ATOM     21  C7  2G0 d   1      10.831  45.770   8.324  0.00  0.00     0.036 C 
ATOM     22  H12 2G0 d   1      10.190  45.076   7.761  0.00  0.00     0.051 H 
ATOM     23  H13 2G0 d   1      10.994  46.682   7.731  0.00  0.00     0.051 H 
BRANCH  21  24
ATOM     24  C1  2G0 d   1      12.166  45.109   8.721  0.00  0.00     0.074 C 
ATOM     25  C2  2G0 d   1      13.092  44.916   7.506  0.00  0.00     0.088 C 
ATOM     26  C3  2G0 d   1      13.517  46.301   6.993  0.00  0.00     0.089 C 
ATOM     27  H2  2G0 d   1      13.982  44.346   7.809  0.00  0.00     0.091 H 
ATOM     28  C4  2G0 d   1      14.167  47.088   8.096  0.00  0.00     0.087 C 
ATOM     29  H4  2G0 d   1      12.624  46.838   6.641  0.00  0.00     0.091 H 
ATOM     30  C5  2G0 d   1      13.263  47.159   9.319  0.00  0.00     0.063 C 
ATOM     31  H6  2G0 d   1      14.361  48.110   7.738  0.00  0.00     0.091 H 
ATOM     32  O5  2G0 d   1      12.899  45.822   9.741  0.00  0.00    -0.375 OA
ATOM     33  H8  2G0 d   1      12.355  47.722   9.057  0.00  0.00     0.086 H 
ATOM     34  H1  2G0 d   1      11.922  44.115   9.123  0.00  0.00     0.088 H 
BRANCH  25  35
ATOM     35  O2  2G0 d   1      12.411  44.212   6.483  0.00  0.00    -0.390 OA
ATOM     36  H3  2G0 d   1      12.143  43.361   6.810  0.00  0.00     0.210 HD
ENDBRANCH  25  35
BRANCH  26  37
ATOM     37  O3  2G0 d   1      14.443  46.183   5.923  0.00  0.00    -0.390 OA
ATOM     38  H5  2G0 d   1      14.691  47.050   5.623  0.00  0.00     0.210 HD
ENDBRANCH  26  37
BRANCH  28  39
ATOM     39  O4  2G0 d   1      15.393  46.478   8.447  0.00  0.00    -0.390 OA
ATOM     40  H7  2G0 d   1      15.805  46.975   9.144  0.00  0.00     0.210 HD
ENDBRANCH  28  39
BRANCH  30  41
ATOM     41  C6  2G0 d   1      13.959  47.845  10.483  0.00  0.00    -0.050 C 
ATOM     42  H9  2G0 d   1      13.280  47.879  11.348  0.00  0.00     0.031 H 
ATOM     43  H10 2G0 d   1      14.235  48.870  10.193  0.00  0.00     0.031 H 
ATOM     44  H11 2G0 d   1      14.866  47.283  10.751  0.00  0.00     0.031 H 
ENDBRANCH  30  41
ENDBRANCH  21  24
ENDBRANCH  18  21
ENDBRANCH  15  17
BRANCH  15  45
ATOM     45  C11 2G0 d   1       9.196  49.283  11.272  0.00  0.00    -0.041 C 
ATOM     46  H16 2G0 d   1       8.520  49.484  12.116  0.00  0.00     0.036 H 
ATOM     47  H17 2G0 d   1       8.676  49.497  10.327  0.00  0.00     0.036 H 
BRANCH  45  48
ATOM     48  C12 2G0 d   1      10.404  50.209  11.384  0.00  0.00    -0.074 C 
ATOM     49  H18 2G0 d   1      10.067  51.256  11.363  0.00  0.00     0.027 H 
ATOM     50  H19 2G0 d   1      11.086  50.026  10.540  0.00  0.00     0.027 H 
ATOM     51  H20 2G0 d   1      10.930  50.013  12.330  0.00  0.00     0.027 H 
ENDBRANCH  45  48
ENDBRANCH  15  45
ENDBRANCH   1  15
BRANCH   4  52
ATOM     52  C16 2G0 d   1       6.503  44.548  12.099  0.00  0.00     0.241 C 
ATOM     53  O8  2G0 d   1       5.652  43.896  12.709  0.00  0.00    -0.271 OA
ATOM     54  N4  2G0 d   1       7.682  44.046  11.734  0.00  0.00    -0.346 N 
ATOM     55  H28 2G0 d   1       8.312  44.625  11.216  0.00  0.00     0.163 HD
BRANCH  54  56
ATOM     56  C20 2G0 d   1       8.088  42.683  12.062  0.00  0.00     0.089 C 
ATOM     57  H29 2G0 d   1       7.211  42.020  12.034  0.00  0.00     0.087 H 
BRANCH  56  58
ATOM     58  C21 2G0 d   1       8.700  42.669  13.466  0.00  0.00     0.238 C 
ATOM     59  O9  2G0 d   1       9.070  43.767  13.938  0.00  0.00    -0.271 OA
ATOM     60  N5  2G0 d   1       8.832  41.575  14.071  0.00  0.00    -0.368 N 
ATOM     61  H39 2G0 d   1       9.230  41.556  14.988  0.00  0.00     0.159 HD
ATOM     62  H40 2G0 d   1       8.539  40.724  13.635  0.00  0.00     0.159 HD
ENDBRANCH  56  58
BRANCH  56  63
ATOM     63  C22 2G0 d   1       9.131  42.197  11.047  0.00  0.00    -0.035 C 
ATOM     64  H30 2G0 d   1       9.839  41.569  11.608  0.00  0.00     0.037 H 
ATOM     65  H31 2G0 d   1       9.649  43.096  10.681  0.00  0.00     0.037 H 
BRANCH  63  66
ATOM     66  C23 2G0 d   1       8.733  41.392   9.802  0.00  0.00    -0.059 C 
ATOM     67  H32 2G0 d   1       8.857  40.323  10.030  0.00  0.00     0.038 H 
BRANCH  66  68
ATOM     68  C24 2G0 d   1       7.299  41.606   9.406  0.00  0.00    -0.073 C 
ATOM     69  H33 2G0 d   1       7.072  41.007   8.512  0.00  0.00     0.028 H 
ATOM     70  H34 2G0 d   1       7.135  42.671   9.185  0.00  0.00     0.028 H 
ATOM     71  H35 2G0 d   1       6.641  41.297  10.231  0.00  0.00     0.028 H 
ENDBRANCH  66  68
BRANCH  66  72
ATOM     72  C25 2G0 d   1       9.681  41.754   8.682  0.00  0.00    -0.073 C 
ATOM     73  H36 2G0 d   1      10.717  41.584   9.010  0.00  0.00     0.028 H 
ATOM     74  H37 2G0 d   1       9.549  42.814   8.418  0.00  0.00     0.028 H 
ATOM     75  H38 2G0 d   1       9.467  41.128   7.803  0.00  0.00     0.028 H 
ENDBRANCH  66  72
ENDBRANCH  63  66
ENDBRANCH  56  63
ENDBRANCH  54  56
ENDBRANCH   4  52
TORSDOF 17
