REMARK WARNING: 32 MAX_TORS EXCEEDED!!!
REMARK  38 active torsions:
REMARK  status: ('A' for Active; 'I' for Inactive)
REMARK    1  A    between atoms: C_1  and  CH3_3 
REMARK       I    between atoms: C_1  and  N_4 
REMARK    2  A    between atoms: N_4  and  CA_5 
REMARK    3  A    between atoms: CA_5  and  C_6 
REMARK    4  A    between atoms: CA_5  and  CB_8 
REMARK       I    between atoms: C_6  and  N_11 
REMARK    5  A    between atoms: CB_8  and  OG1_9 
REMARK    6  A    between atoms: CB_8  and  CG2_10 
REMARK    7  A    between atoms: N_11  and  CA_12 
REMARK    8  A    between atoms: CA_12  and  C_13 
REMARK    9  A    between atoms: CA_12  and  CB_15 
REMARK       I    between atoms: C_13  and  N_19 
REMARK   10  A    between atoms: CB_15  and  CG1_16 
REMARK   11  A    between atoms: CB_15  and  CG2_17 
REMARK   12  A    between atoms: CG1_16  and  CD1_18 
REMARK   13  A    between atoms: N_19  and  CA_20 
REMARK   14  A    between atoms: CA_20  and  CB_21 
REMARK   15  A    between atoms: CA_20  and  CW_25 
REMARK   16  A    between atoms: CB_21  and  CG_22 
REMARK   17  A    between atoms: CG_22  and  CD_23 
REMARK   18  A    between atoms: CD_23  and  CE_24 
REMARK   19  A    between atoms: CW_25  and  OA_26 
REMARK   20  A    between atoms: CW_25  and  OB_27 
REMARK   21  A    between atoms: CW_25  and  CZ_28 
REMARK   22  A    between atoms: CZ_28  and  CJ_29 
REMARK   23  A    between atoms: CJ_29  and  CL_30 
REMARK   24  A    between atoms: CJ_29  and  C_34 
REMARK   25  A    between atoms: CL_30  and  CX_31 
REMARK   26  A    between atoms: CX_31  and  CV_32 
REMARK   27  A    between atoms: CV_32  and  CY_33 
REMARK       I    between atoms: C_34  and  N_36 
REMARK   28  A    between atoms: N_36  and  CA_37 
REMARK   29  A    between atoms: CA_37  and  C_38 
REMARK   30  A    between atoms: CA_37  and  CB_40 
REMARK       I    between atoms: C_38  and  N_45 
REMARK   31  A    between atoms: CB_40  and  CG_41 
REMARK   32  A    between atoms: CG_41  and  CD_42 
REMARK       I    between atoms: CD_42  and  NE2_44 
REMARK   33  A    between atoms: N_45  and  CA_46 
REMARK   34  A    between atoms: CA_46  and  CB_47 
REMARK   35  A    between atoms: CA_46  and  C_54 
REMARK   36  A    between atoms: CB_47  and  CG_48 
REMARK   37  A    between atoms: CG_48  and  CD_49 
REMARK   38  A    between atoms: CD_49  and  NE_50 
REMARK       I    between atoms: NE_50  and  CZ_51 
REMARK       I    between atoms: CZ_51  and  NH1_52 
REMARK       I    between atoms: C_54  and  NT_56 
ROOT
ATOM      1  CZ  KVS d   1      -5.938  -0.821 -14.738  0.00  0.00     0.000 C 
ATOM      2  H35 KVS d   1      -5.976  -1.646 -14.011  0.00  0.00     0.042 H 
ATOM      3  H36 KVS d   1      -6.830  -0.858 -15.381  0.00  0.00     0.042 H 
ENDROOT
BRANCH   1   4
ATOM      4  CW  KVS d   1      -4.721  -1.058 -15.633  0.00  0.00     0.180 C 
BRANCH   4   5
ATOM      5  CA  KVS d   1      -4.372  -2.520 -15.861  0.00  0.00     0.066 C 
ATOM      6  H23 KVS d   1      -4.169  -2.954 -14.871  0.00  0.00     0.081 H 
BRANCH   5   7
ATOM      7  N   KVS d   1      -5.485  -3.246 -16.462  0.00  0.00    -0.349 N 
ATOM      8  C   KVS d   1      -6.319  -4.098 -15.651  0.00  0.00     0.241 C 
ATOM      9  O   KVS d   1      -6.161  -4.219 -14.414  0.00  0.00    -0.271 OA
ATOM     10  H22 KVS d   1      -5.670  -3.153 -17.440  0.00  0.00     0.163 HD
BRANCH   8  11
ATOM     11  CA  KVS d   1      -7.396  -4.886 -16.384  0.00  0.00     0.092 C 
ATOM     12  H12 KVS d   1      -7.641  -4.378 -17.328  0.00  0.00     0.088 H 
BRANCH  11  13
ATOM     13  N   KVS d   1      -6.876  -6.187 -16.685  0.00  0.00    -0.346 N 
ATOM     14  C   KVS d   1      -6.802  -6.665 -17.916  0.00  0.00     0.243 C 
ATOM     15  O   KVS d   1      -7.139  -6.015 -18.896  0.00  0.00    -0.271 OA
ATOM     16  H11 KVS d   1      -6.555  -6.759 -15.930  0.00  0.00     0.163 HD
BRANCH  14  17
ATOM     17  CA  KVS d   1      -6.221  -8.091 -18.109  0.00  0.00     0.113 C 
ATOM     18  H5  KVS d   1      -5.425  -8.013 -18.864  0.00  0.00     0.091 H 
BRANCH  17  19
ATOM     19  N   KVS d   1      -5.606  -8.707 -16.942  0.00  0.00    -0.346 N 
ATOM     20  C   KVS d   1      -4.291  -8.871 -16.777  0.00  0.00     0.214 C 
ATOM     21  O   KVS d   1      -3.473  -8.535 -17.658  0.00  0.00    -0.274 OA
ATOM     22  H4  KVS d   1      -6.210  -9.030 -16.213  0.00  0.00     0.163 HD
BRANCH  20  23
ATOM     23  CH3 KVS d   1      -3.871  -9.553 -15.510  0.00  0.00    -0.003 C 
ATOM     24  H1  KVS d   1      -4.757  -9.751 -14.889  0.00  0.00     0.040 H 
ATOM     25  H2  KVS d   1      -3.174  -8.905 -14.958  0.00  0.00     0.040 H 
ATOM     26  H3  KVS d   1      -3.373 -10.504 -15.753  0.00  0.00     0.040 H 
ENDBRANCH  20  23
ENDBRANCH  17  19
BRANCH  17  27
ATOM     27  CB  KVS d   1      -7.325  -8.942 -18.689  0.00  0.00     0.060 C 
ATOM     28  H6  KVS d   1      -7.704  -8.454 -19.599  0.00  0.00     0.086 H 
BRANCH  27  29
ATOM     29  OG1 KVS d   1      -8.410  -9.074 -17.760  0.00  0.00    -0.393 OA
ATOM     30  H7  KVS d   1      -9.092  -9.612 -18.145  0.00  0.00     0.210 HD
ENDBRANCH  27  29
BRANCH  27  31
ATOM     31  CG2 KVS d   1      -6.763 -10.320 -19.068  0.00  0.00    -0.050 C 
ATOM     32  H8  KVS d   1      -7.567 -10.940 -19.491  0.00  0.00     0.031 H 
ATOM     33  H9  KVS d   1      -6.356 -10.809 -18.171  0.00  0.00     0.031 H 
ATOM     34  H10 KVS d   1      -5.964 -10.198 -19.814  0.00  0.00     0.031 H 
ENDBRANCH  27  31
ENDBRANCH  17  27
ENDBRANCH  14  17
ENDBRANCH  11  13
BRANCH  11  35
ATOM     35  CB  KVS d   1      -8.661  -4.940 -15.520  0.00  0.00    -0.030 C 
ATOM     36  H13 KVS d   1      -8.371  -5.313 -14.526  0.00  0.00     0.043 H 
BRANCH  35  37
ATOM     37  CG1 KVS d   1      -9.720  -5.868 -16.080  0.00  0.00    -0.063 C 
ATOM     38  H14 KVS d   1     -10.571  -5.863 -15.383  0.00  0.00     0.033 H 
ATOM     39  H15 KVS d   1      -9.289  -6.879 -16.124  0.00  0.00     0.033 H 
BRANCH  37  40
ATOM     40  CD1 KVS d   1     -10.260  -5.528 -17.481  0.00  0.00    -0.076 C 
ATOM     41  H19 KVS d   1     -11.017  -6.271 -17.772  0.00  0.00     0.027 H 
ATOM     42  H20 KVS d   1      -9.433  -5.543 -18.206  0.00  0.00     0.027 H 
ATOM     43  H21 KVS d   1     -10.716  -4.527 -17.465  0.00  0.00     0.027 H 
ENDBRANCH  37  40
ENDBRANCH  35  37
BRANCH  35  44
ATOM     44  CG2 KVS d   1      -9.274  -3.528 -15.356  0.00  0.00    -0.071 C 
ATOM     45  H16 KVS d   1      -8.515  -2.844 -14.950  0.00  0.00     0.028 H 
ATOM     46  H17 KVS d   1     -10.130  -3.578 -14.666  0.00  0.00     0.028 H 
ATOM     47  H18 KVS d   1      -9.613  -3.159 -16.335  0.00  0.00     0.028 H 
ENDBRANCH  35  44
ENDBRANCH  11  35
ENDBRANCH   8  11
ENDBRANCH   5   7
BRANCH   5  48
ATOM     48  CB  KVS d   1      -3.139  -2.782 -16.742  0.00  0.00    -0.041 C 
ATOM     49  H24 KVS d   1      -2.274  -2.299 -16.265  0.00  0.00     0.036 H 
ATOM     50  H25 KVS d   1      -3.321  -2.321 -17.724  0.00  0.00     0.036 H 
BRANCH  48  51
ATOM     51  CG  KVS d   1      -2.784  -4.274 -16.975  0.00  0.00    -0.063 C 
ATOM     52  H26 KVS d   1      -1.813  -4.322 -17.490  0.00  0.00     0.033 H 
ATOM     53  H27 KVS d   1      -3.561  -4.718 -17.614  0.00  0.00     0.033 H 
BRANCH  51  54
ATOM     54  CD  KVS d   1      -2.687  -5.107 -15.681  0.00  0.00    -0.068 C 
ATOM     55  H28 KVS d   1      -2.351  -6.128 -15.917  0.00  0.00     0.032 H 
ATOM     56  H29 KVS d   1      -3.669  -5.149 -15.188  0.00  0.00     0.032 H 
BRANCH  54  57
ATOM     57  CE  KVS d   1      -1.683  -4.431 -14.774  0.00  0.00    -0.077 C 
ATOM     58  H30 KVS d   1      -1.591  -5.003 -13.839  0.00  0.00     0.027 H 
ATOM     59  H31 KVS d   1      -2.023  -3.410 -14.547  0.00  0.00     0.027 H 
ATOM     60  H32 KVS d   1      -0.705  -4.389 -15.276  0.00  0.00     0.027 H 
ENDBRANCH  54  57
ENDBRANCH  51  54
ENDBRANCH  48  51
ENDBRANCH   5  48
ENDBRANCH   4   5
BRANCH   4  61
ATOM     61  OA  KVS d   1      -5.039  -0.357 -16.923  0.00  0.00    -0.364 OA
ATOM     62  H33 KVS d   1      -4.284  -0.397 -17.498  0.00  0.00     0.213 HD
ENDBRANCH   4  61
BRANCH   4  63
ATOM     63  OB  KVS d   1      -3.548  -0.282 -15.099  0.00  0.00    -0.364 OA
ATOM     64  H34 KVS d   1      -2.832  -0.324 -15.722  0.00  0.00     0.213 HD
ENDBRANCH   4  63
ENDBRANCH   1   4
BRANCH   1  65
ATOM     65  CJ  KVS d   1      -6.000   0.465 -13.959  0.00  0.00     0.028 C 
ATOM     66  H37 KVS d   1      -5.756   1.300 -14.633  0.00  0.00     0.054 H 
BRANCH  65  67
ATOM     67  CL  KVS d   1      -7.415   0.683 -13.436  0.00  0.00    -0.053 C 
ATOM     68  H38 KVS d   1      -7.683  -0.190 -12.822  0.00  0.00     0.034 H 
ATOM     69  H39 KVS d   1      -8.088   0.741 -14.305  0.00  0.00     0.034 H 
BRANCH  67  70
ATOM     70  CX  KVS d   1      -7.643   1.943 -12.583  0.00  0.00    -0.065 C 
ATOM     71  H40 KVS d   1      -8.619   2.393 -12.817  0.00  0.00     0.033 H 
ATOM     72  H41 KVS d   1      -6.847   2.679 -12.767  0.00  0.00     0.033 H 
BRANCH  70  73
ATOM     73  CV  KVS d   1      -7.608   1.473 -11.133  0.00  0.00    -0.069 C 
ATOM     74  H42 KVS d   1      -7.517   2.358 -10.487  0.00  0.00     0.032 H 
ATOM     75  H43 KVS d   1      -6.725   0.830 -11.001  0.00  0.00     0.032 H 
BRANCH  73  76
ATOM     76  CY  KVS d   1      -8.856   0.677 -10.689  0.00  0.00    -0.077 C 
ATOM     77  H44 KVS d   1      -8.746   0.380  -9.636  0.00  0.00     0.027 H 
ATOM     78  H45 KVS d   1      -8.960  -0.222 -11.315  0.00  0.00     0.027 H 
ATOM     79  H46 KVS d   1      -9.751   1.306 -10.800  0.00  0.00     0.027 H 
ENDBRANCH  73  76
ENDBRANCH  70  73
ENDBRANCH  67  70
ENDBRANCH  65  67
BRANCH  65  80
ATOM     80  C   KVS d   1      -4.959   0.426 -12.868  0.00  0.00     0.222 C 
ATOM     81  O   KVS d   1      -4.706  -0.545 -12.101  0.00  0.00    -0.273 OA
ATOM     82  N   KVS d   1      -4.303   1.607 -12.536  0.00  0.00    -0.347 N 
ATOM     83  H47 KVS d   1      -4.541   2.438 -13.038  0.00  0.00     0.163 HD
BRANCH  82  84
ATOM     84  CA  KVS d   1      -3.278   1.697 -11.485  0.00  0.00     0.089 C 
ATOM     85  H48 KVS d   1      -3.551   0.992 -10.685  0.00  0.00     0.087 H 
BRANCH  84  86
ATOM     86  C   KVS d   1      -3.277   3.084 -10.880  0.00  0.00     0.241 C 
ATOM     87  O   KVS d   1      -3.346   4.120 -11.606  0.00  0.00    -0.271 OA
ATOM     88  N   KVS d   1      -3.250   3.195  -9.554  0.00  0.00    -0.346 N 
ATOM     89  H55 KVS d   1      -3.289   2.354  -9.014  0.00  0.00     0.163 HD
BRANCH  88  90
ATOM     90  CA  KVS d   1      -3.168   4.459  -8.838  0.00  0.00     0.089 C 
ATOM     91  H56 KVS d   1      -2.878   5.282  -9.507  0.00  0.00     0.087 H 
BRANCH  90  92
ATOM     92  CB  KVS d   1      -4.587   4.664  -8.342  0.00  0.00    -0.036 C 
ATOM     93  H57 KVS d   1      -4.551   4.984  -7.290  0.00  0.00     0.036 H 
ATOM     94  H58 KVS d   1      -5.129   3.710  -8.417  0.00  0.00     0.036 H 
BRANCH  92  95
ATOM     95  CG  KVS d   1      -5.333   5.715  -9.148  0.00  0.00    -0.048 C 
ATOM     96  H59 KVS d   1      -6.253   5.265  -9.548  0.00  0.00     0.035 H 
ATOM     97  H60 KVS d   1      -4.692   6.041  -9.981  0.00  0.00     0.035 H 
BRANCH  95  98
ATOM     98  CD  KVS d   1      -5.712   6.946  -8.306  0.00  0.00     0.009 C 
ATOM     99  H61 KVS d   1      -5.268   6.856  -7.304  0.00  0.00     0.064 H 
ATOM    100  H62 KVS d   1      -6.807   7.007  -8.218  0.00  0.00     0.064 H 
BRANCH  98 101
ATOM    101  NE  KVS d   1      -5.209   8.151  -8.953  0.00  0.00    -0.227 N 
ATOM    102  CZ  KVS d   1      -5.894   9.191  -9.337  0.00  0.00     0.665 C 
ATOM    103  NH1 KVS d   1      -7.183   9.400  -8.992  0.00  0.00    -0.235 N 
ATOM    104  NH2 KVS d   1      -5.254  10.048 -10.150  0.00  0.00    -0.235 N 
ATOM    105  H64 KVS d   1      -7.675  10.241  -9.325  0.00  0.00     0.174 HD
ATOM    106  H65 KVS d   1      -7.674   8.718  -8.396  0.00  0.00     0.174 HD
ATOM    107  H66 KVS d   1      -4.271   9.878 -10.406  0.00  0.00     0.174 HD
ATOM    108  H67 KVS d   1      -5.746  10.875 -10.517  0.00  0.00     0.174 HD
ATOM    109  H63 KVS d   1      -4.194   8.185  -9.127  0.00  0.00     0.177 HD
ENDBRANCH  98 101
ENDBRANCH  95  98
ENDBRANCH  92  95
ENDBRANCH  90  92
BRANCH  90 110
ATOM    110  C   KVS d   1      -2.154   4.325  -7.766  0.00  0.00     0.238 C 
ATOM    111  O   KVS d   1      -2.023   3.319  -7.167  0.00  0.00    -0.271 OA
ATOM    112  NT  KVS d   1      -1.348   5.330  -7.443  0.00  0.00    -0.368 N 
ATOM    113  H68 KVS d   1      -0.672   5.215  -6.715  0.00  0.00     0.159 HD
ATOM    114  H69 KVS d   1      -1.417   6.202  -7.927  0.00  0.00     0.159 HD
ENDBRANCH  90 110
ENDBRANCH  88  90
ENDBRANCH  84  86
BRANCH  84 115
ATOM    115  CB  KVS d   1      -1.934   1.266 -12.019  0.00  0.00    -0.030 C 
ATOM    116  H49 KVS d   1      -1.694   1.886 -12.896  0.00  0.00     0.037 H 
ATOM    117  H50 KVS d   1      -2.003   0.211 -12.323  0.00  0.00     0.037 H 
BRANCH 115 118
ATOM    118  CG  KVS d   1      -0.799   1.402 -11.007  0.00  0.00     0.011 C 
ATOM    119  H51 KVS d   1       0.011   0.724 -11.312  0.00  0.00     0.047 H 
ATOM    120  H52 KVS d   1      -1.183   1.095 -10.023  0.00  0.00     0.047 H 
BRANCH 118 121
ATOM    121  CD  KVS d   1      -0.219   2.789 -10.869  0.00  0.00     0.215 C 
ATOM    122  OE1 KVS d   1      -0.259   3.548 -11.819  0.00  0.00    -0.274 OA
ATOM    123  NE2 KVS d   1       0.357   3.123  -9.732  0.00  0.00    -0.370 N 
ATOM    124  H53 KVS d   1       0.748   4.037  -9.619  0.00  0.00     0.159 HD
ATOM    125  H54 KVS d   1       0.403   2.463  -8.982  0.00  0.00     0.159 HD
ENDBRANCH 118 121
ENDBRANCH 115 118
ENDBRANCH  84 115
ENDBRANCH  82  84
ENDBRANCH  65  80
ENDBRANCH   1  65
TORSDOF 38
