REMARK  10 active torsions:
REMARK  status: ('A' for Active; 'I' for Inactive)
REMARK    1  A    between atoms: C1_1  and  C3_24 
REMARK    2  A    between atoms: C5_3  and  C10_7 
REMARK    3  A    between atoms: C6_4  and  C2_23 
REMARK    4  A    between atoms: O11_26  and  C6_4 
REMARK    5  A    between atoms: C10_7  and  C16_8 
REMARK    6  A    between atoms: C10_7  and  C17_9 
REMARK    7  A    between atoms: C18_10  and  O11_26 
REMARK    8  A    between atoms: C24_16  and  C26_17 
REMARK    9  A    between atoms: C27_18  and  C28_19 
REMARK   10  A    between atoms: C31_32  and  C34_34 
ROOT
ATOM      1  C6  064 d   1     136.463  24.346  80.586  0.00  0.00     0.054 C 
ATOM      2  H1  064 d   1     136.417  24.016  79.538  0.00  0.00     0.082 H 
ATOM      3  H2  064 d   1     137.365  23.933  81.061  0.00  0.00     0.082 H 
ENDROOT
BRANCH   1   4
ATOM      4  C2  064 d   1     135.223  23.787  81.327  0.00  0.00     0.030 A 
ATOM      5  C1  064 d   1     133.853  24.031  81.141  0.00  0.00     0.109 A 
ATOM      6  N4  064 d   1     133.181  23.266  82.076  0.00  0.00    -0.127 NA
ATOM      7  O9  064 d   1     134.002  22.576  82.810  0.00  0.00    -0.216 OA
ATOM      8  C5  064 d   1     135.280  22.871  82.368  0.00  0.00     0.093 A 
BRANCH   5   9
ATOM      9  C3  064 d   1     133.278  24.870  80.189  0.00  0.00     0.039 A 
ATOM     10  C7  064 d   1     133.080  24.384  78.828  0.00  0.00     0.048 A 
ATOM     11  C12 064 d   1     132.503  25.214  77.842  0.00  0.00    -0.061 A 
ATOM     12 CL13 064 d   1     133.593  22.763  78.292  0.00  0.00    -0.083 Cl
ATOM     13  C19 064 d   1     132.089  26.519  78.180  0.00  0.00    -0.080 A 
ATOM     14  H19 064 d   1     132.379  24.849  76.829  0.00  0.00     0.086 H 
ATOM     15  C14 064 d   1     132.269  27.029  79.520  0.00  0.00    -0.061 A 
ATOM     16  H10 064 d   1     131.630  27.147  77.425  0.00  0.00     0.083 H 
ATOM     17  C8  064 d   1     132.830  26.221  80.529  0.00  0.00     0.048 A 
ATOM     18  H20 064 d   1     131.969  28.045  79.752  0.00  0.00     0.086 H 
ATOM     19 CL15 064 d   1     133.001  26.962  82.124  0.00  0.00    -0.083 Cl
ENDBRANCH   5   9
BRANCH   8  20
ATOM     20  C10 064 d   1     136.536  22.208  82.985  0.00  0.00    -0.011 C 
ATOM     21  H3  064 d   1     137.397  22.444  82.342  0.00  0.00     0.049 H 
BRANCH  20  22
ATOM     22  C16 064 d   1     136.840  22.741  84.417  0.00  0.00    -0.067 C 
ATOM     23  H4  064 d   1     137.738  22.242  84.811  0.00  0.00     0.028 H 
ATOM     24  H5  064 d   1     135.984  22.531  85.076  0.00  0.00     0.028 H 
ATOM     25  H6  064 d   1     137.013  23.827  84.375  0.00  0.00     0.028 H 
ENDBRANCH  20  22
BRANCH  20  26
ATOM     26  C17 064 d   1     136.363  20.692  83.029  0.00  0.00    -0.067 C 
ATOM     27  H7  064 d   1     136.149  20.318  82.017  0.00  0.00     0.028 H 
ATOM     28  H8  064 d   1     135.528  20.438  83.699  0.00  0.00     0.028 H 
ATOM     29  H9  064 d   1     137.288  20.228  83.403  0.00  0.00     0.028 H 
ENDBRANCH  20  26
ENDBRANCH   8  20
ENDBRANCH   1   4
BRANCH   1  30
ATOM     30  O11 064 d   1     136.563  25.824  80.605  0.00  0.00    -0.346 OA
BRANCH  30  31
ATOM     31  C18 064 d   1     137.312  26.458  79.602  0.00  0.00     0.070 A 
ATOM     32  C20 064 d   1     137.601  27.852  79.635  0.00  0.00    -0.029 A 
ATOM     33  C22 064 d   1     138.386  28.432  78.636  0.00  0.00     0.046 A 
ATOM     34  H11 064 d   1     137.210  28.465  80.439  0.00  0.00     0.090 H 
ATOM     35  C24 064 d   1     138.883  27.662  77.544  0.00  0.00    -0.014 A 
ATOM     36 CL25 064 d   1     138.691  30.138  78.753  0.00  0.00    -0.083 Cl
ATOM     37  C23 064 d   1     138.608  26.229  77.466  0.00  0.00    -0.069 A 
ATOM     38  C21 064 d   1     137.801  25.644  78.499  0.00  0.00    -0.050 A 
ATOM     39  H13 064 d   1     139.001  25.627  76.654  0.00  0.00     0.085 H 
ATOM     40  H12 064 d   1     137.554  24.589  78.457  0.00  0.00     0.087 H 
BRANCH  35  41
ATOM     41  C26 064 d   1     139.729  28.422  76.555  0.00  0.00    -0.071 C 
ATOM     42  C27 064 d   1     140.818  27.974  76.028  0.00  0.00    -0.072 C 
ATOM     43  H15 064 d   1     141.035  26.925  76.225  0.00  0.00     0.084 H 
ATOM     44  H14 064 d   1     139.398  29.418  76.265  0.00  0.00     0.084 H 
BRANCH  42  45
ATOM     45  C28 064 d   1     141.818  28.686  75.191  0.00  0.00    -0.035 A 
ATOM     46  C29 064 d   1     142.082  29.997  75.565  0.00  0.00    -0.057 A 
ATOM     47  C31 064 d   1     143.011  30.804  74.892  0.00  0.00     0.041 A 
ATOM     48  H16 064 d   1     141.548  30.414  76.412  0.00  0.00     0.086 H 
ATOM     49  C33 064 d   1     143.726  30.244  73.794  0.00  0.00    -0.066 A 
ATOM     50  C32 064 d   1     143.499  28.884  73.389  0.00  0.00    -0.081 A 
ATOM     51  H21 064 d   1     144.448  30.850  73.259  0.00  0.00     0.085 H 
ATOM     52  C30 064 d   1     142.545  28.070  74.094  0.00  0.00    -0.073 A 
ATOM     53  H18 064 d   1     144.048  28.471  72.550  0.00  0.00     0.083 H 
ATOM     54  H17 064 d   1     142.375  27.036  73.817  0.00  0.00     0.084 H 
BRANCH  47  55
ATOM     55  C34 064 d   1     143.271  32.229  75.340  0.00  0.00     0.209 C 
ATOM     56  O35 064 d   1     144.191  32.983  74.668  0.00  0.00    -0.644 OA
ATOM     57  O36 064 d   1     142.668  32.721  76.316  0.00  0.00    -0.644 OA
ENDBRANCH  47  55
ENDBRANCH  42  45
ENDBRANCH  35  41
ENDBRANCH  30  31
ENDBRANCH   1  30
TORSDOF 10
