REMARK  4 active torsions:
REMARK  status: ('A' for Active; 'I' for Inactive)
REMARK    1  A    between atoms: C5_4  and  C6_5 
REMARK    2  A    between atoms: C19_7  and  C20_8 
REMARK    3  A    between atoms: C17_9  and  O18_10 
REMARK    4  A    between atoms: C8_14  and  C9_16 
ROOT
ATOM      1  O3  55E d   1      15.687  33.560  -0.366  0.00  0.00    -0.245 OA
ATOM      2  C2  55E d   1      16.322  34.324   0.392  0.00  0.00     0.347 A 
ATOM      3  N4  55E d   1      17.249  35.147  -0.140  0.00  0.00    -0.194 NA
ATOM      4  C5  55E d   1      17.963  35.979   0.645  0.00  0.00     0.074 A 
ATOM      5  C7  55E d   1      17.725  36.013   2.004  0.00  0.00    -0.028 A 
ATOM      6  C8  55E d   1      16.773  35.156   2.542  0.00  0.00     0.049 A 
ATOM      7  N1  55E d   1      16.082  34.326   1.725  0.00  0.00    -0.306 N 
ATOM      8  H8  55E d   1      18.275  36.701   2.645  0.00  0.00     0.090 H 
ATOM      9  H9  55E d   1      15.392  33.712   2.107  0.00  0.00     0.171 HD
ENDROOT
BRANCH   4  10
ATOM     10  C6  55E d   1      18.947  36.903   0.037  0.00  0.00    -0.006 A 
ATOM     11  C21 55E d   1      19.762  37.701   0.827  0.00  0.00    -0.062 A 
ATOM     12  C19 55E d   1      20.652  38.590   0.231  0.00  0.00    -0.028 A 
ATOM     13  H1  55E d   1      19.706  37.632   1.907  0.00  0.00     0.085 H 
ATOM     14  C17 55E d   1      20.710  38.686  -1.150  0.00  0.00     0.071 A 
ATOM     15  C16 55E d   1      19.877  37.900  -1.937  0.00  0.00    -0.050 A 
ATOM     16  C15 55E d   1      18.991  37.013  -1.345  0.00  0.00    -0.068 A 
ATOM     17  H6  55E d   1      19.920  37.981  -3.017  0.00  0.00     0.087 H 
ATOM     18  H7  55E d   1      18.335  36.408  -1.960  0.00  0.00     0.085 H 
BRANCH  12  19
ATOM     19  C20 55E d   1      21.554  39.446   1.083  0.00  0.00    -0.049 C 
ATOM     20  H2  55E d   1      21.366  39.232   2.146  0.00  0.00     0.033 H 
ATOM     21  H3  55E d   1      21.350  40.508   0.881  0.00  0.00     0.033 H 
ATOM     22  H4  55E d   1      22.604  39.223   0.844  0.00  0.00     0.033 H 
ENDBRANCH  12  19
BRANCH  14  23
ATOM     23  O18 55E d   1      21.576  39.548  -1.755  0.00  0.00    -0.360 OA
ATOM     24  H5  55E d   1      21.480  39.482  -2.698  0.00  0.00     0.217 HD
ENDBRANCH  14  23
ENDBRANCH   4  10
BRANCH   6  25
ATOM     25  C9  55E d   1      16.520  35.189   4.012  0.00  0.00    -0.009 A 
ATOM     26  C14 55E d   1      17.544  34.921   4.916  0.00  0.00    -0.071 A 
ATOM     27  C13 55E d   1      17.289  34.968   6.288  0.00  0.00    -0.082 A 
ATOM     28  H10 55E d   1      18.537  34.676   4.556  0.00  0.00     0.084 H 
ATOM     29  C12 55E d   1      16.019  35.293   6.763  0.00  0.00    -0.083 A 
ATOM     30  H11 55E d   1      18.085  34.750   6.990  0.00  0.00     0.083 H 
ATOM     31  C11 55E d   1      14.998  35.567   5.857  0.00  0.00    -0.082 A 
ATOM     32  H12 55E d   1      15.828  35.332   7.829  0.00  0.00     0.083 H 
ATOM     33  C10 55E d   1      15.251  35.520   4.486  0.00  0.00    -0.071 A 
ATOM     34  H13 55E d   1      14.007  35.817   6.217  0.00  0.00     0.083 H 
ATOM     35  H14 55E d   1      14.456  35.742   3.784  0.00  0.00     0.084 H 
ENDBRANCH   6  25
TORSDOF 4
