REMARK  5 active torsions:
REMARK  status: ('A' for Active; 'I' for Inactive)
REMARK    1  A    between atoms: S1_9  and  N1_1 
REMARK    2  A    between atoms: C5_5  and  O3_15 
REMARK    3  A    between atoms: O3_15  and  C8_6 
REMARK    4  A    between atoms: C8_6  and  C9_16 
REMARK    5  A    between atoms: C1_10  and  S1_9 
ROOT
ATOM      1  C2  EZL d   1      -3.622   3.610  15.286  0.00  0.00     0.076 A 
ATOM      2  C3  EZL d   1      -4.755   4.255  14.804  0.00  0.00     0.039 A 
ATOM      3  C4  EZL d   1      -4.656   5.472  14.086  0.00  0.00    -0.032 A 
ATOM      4  C5  EZL d   1      -3.316   5.891  13.848  0.00  0.00     0.070 A 
ATOM      5  C1  EZL d   1      -5.230   2.294  16.062  0.00  0.00     0.214 A 
ATOM      6  N2  EZL d   1      -3.916   2.464  15.949  0.00  0.00    -0.227 NA
ATOM      7  S2  EZL d   1      -6.137   3.483  15.316  0.00  0.00    -0.054 SA
ATOM      8  C6  EZL d   1      -2.175   5.217  14.285  0.00  0.00    -0.049 A 
ATOM      9  C7  EZL d   1      -2.287   4.009  14.996  0.00  0.00    -0.051 A 
ATOM     10  H3  EZL d   1      -5.520   6.033  13.749  0.00  0.00     0.090 H 
ATOM     11  H6  EZL d   1      -1.194   5.628  14.075  0.00  0.00     0.087 H 
ATOM     12  H7  EZL d   1      -1.424   3.427  15.299  0.00  0.00     0.087 H 
ENDROOT
BRANCH   4  13
ATOM     13  O3  EZL d   1      -3.114   7.029  13.077  0.00  0.00    -0.351 OA
BRANCH  13  14
ATOM     14  C8  EZL d   1      -1.881   7.873  13.187  0.00  0.00     0.023 C 
ATOM     15  H4  EZL d   1      -1.954   8.701  12.467  0.00  0.00     0.074 H 
ATOM     16  H5  EZL d   1      -1.005   7.253  12.945  0.00  0.00     0.074 H 
BRANCH  14  17
ATOM     17  C9  EZL d   1      -1.697   8.461  14.602  0.00  0.00    -0.056 C 
ATOM     18  H8  EZL d   1      -0.781   9.070  14.630  0.00  0.00     0.030 H 
ATOM     19  H9  EZL d   1      -1.615   7.642  15.332  0.00  0.00     0.030 H 
ATOM     20  H10 EZL d   1      -2.564   9.090  14.853  0.00  0.00     0.030 H 
ENDBRANCH  14  17
ENDBRANCH  13  14
ENDBRANCH   4  13
BRANCH   5  21
ATOM     21  S1  EZL d   1      -5.975   0.935  16.903  0.00  0.00     0.281 S 
ATOM     22  O1  EZL d   1      -5.495   1.049  18.305  0.00  0.00    -0.199 OA
ATOM     23  O2  EZL d   1      -7.368   1.119  16.746  0.00  0.00    -0.199 OA
BRANCH  21  24
ATOM     24  N1  EZL d   1      -5.435  -0.393  16.274  0.00  0.00    -0.323 N 
ATOM     25  H1  EZL d   1      -4.462  -0.614  16.333  0.00  0.00     0.169 HD
ATOM     26  H2  EZL d   1      -6.064  -1.020  15.813  0.00  0.00     0.169 HD
ENDBRANCH  21  24
ENDBRANCH   5  21
TORSDOF 5
