REMARK  32 active torsions:
REMARK  status: ('A' for Active; 'I' for Inactive)
REMARK    1  A    between atoms: N_1  and  CA_2 
REMARK    2  A    between atoms: CA_2  and  C_3 
REMARK    3  A    between atoms: CA_2  and  CB_5 
REMARK       I    between atoms: C_3  and  N_10 
REMARK    4  A    between atoms: CB_5  and  CG_6 
REMARK    5  A    between atoms: CG_6  and  CD_7 
REMARK       I    between atoms: CD_7  and  NE2_9 
REMARK    6  A    between atoms: N_10  and  CA_11 
REMARK    7  A    between atoms: CA_11  and  C_12 
REMARK    8  A    between atoms: CA_11  and  CB_14 
REMARK       I    between atoms: C_12  and  N_21 
REMARK    9  A    between atoms: CB_14  and  CG_15 
REMARK   10  A    between atoms: CG_15  and  CD_16 
REMARK   11  A    between atoms: CD_16  and  NE_17 
REMARK       I    between atoms: NE_17  and  CZ_18 
REMARK       I    between atoms: CZ_18  and  NH1_19 
REMARK   12  A    between atoms: N_21  and  CA_22 
REMARK   13  A    between atoms: CA_22  and  C_23 
REMARK   14  A    between atoms: CA_22  and  CB_25 
REMARK       I    between atoms: C_23  and  N_26 
REMARK   15  A    between atoms: N_26  and  CA_27 
REMARK   16  A    between atoms: CA_27  and  C_28 
REMARK   17  A    between atoms: CA_27  and  CB_30 
REMARK       I    between atoms: C_28  and  N_33 
REMARK   18  A    between atoms: CB_30  and  OG1_31 
REMARK   19  A    between atoms: CB_30  and  CG2_32 
REMARK   20  A    between atoms: N_33  and  CA_34 
REMARK   21  A    between atoms: CA_34  and  C_35 
REMARK   22  A    between atoms: CA_34  and  CB_37 
REMARK       I    between atoms: C_35  and  N_42 
REMARK   23  A    between atoms: CB_37  and  CG_38 
REMARK   24  A    between atoms: CG_38  and  CD_39 
REMARK   25  A    between atoms: CD_39  and  CE_40 
REMARK   26  A    between atoms: CE_40  and  NZ_41 
REMARK   27  A    between atoms: N_42  and  CA_43 
REMARK   28  A    between atoms: CA_43  and  C_44 
REMARK   29  A    between atoms: CA_43  and  CB_46 
REMARK       I    between atoms: C_44  and  N_50 
REMARK   30  A    between atoms: CB_46  and  CG_47 
REMARK   31  A    between atoms: CG_47  and  SD_48 
REMARK   32  A    between atoms: SD_48  and  CE_49 
ROOT
ATOM      1  C   ALA d   1      25.814  22.260  56.575  0.00  0.00     0.240 C 
ATOM      2  O   ALA d   1      26.723  22.366  55.750  0.00  0.00    -0.271 OA
ATOM      3  N   THR d   1      26.033  21.920  57.839  0.00  0.00    -0.344 N 
ATOM      4  H29 THR d   1      25.244  21.854  58.450  0.00  0.00     0.163 HD
ENDROOT
BRANCH   3   5
ATOM      5  CA  THR d   1      27.361  21.635  58.398  0.00  0.00     0.113 C 
ATOM      6  H30 THR d   1      27.984  22.525  58.225  0.00  0.00     0.091 H 
BRANCH   5   7
ATOM      7  C   THR d   1      28.094  20.426  57.805  0.00  0.00     0.243 C 
ATOM      8  O   THR d   1      29.301  20.326  57.949  0.00  0.00    -0.271 OA
ATOM      9  N   LYS d   1      27.348  19.516  57.171  0.00  0.00    -0.346 N 
ATOM     10  H36 LYS d   1      26.365  19.692  57.115  0.00  0.00     0.163 HD
BRANCH   9  11
ATOM     11  CA  LYS d   1      27.846  18.273  56.545  0.00  0.00     0.089 C 
ATOM     12  H37 LYS d   1      27.747  18.370  55.454  0.00  0.00     0.087 H 
BRANCH  11  13
ATOM     13  C   LYS d   1      27.027  17.073  57.018  0.00  0.00     0.241 C 
ATOM     14  O   LYS d   1      27.105  15.984  56.458  0.00  0.00    -0.271 OA
ATOM     15  N   MET d   1      26.290  17.276  58.098  0.00  0.00    -0.346 N 
ATOM     16  H49 MET d   1      26.303  18.177  58.531  0.00  0.00     0.163 HD
BRANCH  15  17
ATOM     17  CA  MET d   1      25.460  16.228  58.677  0.00  0.00     0.090 C 
ATOM     18  H50 MET d   1      25.476  15.339  58.030  0.00  0.00     0.087 H 
BRANCH  17  19
ATOM     19  C   MET d   1      24.044  16.780  58.776  0.00  0.00     0.238 C 
ATOM     20  O   MET d   1      23.410  16.589  59.838  0.00  0.00    -0.271 OA
ATOM     21  N   NH2 d   1      23.538  17.424  57.759  0.00  0.00    -0.368 N 
ATOM     22  H58 NH2 d   1      22.609  17.791  57.812  0.00  0.00     0.159 HD
ATOM     23  H59 NH2 d   1      24.079  17.550  56.928  0.00  0.00     0.159 HD
ENDBRANCH  17  19
BRANCH  17  24
ATOM     24  CB  MET d   1      25.958  15.845  60.087  0.00  0.00    -0.030 C 
ATOM     25  H51 MET d   1      25.847  14.757  60.208  0.00  0.00     0.037 H 
ATOM     26  H52 MET d   1      25.329  16.362  60.827  0.00  0.00     0.037 H 
BRANCH  24  27
ATOM     27  CG  MET d   1      27.419  16.211  60.360  0.00  0.00    -0.021 C 
ATOM     28  H53 MET d   1      27.435  17.087  61.025  0.00  0.00     0.049 H 
ATOM     29  H54 MET d   1      27.893  16.469  59.401  0.00  0.00     0.049 H 
BRANCH  27  30
ATOM     30  SD  MET d   1      28.396  14.891  61.139  0.00  0.00    -0.173 SA
BRANCH  30  31
ATOM     31  CE  MET d   1      27.113  13.971  62.059  0.00  0.00    -0.035 C 
ATOM     32  H55 MET d   1      27.577  13.126  62.589  0.00  0.00     0.041 H 
ATOM     33  H56 MET d   1      26.358  13.592  61.355  0.00  0.00     0.041 H 
ATOM     34  H57 MET d   1      26.633  14.641  62.787  0.00  0.00     0.041 H 
ENDBRANCH  30  31
ENDBRANCH  27  30
ENDBRANCH  24  27
ENDBRANCH  17  24
ENDBRANCH  15  17
ENDBRANCH  11  13
BRANCH  11  35
ATOM     35  CB  LYS d   1      29.316  18.013  56.887  0.00  0.00    -0.038 C 
ATOM     36  H38 LYS d   1      29.479  16.925  56.894  0.00  0.00     0.036 H 
ATOM     37  H39 LYS d   1      29.511  18.420  57.890  0.00  0.00     0.036 H 
BRANCH  35  38
ATOM     38  CG  LYS d   1      30.325  18.642  55.910  0.00  0.00    -0.061 C 
ATOM     39  H40 LYS d   1      31.346  18.413  56.251  0.00  0.00     0.033 H 
ATOM     40  H41 LYS d   1      30.179  19.732  55.895  0.00  0.00     0.033 H 
BRANCH  38  41
ATOM     41  CD  LYS d   1      30.135  18.091  54.490  0.00  0.00    -0.043 C 
ATOM     42  H42 LYS d   1      29.103  18.284  54.163  0.00  0.00     0.035 H 
ATOM     43  H43 LYS d   1      30.321  17.007  54.496  0.00  0.00     0.035 H 
BRANCH  41  44
ATOM     44  CE  LYS d   1      31.101  18.758  53.515  0.00  0.00     0.080 C 
ATOM     45  H44 LYS d   1      32.136  18.577  53.841  0.00  0.00     0.075 H 
ATOM     46  H45 LYS d   1      30.908  19.841  53.490  0.00  0.00     0.075 H 
BRANCH  44  47
ATOM     47  NZ  LYS d   1      30.901  18.185  52.155  0.00  0.00    -0.079 N 
ATOM     48  H46 LYS d   1      31.538  18.624  51.509  0.00  0.00     0.274 HD
ATOM     49  H47 LYS d   1      29.953  18.351  51.857  0.00  0.00     0.274 HD
ATOM     50  H48 LYS d   1      31.077  17.193  52.179  0.00  0.00     0.274 HD
ENDBRANCH  44  47
ENDBRANCH  41  44
ENDBRANCH  38  41
ENDBRANCH  35  38
ENDBRANCH  11  35
ENDBRANCH   9  11
ENDBRANCH   5   7
BRANCH   5  51
ATOM     51  CB  THR d   1      27.251  21.384  59.916  0.00  0.00     0.060 C 
ATOM     52  H31 THR d   1      28.249  21.462  60.371  0.00  0.00     0.086 H 
BRANCH  51  53
ATOM     53  OG1 THR d   1      26.722  20.064  60.151  0.00  0.00    -0.393 OA
ATOM     54  H32 THR d   1      26.655  19.913  61.087  0.00  0.00     0.210 HD
ENDBRANCH  51  53
BRANCH  51  55
ATOM     55  CG2 THR d   1      26.337  22.416  60.535  0.00  0.00    -0.050 C 
ATOM     56  H33 THR d   1      26.260  22.235  61.617  0.00  0.00     0.031 H 
ATOM     57  H34 THR d   1      25.339  22.342  60.079  0.00  0.00     0.031 H 
ATOM     58  H35 THR d   1      26.747  23.422  60.359  0.00  0.00     0.031 H 
ENDBRANCH  51  55
ENDBRANCH   5  51
ENDBRANCH   3   5
BRANCH   1  59
ATOM     59  CA  ALA d   1      24.350  22.530  56.211  0.00  0.00     0.086 C 
ATOM     60  H25 ALA d   1      23.919  23.175  56.991  0.00  0.00     0.086 H 
BRANCH  59  61
ATOM     61  N   ALA d   1      24.194  23.226  54.922  0.00  0.00    -0.346 N 
ATOM     62  C   ARG d   1      23.173  24.066  54.723  0.00  0.00     0.241 C 
ATOM     63  O   ARG d   1      22.327  24.331  55.603  0.00  0.00    -0.271 OA
ATOM     64  H24 ALA d   1      24.857  23.069  54.190  0.00  0.00     0.163 HD
BRANCH  62  65
ATOM     65  CA  ARG d   1      23.066  24.723  53.350  0.00  0.00     0.089 C 
ATOM     66  H12 ARG d   1      22.356  25.558  53.444  0.00  0.00     0.087 H 
BRANCH  65  67
ATOM     67  N   ARG d   1      24.310  25.271  52.837  0.00  0.00    -0.346 N 
ATOM     68  C   GLN d   1      25.110  26.021  53.581  0.00  0.00     0.249 C 
ATOM     69  O   GLN d   1      24.877  26.285  54.761  0.00  0.00    -0.271 OA
ATOM     70  H11 ARG d   1      24.571  25.076  51.892  0.00  0.00     0.163 HD
BRANCH  68  71
ATOM     71  CA  GLN d   1      26.351  26.561  52.883  0.00  0.00     0.176 C 
ATOM     72  H4  GLN d   1      26.362  26.230  51.834  0.00  0.00     0.099 H 
BRANCH  71  73
ATOM     73  N   GLN d   1      26.271  28.053  52.948  0.00  0.00    -0.066 N 
ATOM     74  H1  GLN d   1      27.078  28.453  52.495  0.00  0.00     0.275 HD
ATOM     75  H2  GLN d   1      26.247  28.347  53.912  0.00  0.00     0.275 HD
ATOM     76  H3  GLN d   1      25.434  28.365  52.481  0.00  0.00     0.275 HD
ENDBRANCH  71  73
BRANCH  71  77
ATOM     77  CB  GLN d   1      27.624  26.076  53.575  0.00  0.00    -0.022 C 
ATOM     78  H5  GLN d   1      27.430  26.024  54.656  0.00  0.00     0.037 H 
ATOM     79  H6  GLN d   1      28.422  26.808  53.381  0.00  0.00     0.037 H 
BRANCH  77  80
ATOM     80  CG  GLN d   1      28.104  24.723  53.117  0.00  0.00     0.011 C 
ATOM     81  H7  GLN d   1      27.836  24.590  52.059  0.00  0.00     0.047 H 
ATOM     82  H8  GLN d   1      27.610  23.947  53.721  0.00  0.00     0.047 H 
BRANCH  80  83
ATOM     83  CD  GLN d   1      29.609  24.577  53.265  0.00  0.00     0.215 C 
ATOM     84  OE1 GLN d   1      30.165  24.789  54.347  0.00  0.00    -0.274 OA
ATOM     85  NE2 GLN d   1      30.275  24.205  52.178  0.00  0.00    -0.370 N 
ATOM     86  H9  GLN d   1      31.268  24.092  52.214  0.00  0.00     0.159 HD
ATOM     87  H10 GLN d   1      29.784  24.038  51.323  0.00  0.00     0.159 HD
ENDBRANCH  80  83
ENDBRANCH  77  80
ENDBRANCH  71  77
ENDBRANCH  68  71
ENDBRANCH  65  67
BRANCH  65  88
ATOM     88  CB  ARG d   1      22.502  23.725  52.344  0.00  0.00    -0.036 C 
ATOM     89  H13 ARG d   1      23.144  22.832  52.346  0.00  0.00     0.036 H 
ATOM     90  H14 ARG d   1      22.522  24.189  51.347  0.00  0.00     0.036 H 
BRANCH  88  91
ATOM     91  CG  ARG d   1      21.092  23.295  52.637  0.00  0.00    -0.048 C 
ATOM     92  H15 ARG d   1      20.410  24.140  52.460  0.00  0.00     0.035 H 
ATOM     93  H16 ARG d   1      21.019  22.979  53.688  0.00  0.00     0.035 H 
BRANCH  91  94
ATOM     94  CD  ARG d   1      20.702  22.143  51.742  0.00  0.00     0.009 C 
ATOM     95  H17 ARG d   1      20.900  22.423  50.697  0.00  0.00     0.064 H 
ATOM     96  H18 ARG d   1      19.628  21.942  51.870  0.00  0.00     0.064 H 
BRANCH  94  97
ATOM     97  NE  ARG d   1      21.448  20.927  52.052  0.00  0.00    -0.227 N 
ATOM     98  CZ  ARG d   1      21.242  20.186  53.136  0.00  0.00     0.665 C 
ATOM     99  NH1 ARG d   1      20.310  20.535  54.012  0.00  0.00    -0.235 N 
ATOM    100  NH2 ARG d   1      21.970  19.100  53.351  0.00  0.00    -0.235 N 
ATOM    101  H20 ARG d   1      20.151  19.960  54.852  0.00  0.00     0.174 HD
ATOM    102  H21 ARG d   1      19.745  21.381  53.853  0.00  0.00     0.174 HD
ATOM    103  H22 ARG d   1      22.695  18.824  52.674  0.00  0.00     0.174 HD
ATOM    104  H23 ARG d   1      21.810  18.532  54.195  0.00  0.00     0.174 HD
ATOM    105  H19 ARG d   1      22.178  20.625  51.391  0.00  0.00     0.177 HD
ENDBRANCH  94  97
ENDBRANCH  91  94
ENDBRANCH  88  91
ENDBRANCH  65  88
ENDBRANCH  62  65
ENDBRANCH  59  61
BRANCH  59 106
ATOM    106  CB  ALA d   1      23.596  21.213  56.206  0.00  0.00    -0.049 C 
ATOM    107  H26 ALA d   1      23.727  20.712  57.177  0.00  0.00     0.030 H 
ATOM    108  H27 ALA d   1      23.988  20.569  55.405  0.00  0.00     0.030 H 
ATOM    109  H28 ALA d   1      22.527  21.403  56.033  0.00  0.00     0.030 H 
ENDBRANCH  59 106
ENDBRANCH   1  59
TORSDOF 32
