REMARK WARNING: 32 MAX_TORS EXCEEDED!!!
REMARK  33 active torsions:
REMARK  status: ('A' for Active; 'I' for Inactive)
REMARK    1  A    between atoms: N_1  and  CA_2 
REMARK    2  A    between atoms: CA_2  and  C_3 
REMARK    3  A    between atoms: CA_2  and  CB_5 
REMARK       I    between atoms: C_3  and  N_12 
REMARK    4  A    between atoms: CB_5  and  CG_6 
REMARK    5  A    between atoms: CG_6  and  CD_7 
REMARK    6  A    between atoms: CD_7  and  NE_8 
REMARK       I    between atoms: NE_8  and  CZ_9 
REMARK       I    between atoms: CZ_9  and  NH1_10 
REMARK       I    between atoms: CZ_9  and  NH2_11 
REMARK    7  A    between atoms: N_12  and  CA_13 
REMARK    8  A    between atoms: CA_13  and  C_14 
REMARK    9  A    between atoms: CA_13  and  CB_16 
REMARK       I    between atoms: C_14  and  N_23 
REMARK   10  A    between atoms: CB_16  and  CG_17 
REMARK   11  A    between atoms: CG_17  and  CD_18 
REMARK   12  A    between atoms: CD_18  and  NE_19 
REMARK       I    between atoms: NE_19  and  CZ_20 
REMARK       I    between atoms: CZ_20  and  NH1_21 
REMARK   13  A    between atoms: N_23  and  CA_24 
REMARK   14  A    between atoms: CA_24  and  C_25 
REMARK   15  A    between atoms: CA_24  and  CB_27 
REMARK       I    between atoms: C_25  and  N_28 
REMARK   16  A    between atoms: N_28  and  CA_29 
REMARK   17  A    between atoms: CA_29  and  C_30 
REMARK   18  A    between atoms: CA_29  and  CB_32 
REMARK       I    between atoms: C_30  and  N_35 
REMARK   19  A    between atoms: CB_32  and  OG1_33 
REMARK   20  A    between atoms: CB_32  and  CG2_34 
REMARK   21  A    between atoms: N_35  and  CA_36 
REMARK   22  A    between atoms: CA_36  and  C_37 
REMARK   23  A    between atoms: CA_36  and  CB_39 
REMARK       I    between atoms: C_37  and  N_44 
REMARK   24  A    between atoms: CB_39  and  CG_40 
REMARK   25  A    between atoms: CG_40  and  CD_41 
REMARK   26  A    between atoms: CD_41  and  CE_42 
REMARK   27  A    between atoms: CE_42  and  NZ_43 
REMARK   28  A    between atoms: N_44  and  CA_45 
REMARK   29  A    between atoms: CA_45  and  C_46 
REMARK   30  A    between atoms: CA_45  and  CB_48 
REMARK       I    between atoms: C_46  and  N_52 
REMARK   31  A    between atoms: CB_48  and  CG_49 
REMARK   32  A    between atoms: CG_49  and  SD_50 
REMARK   33  A    between atoms: SD_50  and  CE_51 
ROOT
ATOM      1  CA  ALA d   1      26.048  22.614  56.481  0.00  0.00     0.086 C 
ATOM      2  H30 ALA d   1      25.850  23.372  57.254  0.00  0.00     0.086 H 
ENDROOT
BRANCH   1   3
ATOM      3  N   ALA d   1      25.907  23.251  55.182  0.00  0.00    -0.346 N 
ATOM      4  C   ARG d   1      24.878  24.052  54.928  0.00  0.00     0.241 C 
ATOM      5  O   ARG d   1      23.998  24.287  55.755  0.00  0.00    -0.271 OA
ATOM      6  H29 ALA d   1      26.592  23.085  54.472  0.00  0.00     0.163 HD
BRANCH   4   7
ATOM      7  CA  ARG d   1      24.814  24.671  53.539  0.00  0.00     0.089 C 
ATOM      8  H17 ARG d   1      24.137  25.536  53.599  0.00  0.00     0.087 H 
BRANCH   7   9
ATOM      9  N   ARG d   1      26.085  25.163  53.018  0.00  0.00    -0.346 N 
ATOM     10  C   ARG d   1      26.910  25.919  53.742  0.00  0.00     0.248 C 
ATOM     11  O   ARG d   1      26.703  26.228  54.921  0.00  0.00    -0.271 OA
ATOM     12  H16 ARG d   1      26.347  24.924  52.083  0.00  0.00     0.163 HD
BRANCH  10  13
ATOM     13  CA  ARG d   1      28.175  26.381  53.038  0.00  0.00     0.176 C 
ATOM     14  H4  ARG d   1      28.142  26.073  51.983  0.00  0.00     0.099 H 
BRANCH  13  15
ATOM     15  N   ARG d   1      28.255  27.866  53.119  0.00  0.00    -0.067 N 
ATOM     16  H1  ARG d   1      29.091  28.183  52.654  0.00  0.00     0.275 HD
ATOM     17  H2  ARG d   1      28.280  28.149  54.086  0.00  0.00     0.275 HD
ATOM     18  H3  ARG d   1      27.448  28.271  52.671  0.00  0.00     0.275 HD
ENDBRANCH  13  15
BRANCH  13  19
ATOM     19  CB  ARG d   1      29.394  25.752  53.710  0.00  0.00    -0.029 C 
ATOM     20  H5  ARG d   1      29.247  25.792  54.799  0.00  0.00     0.036 H 
ATOM     21  H6  ARG d   1      30.281  26.342  53.438  0.00  0.00     0.036 H 
BRANCH  19  22
ATOM     22  CG  ARG d   1      29.644  24.305  53.315  0.00  0.00    -0.047 C 
ATOM     23  H7  ARG d   1      29.875  24.259  52.240  0.00  0.00     0.035 H 
ATOM     24  H8  ARG d   1      28.740  23.713  53.522  0.00  0.00     0.035 H 
BRANCH  22  25
ATOM     25  CD  ARG d   1      30.811  23.726  54.102  0.00  0.00     0.009 C 
ATOM     26  H9  ARG d   1      31.209  22.853  53.564  0.00  0.00     0.064 H 
ATOM     27  H10 ARG d   1      30.455  23.415  55.095  0.00  0.00     0.064 H 
BRANCH  25  28
ATOM     28  NE  ARG d   1      31.878  24.713  54.265  0.00  0.00    -0.227 N 
ATOM     29  CZ  ARG d   1      32.521  25.303  53.261  0.00  0.00     0.665 C 
ATOM     30  NH1 ARG d   1      32.213  25.009  52.005  0.00  0.00    -0.235 N 
ATOM     31  NH2 ARG d   1      33.469  26.197  53.513  0.00  0.00    -0.235 N 
ATOM     32  H12 ARG d   1      32.714  25.468  51.231  0.00  0.00     0.174 HD
ATOM     33  H13 ARG d   1      31.473  24.321  51.804  0.00  0.00     0.174 HD
ATOM     34  H14 ARG d   1      33.712  26.429  54.487  0.00  0.00     0.174 HD
ATOM     35  H15 ARG d   1      33.962  26.659  52.735  0.00  0.00     0.174 HD
ATOM     36  H11 ARG d   1      32.151  24.969  55.225  0.00  0.00     0.177 HD
ENDBRANCH  25  28
ENDBRANCH  22  25
ENDBRANCH  19  22
ENDBRANCH  13  19
ENDBRANCH  10  13
ENDBRANCH   7   9
BRANCH   7  37
ATOM     37  CB  ARG d   1      24.201  23.653  52.579  0.00  0.00    -0.036 C 
ATOM     38  H18 ARG d   1      24.843  22.760  52.563  0.00  0.00     0.036 H 
ATOM     39  H19 ARG d   1      24.168  24.099  51.574  0.00  0.00     0.036 H 
BRANCH  37  40
ATOM     40  CG  ARG d   1      22.789  23.224  52.962  0.00  0.00    -0.048 C 
ATOM     41  H20 ARG d   1      22.108  24.080  52.847  0.00  0.00     0.035 H 
ATOM     42  H21 ARG d   1      22.785  22.890  54.010  0.00  0.00     0.035 H 
BRANCH  40  43
ATOM     43  CD  ARG d   1      22.317  22.090  52.077  0.00  0.00     0.009 C 
ATOM     44  H22 ARG d   1      22.480  22.369  51.026  0.00  0.00     0.064 H 
ATOM     45  H23 ARG d   1      21.243  21.927  52.251  0.00  0.00     0.064 H 
BRANCH  43  46
ATOM     46  NE  ARG d   1      23.032  20.846  52.350  0.00  0.00    -0.227 N 
ATOM     47  CZ  ARG d   1      22.831  20.090  53.424  0.00  0.00     0.665 C 
ATOM     48  NH1 ARG d   1      21.930  20.448  54.331  0.00  0.00    -0.235 N 
ATOM     49  NH2 ARG d   1      23.537  18.981  53.596  0.00  0.00    -0.235 N 
ATOM     50  H25 ARG d   1      21.775  19.861  55.163  0.00  0.00     0.174 HD
ATOM     51  H26 ARG d   1      21.386  21.313  54.203  0.00  0.00     0.174 HD
ATOM     52  H27 ARG d   1      24.236  18.702  52.893  0.00  0.00     0.174 HD
ATOM     53  H28 ARG d   1      23.386  18.399  54.432  0.00  0.00     0.174 HD
ATOM     54  H24 ARG d   1      23.737  20.535  51.666  0.00  0.00     0.177 HD
ENDBRANCH  43  46
ENDBRANCH  40  43
ENDBRANCH  37  40
ENDBRANCH   7  37
ENDBRANCH   4   7
ENDBRANCH   1   3
BRANCH   1  55
ATOM     55  C   ALA d   1      27.443  22.060  56.716  0.00  0.00     0.240 C 
ATOM     56  O   ALA d   1      28.288  22.058  55.817  0.00  0.00    -0.271 OA
ATOM     57  N   THR d   1      27.678  21.602  57.941  0.00  0.00    -0.344 N 
ATOM     58  H34 THR d   1      26.958  21.665  58.632  0.00  0.00     0.163 HD
BRANCH  57  59
ATOM     59  CA  THR d   1      28.955  21.012  58.300  0.00  0.00     0.113 C 
ATOM     60  H35 THR d   1      29.777  21.613  57.883  0.00  0.00     0.091 H 
BRANCH  59  61
ATOM     61  C   THR d   1      28.966  19.607  57.711  0.00  0.00     0.243 C 
ATOM     62  O   THR d   1      28.038  19.227  57.002  0.00  0.00    -0.271 OA
ATOM     63  N   LYS d   1      30.002  18.834  58.008  0.00  0.00    -0.346 N 
ATOM     64  H41 LYS d   1      30.737  19.186  58.587  0.00  0.00     0.163 HD
BRANCH  63  65
ATOM     65  CA  LYS d   1      30.072  17.479  57.495  0.00  0.00     0.089 C 
ATOM     66  H42 LYS d   1      29.972  17.520  56.400  0.00  0.00     0.087 H 
BRANCH  65  67
ATOM     67  C   LYS d   1      28.940  16.615  58.047  0.00  0.00     0.241 C 
ATOM     68  O   LYS d   1      28.740  15.491  57.605  0.00  0.00    -0.271 OA
ATOM     69  N   MET d   1      28.199  17.143  59.015  0.00  0.00    -0.346 N 
ATOM     70  H54 MET d   1      28.413  18.066  59.334  0.00  0.00     0.163 HD
BRANCH  69  71
ATOM     71  CA  MET d   1      27.082  16.426  59.633  0.00  0.00     0.090 C 
ATOM     72  H55 MET d   1      27.279  15.348  59.542  0.00  0.00     0.087 H 
BRANCH  71  73
ATOM     73  C   MET d   1      25.745  16.708  58.968  0.00  0.00     0.238 C 
ATOM     74  O   MET d   1      24.718  16.283  59.537  0.00  0.00    -0.271 OA
ATOM     75  N   NH2 d   1      25.697  17.427  57.808  0.00  0.00    -0.368 N 
ATOM     76  H63 NH2 d   1      24.817  17.612  57.371  0.00  0.00     0.159 HD
ATOM     77  H64 NH2 d   1      26.542  17.768  57.396  0.00  0.00     0.159 HD
ENDBRANCH  71  73
BRANCH  71  78
ATOM     78  CB  MET d   1      27.026  16.788  61.121  0.00  0.00    -0.030 C 
ATOM     79  H56 MET d   1      26.229  16.193  61.590  0.00  0.00     0.037 H 
ATOM     80  H57 MET d   1      26.784  17.858  61.206  0.00  0.00     0.037 H 
BRANCH  78  81
ATOM     81  CG  MET d   1      28.298  16.536  61.865  0.00  0.00    -0.021 C 
ATOM     82  H58 MET d   1      28.156  16.845  62.911  0.00  0.00     0.049 H 
ATOM     83  H59 MET d   1      29.094  17.142  61.408  0.00  0.00     0.049 H 
BRANCH  81  84
ATOM     84  SD  MET d   1      28.816  14.802  61.845  0.00  0.00    -0.173 SA
BRANCH  84  85
ATOM     85  CE  MET d   1      29.412  14.599  63.556  0.00  0.00    -0.035 C 
ATOM     86  H60 MET d   1      29.769  13.568  63.700  0.00  0.00     0.041 H 
ATOM     87  H61 MET d   1      28.590  14.804  64.257  0.00  0.00     0.041 H 
ATOM     88  H62 MET d   1      30.237  15.302  63.743  0.00  0.00     0.041 H 
ENDBRANCH  84  85
ENDBRANCH  81  84
ENDBRANCH  78  81
ENDBRANCH  71  78
ENDBRANCH  69  71
ENDBRANCH  65  67
BRANCH  65  89
ATOM     89  CB  LYS d   1      31.423  16.849  57.835  0.00  0.00    -0.038 C 
ATOM     90  H43 LYS d   1      31.281  15.761  57.913  0.00  0.00     0.036 H 
ATOM     91  H44 LYS d   1      31.749  17.247  58.807  0.00  0.00     0.036 H 
BRANCH  89  92
ATOM     92  CG  LYS d   1      32.534  17.107  56.824  0.00  0.00    -0.061 C 
ATOM     93  H45 LYS d   1      32.882  16.144  56.421  0.00  0.00     0.033 H 
ATOM     94  H46 LYS d   1      33.368  17.615  57.331  0.00  0.00     0.033 H 
BRANCH  92  95
ATOM     95  CD  LYS d   1      32.047  17.983  55.668  0.00  0.00    -0.043 C 
ATOM     96  H47 LYS d   1      31.932  19.015  56.032  0.00  0.00     0.035 H 
ATOM     97  H48 LYS d   1      31.073  17.604  55.326  0.00  0.00     0.035 H 
BRANCH  95  98
ATOM     98  CE  LYS d   1      33.011  17.988  54.485  0.00  0.00     0.080 C 
ATOM     99  H49 LYS d   1      33.163  16.955  54.139  0.00  0.00     0.075 H 
ATOM    100  H50 LYS d   1      33.974  18.413  54.806  0.00  0.00     0.075 H 
BRANCH  98 101
ATOM    101  NZ  LYS d   1      32.465  18.806  53.360  0.00  0.00    -0.079 N 
ATOM    102  H51 LYS d   1      33.116  18.796  52.590  0.00  0.00     0.274 HD
ATOM    103  H52 LYS d   1      32.327  19.755  53.671  0.00  0.00     0.274 HD
ATOM    104  H53 LYS d   1      31.584  18.419  53.060  0.00  0.00     0.274 HD
ENDBRANCH  98 101
ENDBRANCH  95  98
ENDBRANCH  92  95
ENDBRANCH  89  92
ENDBRANCH  65  89
ENDBRANCH  63  65
ENDBRANCH  59  61
BRANCH  59 105
ATOM    105  CB  THR d   1      29.118  20.902  59.824  0.00  0.00     0.060 C 
ATOM    106  H36 THR d   1      30.134  20.546  60.051  0.00  0.00     0.086 H 
BRANCH 105 107
ATOM    107  OG1 THR d   1      28.163  19.967  60.337  0.00  0.00    -0.393 OA
ATOM    108  H37 THR d   1      27.285  20.267  60.132  0.00  0.00     0.210 HD
ENDBRANCH 105 107
BRANCH 105 109
ATOM    109  CG2 THR d   1      28.907  22.244  60.484  0.00  0.00    -0.050 C 
ATOM    110  H38 THR d   1      29.029  22.140  61.572  0.00  0.00     0.031 H 
ATOM    111  H39 THR d   1      27.893  22.607  60.261  0.00  0.00     0.031 H 
ATOM    112  H40 THR d   1      29.646  22.962  60.099  0.00  0.00     0.031 H 
ENDBRANCH 105 109
ENDBRANCH  59 105
ENDBRANCH  57  59
ENDBRANCH   1  55
BRANCH   1 113
ATOM    113  CB  ALA d   1      25.019  21.499  56.621  0.00  0.00    -0.049 C 
ATOM    114  H31 ALA d   1      25.129  21.020  57.605  0.00  0.00     0.030 H 
ATOM    115  H32 ALA d   1      25.178  20.752  55.830  0.00  0.00     0.030 H 
ATOM    116  H33 ALA d   1      24.007  21.920  56.530  0.00  0.00     0.030 H 
ENDBRANCH   1 113
TORSDOF 33
