REMARK  12 active torsions:
REMARK  status: ('A' for Active; 'I' for Inactive)
REMARK    1  A    between atoms: N2_13  and  C2_1 
REMARK    2  A    between atoms: C9_6  and  C10_7 
REMARK    3  A    between atoms: N9_15  and  C9_6 
REMARK    4  A    between atoms: C9_6  and  C11_16 
REMARK    5  A    between atoms: C12_8  and  C15_11 
REMARK    6  A    between atoms: C12_8  and  C13_12 
REMARK    7  A    between atoms: C12_8  and  N2_13 
REMARK    8  A    between atoms: C13_12  and  C14_9 
REMARK    9  A    between atoms: C15_11  and  O1_10 
REMARK   10  A    between atoms: N6_19  and  CA'_20 
REMARK   11  A    between atoms: CA'_20  and  C1'_21 
REMARK   12  A    between atoms: C4'_24  and  C1B_27 
ROOT
ATOM      1  C2  RC8 d   1      32.822 -14.668  37.826  0.00  0.00     0.726 A 
ATOM      2  C4  RC8 d   1      32.482 -13.373  35.902  0.00  0.00     0.183 A 
ATOM      3  C5  RC8 d   1      32.252 -14.577  35.094  0.00  0.00     0.151 A 
ATOM      4  C6  RC8 d   1      32.346 -15.879  35.822  0.00  0.00     0.176 A 
ATOM      5  C8  RC8 d   1      32.080 -12.769  33.854  0.00  0.00     0.069 A 
ATOM      6  N1  RC8 d   1      32.625 -15.834  37.152  0.00  0.00    -0.043 NA
ATOM      7  N9  RC8 d   1      32.366 -12.329  35.098  0.00  0.00    -0.320 N 
ATOM      8  N7  RC8 d   1      32.007 -14.130  33.842  0.00  0.00    -0.236 NA
ATOM      9  N3  RC8 d   1      32.754 -13.471  37.219  0.00  0.00    -0.042 NA
ATOM     10  N6  RC8 d   1      32.145 -17.057  35.183  0.00  0.00    -0.368 N 
ATOM     11  H1  RC8 d   1      31.929 -12.129  32.986  0.00  0.00     0.143 H 
ATOM     12  H19 RC8 d   1      31.613 -17.049  34.301  0.00  0.00     0.161 HD
ENDROOT
BRANCH  10  13
ATOM     13  CA' RC8 d   1      32.639 -18.329  35.674  0.00  0.00     0.018 C 
ATOM     14  H20 RC8 d   1      33.518 -18.166  36.315  0.00  0.00     0.071 H 
ATOM     15  H21 RC8 d   1      32.918 -18.973  34.827  0.00  0.00     0.071 H 
BRANCH  13  16
ATOM     16  C1' RC8 d   1      31.539 -18.979  36.470  0.00  0.00    -0.041 A 
ATOM     17  C6' RC8 d   1      31.684 -19.156  37.849  0.00  0.00    -0.074 A 
ATOM     18  C5' RC8 d   1      30.660 -19.749  38.586  0.00  0.00    -0.070 A 
ATOM     19  H22 RC8 d   1      32.592 -18.832  38.345  0.00  0.00     0.084 H 
ATOM     20  C4' RC8 d   1      29.499 -20.174  37.939  0.00  0.00    -0.007 A 
ATOM     21  H23 RC8 d   1      30.765 -19.879  39.657  0.00  0.00     0.084 H 
ATOM     22  C3' RC8 d   1      29.357 -19.985  36.563  0.00  0.00    -0.070 A 
ATOM     23  C2' RC8 d   1      30.378 -19.390  35.825  0.00  0.00    -0.074 A 
ATOM     24  H24 RC8 d   1      28.448 -20.303  36.066  0.00  0.00     0.084 H 
ATOM     25  H25 RC8 d   1      30.268 -19.249  34.756  0.00  0.00     0.084 H 
BRANCH  20  26
ATOM     26  C1B RC8 d   1      28.389 -20.781  38.722  0.00  0.00     0.066 A 
ATOM     27  N1B RC8 d   1      28.459 -20.787  40.071  0.00  0.00    -0.260 NA
ATOM     28  C5B RC8 d   1      27.471 -21.304  40.831  0.00  0.00     0.003 A 
ATOM     29  C4B RC8 d   1      26.326 -21.834  40.229  0.00  0.00    -0.066 A 
ATOM     30  H26 RC8 d   1      27.565 -21.308  41.911  0.00  0.00     0.114 H 
ATOM     31  C3B RC8 d   1      26.219 -21.826  38.838  0.00  0.00    -0.079 A 
ATOM     32  H27 RC8 d   1      25.529 -22.247  40.837  0.00  0.00     0.085 H 
ATOM     33  C2B RC8 d   1      27.258 -21.288  38.076  0.00  0.00    -0.054 A 
ATOM     34  H28 RC8 d   1      25.339 -22.233  38.354  0.00  0.00     0.083 H 
ATOM     35  H29 RC8 d   1      27.188 -21.264  36.995  0.00  0.00     0.087 H 
ENDBRANCH  20  26
ENDBRANCH  13  16
ENDBRANCH  10  13
BRANCH   1  36
ATOM     36  N2  RC8 d   1      33.106 -14.674  39.145  0.00  0.00    -0.216 N 
ATOM     37  H15 RC8 d   1      32.926 -15.518  39.708  0.00  0.00     0.178 HD
BRANCH  36  38
ATOM     38  C12 RC8 d   1      33.669 -13.483  39.772  0.00  0.00     0.046 C 
ATOM     39  H6  RC8 d   1      33.316 -12.597  39.224  0.00  0.00     0.076 H 
BRANCH  38  40
ATOM     40  C15 RC8 d   1      33.197 -13.389  41.223  0.00  0.00     0.036 C 
ATOM     41  H11 RC8 d   1      32.505 -12.540  41.323  0.00  0.00     0.077 H 
ATOM     42  H12 RC8 d   1      34.068 -13.231  41.876  0.00  0.00     0.077 H 
BRANCH  40  43
ATOM     43  O1  RC8 d   1      32.523 -14.597  41.618  0.00  0.00    -0.399 OA
ATOM     44  H10 RC8 d   1      32.238 -14.519  42.521  0.00  0.00     0.209 HD
ENDBRANCH  40  43
ENDBRANCH  38  40
BRANCH  38  45
ATOM     45  C13 RC8 d   1      35.198 -13.507  39.730  0.00  0.00    -0.047 C 
ATOM     46  H13 RC8 d   1      35.525 -14.484  39.344  0.00  0.00     0.035 H 
ATOM     47  H14 RC8 d   1      35.581 -13.370  40.752  0.00  0.00     0.035 H 
BRANCH  45  48
ATOM     48  C14 RC8 d   1      35.773 -12.422  38.848  0.00  0.00    -0.075 C 
ATOM     49  H7  RC8 d   1      36.871 -12.487  38.856  0.00  0.00     0.027 H 
ATOM     50  H8  RC8 d   1      35.461 -11.438  39.227  0.00  0.00     0.027 H 
ATOM     51  H9  RC8 d   1      35.405 -12.552  37.819  0.00  0.00     0.027 H 
ENDBRANCH  45  48
ENDBRANCH  38  45
ENDBRANCH  36  38
ENDBRANCH   1  36
BRANCH   7  52
ATOM     52  C9  RC8 d   1      32.560 -10.961  35.640  0.00  0.00     0.012 C 
ATOM     53  H2  RC8 d   1      32.984 -11.060  36.650  0.00  0.00     0.072 H 
BRANCH  52  54
ATOM     54  C10 RC8 d   1      33.582 -10.202  34.815  0.00  0.00    -0.057 C 
ATOM     55  H3  RC8 d   1      33.712  -9.192  35.231  0.00  0.00     0.030 H 
ATOM     56  H4  RC8 d   1      33.231 -10.128  33.775  0.00  0.00     0.030 H 
ATOM     57  H5  RC8 d   1      34.543 -10.736  34.841  0.00  0.00     0.030 H 
ENDBRANCH  52  54
BRANCH  52  58
ATOM     58  C11 RC8 d   1      31.220 -10.274  35.797  0.00  0.00    -0.057 C 
ATOM     59  H16 RC8 d   1      30.555 -10.902  36.408  0.00  0.00     0.030 H 
ATOM     60  H17 RC8 d   1      30.769 -10.119  34.806  0.00  0.00     0.030 H 
ATOM     61  H18 RC8 d   1      31.362  -9.302  36.292  0.00  0.00     0.030 H 
ENDBRANCH  52  58
ENDBRANCH   7  52
TORSDOF 12
