REMARK  12 active torsions:
REMARK  status: ('A' for Active; 'I' for Inactive)
REMARK    1  A    between atoms: OAP_1  and  CAQ_2 
REMARK    2  A    between atoms: CAQ_2  and  CAR_3 
REMARK    3  A    between atoms: CAR_3  and  CAK_4 
REMARK    4  A    between atoms: CAR_3  and  NAS_6 
REMARK    5  A    between atoms: CAK_4  and  CAI_5 
REMARK    6  A    between atoms: NAS_6  and  CAT_7 
REMARK    7  A    between atoms: NAW_10  and  CAZ_11 
REMARK    8  A    between atoms: CAZ_11  and  CAY_12 
REMARK    9  A    between atoms: CAZ_11  and  CBA_13 
REMARK   10  A    between atoms: CAM_18  and  NAJ_19 
REMARK   11  A    between atoms: NAJ_19  and  CAD_20 
REMARK   12  A    between atoms: CAD_20  and  CAE_21 
ROOT
ATOM      1  CAT RRC d   1     -34.171  17.467  31.309  0.00  0.00     0.726 A 
ATOM      2  NAU RRC d   1     -33.863  16.265  30.764  0.00  0.00    -0.042 NA
ATOM      3  CAV RRC d   1     -33.463  16.232  29.473  0.00  0.00     0.183 A 
ATOM      4  NAW RRC d   1     -33.108  15.207  28.746  0.00  0.00    -0.320 N 
ATOM      5  CAX RRC d   1     -32.801  15.615  27.502  0.00  0.00     0.069 A 
ATOM      6  CAN RRC d   1     -33.351  17.369  28.700  0.00  0.00     0.151 A 
ATOM      7  NAO RRC d   1     -32.930  16.975  27.477  0.00  0.00    -0.236 NA
ATOM      8  NAL RRC d   1     -34.077  18.601  30.577  0.00  0.00    -0.043 NA
ATOM      9  CAM RRC d   1     -33.678  18.584  29.288  0.00  0.00     0.176 A 
ATOM     10  H18 RRC d   1     -32.505  14.979  26.669  0.00  0.00     0.143 H 
ENDROOT
BRANCH   1  11
ATOM     11  NAS RRC d   1     -34.571  17.549  32.592  0.00  0.00    -0.216 N 
ATOM     12  H10 RRC d   1     -34.780  18.474  32.995  0.00  0.00     0.178 HD
BRANCH  11  13
ATOM     13  CAR RRC d   1     -34.715  16.362  33.425  0.00  0.00     0.046 C 
ATOM     14  H4  RRC d   1     -34.365  15.453  32.913  0.00  0.00     0.076 H 
BRANCH  13  15
ATOM     15  CAQ RRC d   1     -33.891  16.636  34.678  0.00  0.00     0.036 C 
ATOM     16  H2  RRC d   1     -34.017  15.804  35.386  0.00  0.00     0.077 H 
ATOM     17  H3  RRC d   1     -32.830  16.726  34.404  0.00  0.00     0.077 H 
BRANCH  15  18
ATOM     18  OAP RRC d   1     -34.327  17.853  35.294  0.00  0.00    -0.399 OA
ATOM     19  H1  RRC d   1     -35.243  17.775  35.532  0.00  0.00     0.209 HD
ENDBRANCH  15  18
ENDBRANCH  13  15
BRANCH  13  20
ATOM     20  CAK RRC d   1     -36.208  16.262  33.761  0.00  0.00    -0.047 C 
ATOM     21  H5  RRC d   1     -36.569  17.267  34.024  0.00  0.00     0.035 H 
ATOM     22  H6  RRC d   1     -36.321  15.594  34.627  0.00  0.00     0.035 H 
BRANCH  20  23
ATOM     23  CAI RRC d   1     -37.079  15.725  32.629  0.00  0.00    -0.075 C 
ATOM     24  H7  RRC d   1     -38.128  15.689  32.959  0.00  0.00     0.027 H 
ATOM     25  H8  RRC d   1     -36.745  14.713  32.358  0.00  0.00     0.027 H 
ATOM     26  H9  RRC d   1     -36.993  16.387  31.754  0.00  0.00     0.027 H 
ENDBRANCH  20  23
ENDBRANCH  13  20
ENDBRANCH  11  13
ENDBRANCH   1  11
BRANCH   9  27
ATOM     27  NAJ RRC d   1     -33.577  19.720  28.566  0.00  0.00    -0.368 N 
ATOM     28  H19 RRC d   1     -33.240  19.669  27.594  0.00  0.00     0.161 HD
BRANCH  27  29
ATOM     29  CAD RRC d   1     -33.932  21.017  29.127  0.00  0.00     0.018 C 
ATOM     30  H20 RRC d   1     -34.680  20.857  29.917  0.00  0.00     0.071 H 
ATOM     31  H21 RRC d   1     -34.370  21.630  28.326  0.00  0.00     0.071 H 
BRANCH  29  32
ATOM     32  CAE RRC d   1     -32.783  21.773  29.718  0.00  0.00    -0.041 A 
ATOM     33  CAG RRC d   1     -32.856  22.179  31.053  0.00  0.00    -0.075 A 
ATOM     34  CAH RRC d   1     -31.803  22.896  31.623  0.00  0.00    -0.082 A 
ATOM     35  H22 RRC d   1     -33.731  21.937  31.646  0.00  0.00     0.084 H 
ATOM     36  CAF RRC d   1     -30.694  23.208  30.837  0.00  0.00    -0.083 A 
ATOM     37  H23 RRC d   1     -31.846  23.206  32.661  0.00  0.00     0.083 H 
ATOM     38  CAC RRC d   1     -30.635  22.810  29.499  0.00  0.00    -0.082 A 
ATOM     39  H24 RRC d   1     -29.870  23.765  31.268  0.00  0.00     0.083 H 
ATOM     40  CAB RRC d   1     -31.683  22.086  28.935  0.00  0.00    -0.075 A 
ATOM     41  H25 RRC d   1     -29.770  23.066  28.897  0.00  0.00     0.083 H 
ATOM     42  H26 RRC d   1     -31.639  21.772  27.898  0.00  0.00     0.084 H 
ENDBRANCH  29  32
ENDBRANCH  27  29
ENDBRANCH   9  27
BRANCH   4  43
ATOM     43  CAZ RRC d   1     -33.253  13.937  29.458  0.00  0.00     0.012 C 
ATOM     44  H11 RRC d   1     -33.645  14.352  30.398  0.00  0.00     0.072 H 
BRANCH  43  45
ATOM     45  CAY RRC d   1     -34.522  13.166  29.041  0.00  0.00    -0.057 C 
ATOM     46  H12 RRC d   1     -34.580  12.223  29.605  0.00  0.00     0.030 H 
ATOM     47  H13 RRC d   1     -34.480  12.947  27.964  0.00  0.00     0.030 H 
ATOM     48  H14 RRC d   1     -35.410  13.778  29.257  0.00  0.00     0.030 H 
ENDBRANCH  43  45
BRANCH  43  49
ATOM     49  CBA RRC d   1     -32.052  13.214  30.106  0.00  0.00    -0.057 C 
ATOM     50  H15 RRC d   1     -32.397  12.284  30.582  0.00  0.00     0.030 H 
ATOM     51  H16 RRC d   1     -31.597  13.867  30.865  0.00  0.00     0.030 H 
ATOM     52  H17 RRC d   1     -31.307  12.975  29.333  0.00  0.00     0.030 H 
ENDBRANCH  43  49
ENDBRANCH   4  43
TORSDOF 12
