REMARK  4 active torsions:
REMARK  status: ('A' for Active; 'I' for Inactive)
REMARK    1  A    between atoms: C15_6  and  C16_7 
REMARK       I    between atoms: C16_7  and  N18_8 
REMARK    2  A    between atoms: C08_18  and  O07_19 
REMARK    3  A    between atoms: O07_19  and  C06_20 
REMARK    4  A    between atoms: C06_20  and  C05_21 
ROOT
ATOM      1 CL11 552 d   1      -4.810  11.378  34.503  0.00  0.00    -0.065 Cl
ATOM      2  C10 552 d   1      -5.462  11.749  32.934  0.00  0.00     0.124 A 
ATOM      3  N09 552 d   1      -6.801  11.535  32.803  0.00  0.00    -0.238 NA
ATOM      4  C12 552 d   1      -4.687  12.182  31.942  0.00  0.00     0.068 A 
ATOM      5  N23 552 d   1      -5.231  12.451  30.740  0.00  0.00    -0.324 N 
ATOM      6  C15 552 d   1      -4.293  12.919  29.759  0.00  0.00     0.093 C 
ATOM      7  C14 552 d   1      -2.998  13.093  30.555  0.00  0.00    -0.035 C 
ATOM      8  C13 552 d   1      -3.229  12.459  31.923  0.00  0.00    -0.037 C 
ATOM      9  C24 552 d   1      -6.548  12.260  30.468  0.00  0.00     0.272 A 
ATOM     10  O25 552 d   1      -7.114  12.461  29.417  0.00  0.00    -0.268 OA
ATOM     11  C08 552 d   1      -7.328  11.759  31.647  0.00  0.00     0.202 A 
ATOM     12  H1  552 d   1      -4.496  11.133  31.673  0.00  0.00     0.084 H 
ATOM     13  H2  552 d   1      -4.603  13.862  29.286  0.00  0.00     0.087 H 
ATOM     14  H11 552 d   1      -2.764  14.162  30.668  0.00  0.00     0.036 H 
ATOM     15  H12 552 d   1      -2.167  12.589  30.040  0.00  0.00     0.036 H 
ATOM     16  H13 552 d   1      -2.652  11.528  32.026  0.00  0.00     0.036 H 
ATOM     17  H14 552 d   1      -2.951  13.154  32.729  0.00  0.00     0.036 H 
ATOM     18  H15 552 d   1      -7.126  10.709  31.387  0.00  0.00     0.136 H 
ENDROOT
BRANCH   6  19
ATOM     19  C16 552 d   1      -4.197  11.814  28.749  0.00  0.00     0.242 C 
ATOM     20  N18 552 d   1      -3.761  12.216  27.524  0.00  0.00    -0.350 N 
ATOM     21  C22 552 d   1      -3.657  11.279  26.454  0.00  0.00    -0.002 C 
ATOM     22  C19 552 d   1      -3.198  13.500  27.220  0.00  0.00    -0.002 C 
ATOM     23  C21 552 d   1      -3.179  12.102  25.278  0.00  0.00    -0.049 C 
ATOM     24  H3  552 d   1      -4.635  10.824  26.239  0.00  0.00     0.064 H 
ATOM     25  H4  552 d   1      -2.931  10.489  26.697  0.00  0.00     0.064 H 
ATOM     26  C20 552 d   1      -2.481  13.293  25.912  0.00  0.00    -0.049 C 
ATOM     27  H5  552 d   1      -4.029  12.431  24.662  0.00  0.00     0.035 H 
ATOM     28  H6  552 d   1      -2.478  11.524  24.658  0.00  0.00     0.035 H 
ATOM     29  H7  552 d   1      -2.574  14.183  25.273  0.00  0.00     0.035 H 
ATOM     30  H8  552 d   1      -1.417  13.074  26.083  0.00  0.00     0.035 H 
ATOM     31  H9  552 d   1      -2.494  13.812  28.005  0.00  0.00     0.064 H 
ATOM     32  H10 552 d   1      -3.989  14.257  27.115  0.00  0.00     0.064 H 
ATOM     33  O17 552 d   1      -4.458  10.669  29.004  0.00  0.00    -0.271 OA
ENDBRANCH   6  19
BRANCH  11  34
ATOM     34  O07 552 d   1      -8.638  11.627  31.282  0.00  0.00    -0.352 OA
BRANCH  34  35
ATOM     35  C06 552 d   1      -9.534  11.523  32.377  0.00  0.00     0.046 C 
ATOM     36  H16 552 d   1      -9.045  10.944  33.174  0.00  0.00     0.082 H 
ATOM     37  H17 552 d   1     -10.437  10.992  32.040  0.00  0.00     0.082 H 
BRANCH  35  38
ATOM     38  C05 552 d   1      -9.939  12.831  32.929  0.00  0.00    -0.034 A 
ATOM     39  C04 552 d   1      -9.996  13.952  32.143  0.00  0.00    -0.072 A 
ATOM     40  C03 552 d   1     -10.384  15.153  32.686  0.00  0.00    -0.045 A 
ATOM     41  H18 552 d   1      -9.735  13.891  31.093  0.00  0.00     0.084 H 
ATOM     42  C02 552 d   1     -10.717  15.216  34.017  0.00  0.00     0.116 A 
ATOM     43  H19 552 d   1     -10.427  16.043  32.069  0.00  0.00     0.088 H 
ATOM     44  C27 552 d   1     -10.672  14.095  34.799  0.00  0.00    -0.045 A 
ATOM     45  F01 552 d   1     -11.102  16.403  34.516  0.00  0.00    -0.206 F 
ATOM     46  C26 552 d   1     -10.275  12.899  34.255  0.00  0.00    -0.072 A 
ATOM     47  H21 552 d   1     -10.949  14.151  35.846  0.00  0.00     0.088 H 
ATOM     48  H20 552 d   1     -10.227  12.010  34.874  0.00  0.00     0.084 H 
ENDBRANCH  35  38
ENDBRANCH  34  35
ENDBRANCH  11  34
TORSDOF 4
