REMARK  0 active torsions:
REMARK  status: ('A' for Active; 'I' for Inactive)
ROOT
ATOM      1  OAA RXA d   1     -51.015  13.818 -21.549  0.00  0.00    -0.264 OA
ATOM      2  CAI RXA d   1     -49.781  14.000 -21.348  0.00  0.00     0.299 A 
ATOM      3  NAH RXA d   1     -49.132  13.533 -20.241  0.00  0.00    -0.286 N 
ATOM      4  CAK RXA d   1     -49.088  14.705 -22.319  0.00  0.00     0.250 A 
ATOM      5  OAC RXA d   1     -49.745  15.093 -23.312  0.00  0.00    -0.281 OA
ATOM      6  CAM RXA d   1     -47.710  14.939 -22.169  0.00  0.00     0.035 A 
ATOM      7  CAL RXA d   1     -47.050  14.455 -21.025  0.00  0.00     0.046 A 
ATOM      8  CAF RXA d   1     -45.669  14.693 -20.863  0.00  0.00    -0.067 A 
ATOM      9  CAJ RXA d   1     -47.790  13.746 -20.042  0.00  0.00     0.259 A 
ATOM     10  OAB RXA d   1     -47.212  13.305 -18.986  0.00  0.00    -0.267 OA
ATOM     11  CAG RXA d   1     -46.986  15.634 -23.147  0.00  0.00    -0.068 A 
ATOM     12  CAE RXA d   1     -45.607  15.874 -22.995  0.00  0.00    -0.082 A 
ATOM     13  CAD RXA d   1     -44.944  15.409 -21.843  0.00  0.00    -0.082 A 
ATOM     14  H1  RXA d   1     -49.649  13.021 -19.555  0.00  0.00     0.172 HD
ATOM     15  H2  RXA d   1     -45.160  14.324 -19.980  0.00  0.00     0.085 H 
ATOM     16  H3  RXA d   1     -47.495  15.992 -24.034  0.00  0.00     0.085 H 
ATOM     17  H4  RXA d   1     -45.059  16.413 -23.760  0.00  0.00     0.083 H 
ATOM     18  H5  RXA d   1     -43.885  15.599 -21.709  0.00  0.00     0.083 H 
ENDROOT
TORSDOF 0
