REMARK  6 active torsions:
REMARK  status: ('A' for Active; 'I' for Inactive)
REMARK    1  A    between atoms: CAV_13  and  NAO_14 
REMARK       I    between atoms: NAO_14  and  CAS_15 
REMARK    2  A    between atoms: CAS_15  and  CBB_17 
REMARK    3  A    between atoms: CBB_17  and  OAQ_18 
REMARK    4  A    between atoms: CBB_17  and  CAU_22 
REMARK    5  A    between atoms: OAQ_18  and  CAR_19 
REMARK    6  A    between atoms: CAR_19  and  CAA_21 
ROOT
ATOM      1  NAO RXC d   1     -46.577  15.135 -22.649  0.00  0.00    -0.324 N 
ATOM      2  CAS RXC d   1     -46.088  15.582 -23.812  0.00  0.00     0.256 C 
ATOM      3  OAC RXC d   1     -46.748  15.733 -24.852  0.00  0.00    -0.270 OA
ATOM      4  H5  RXC d   1     -45.936  15.024 -21.890  0.00  0.00     0.169 HD
ENDROOT
BRANCH   2   5
ATOM      5  CBB RXC d   1     -44.599  15.760 -23.904  0.00  0.00     0.150 C 
ATOM      6  H6  RXC d   1     -44.218  14.879 -24.442  0.00  0.00     0.107 H 
BRANCH   5   7
ATOM      7  OAQ RXC d   1     -44.291  16.930 -24.689  0.00  0.00    -0.302 OA
BRANCH   7   8
ATOM      8  CAR RXC d   1     -44.217  16.580 -26.104  0.00  0.00     0.255 C 
ATOM      9  OAB RXC d   1     -44.274  17.518 -26.910  0.00  0.00    -0.266 OA
BRANCH   8  10
ATOM     10  CAA RXC d   1     -44.081  15.118 -26.507  0.00  0.00     0.004 C 
ATOM     11  H7  RXC d   1     -44.040  15.042 -27.604  0.00  0.00     0.041 H 
ATOM     12  H8  RXC d   1     -44.947  14.552 -26.132  0.00  0.00     0.041 H 
ATOM     13  H9  RXC d   1     -43.158  14.703 -26.076  0.00  0.00     0.041 H 
ENDBRANCH   8  10
ENDBRANCH   7   8
ENDBRANCH   5   7
BRANCH   5  14
ATOM     14  CAU RXC d   1     -43.833  15.840 -22.626  0.00  0.00    -0.018 A 
ATOM     15  CAK RXC d   1     -43.796  17.017 -21.874  0.00  0.00    -0.074 A 
ATOM     16  CAH RXC d   1     -43.000  17.027 -20.710  0.00  0.00    -0.081 A 
ATOM     17  H10 RXC d   1     -44.360  17.892 -22.175  0.00  0.00     0.084 H 
ATOM     18  CAJ RXC d   1     -42.245  15.902 -20.318  0.00  0.00    -0.062 A 
ATOM     19  H11 RXC d   1     -42.968  17.923 -20.101  0.00  0.00     0.083 H 
ATOM     20  CAT RXC d   1     -42.274  14.748 -21.092  0.00  0.00     0.034 A 
ATOM     21  H12 RXC d   1     -41.644  15.937 -19.416  0.00  0.00     0.086 H 
ATOM     22 CLAG RXC d   1     -41.322  13.266 -20.636  0.00  0.00    -0.084 Cl
ATOM     23  CAN RXC d   1     -43.063  14.728 -22.243  0.00  0.00    -0.053 A 
ATOM     24  H13 RXC d   1     -43.083  13.834 -22.856  0.00  0.00     0.087 H 
ENDBRANCH   5  14
ENDBRANCH   2   5
BRANCH   1  25
ATOM     25  CAV RXC d   1     -47.899  14.816 -22.419  0.00  0.00     0.050 A 
ATOM     26  CBA RXC d   1     -48.181  14.291 -21.175  0.00  0.00     0.062 A 
ATOM     27  CAZ RXC d   1     -49.514  13.936 -20.849  0.00  0.00     0.049 A 
ATOM     28  CAY RXC d   1     -47.113  14.143 -20.267  0.00  0.00     0.253 A 
ATOM     29  CAX RXC d   1     -49.754  13.425 -19.578  0.00  0.00     0.259 A 
ATOM     30  CAM RXC d   1     -50.596  14.084 -21.760  0.00  0.00    -0.067 A 
ATOM     31  OAE RXC d   1     -50.949  13.091 -19.263  0.00  0.00    -0.267 OA
ATOM     32  NAP RXC d   1     -48.698  13.293 -18.707  0.00  0.00    -0.286 N 
ATOM     33  CAW RXC d   1     -47.414  13.631 -19.011  0.00  0.00     0.299 A 
ATOM     34  H1  RXC d   1     -48.884  12.927 -17.795  0.00  0.00     0.172 HD
ATOM     35  OAD RXC d   1     -46.480  13.498 -18.176  0.00  0.00    -0.264 OA
ATOM     36  CAI RXC d   1     -50.296  14.606 -23.023  0.00  0.00    -0.080 A 
ATOM     37  H2  RXC d   1     -51.608  13.805 -21.488  0.00  0.00     0.085 H 
ATOM     38  CAL RXC d   1     -48.959  14.974 -23.337  0.00  0.00    -0.056 A 
ATOM     39  H3  RXC d   1     -51.081  14.730 -23.760  0.00  0.00     0.083 H 
ATOM     40  H4  RXC d   1     -48.747  15.390 -24.315  0.00  0.00     0.086 H 
ATOM     41  OAF RXC d   1     -45.895  14.468 -20.553  0.00  0.00    -0.281 OA
ENDBRANCH   1  25
TORSDOF 6
