REMARK  8 active torsions:
REMARK  status: ('A' for Active; 'I' for Inactive)
REMARK    1  A    between atoms: CAN_2  and  CAO_3 
REMARK    2  A    between atoms: CAO_3  and  OAU_4 
REMARK    3  A    between atoms: OAU_4  and  CAZ_5 
REMARK    4  A    between atoms: CAX_10  and  NAR_11 
REMARK       I    between atoms: NAR_11  and  CAV_12 
REMARK    5  A    between atoms: CAV_12  and  CAP_14 
REMARK    6  A    between atoms: CAP_14  and  CAQ_15 
REMARK    7  A    between atoms: CAQ_15  and  CAW_16 
REMARK       I    between atoms: CAW_16  and  NAS_18 
REMARK    8  A    between atoms: NAS_18  and  CAY_19 
ROOT
ATOM      1  CAP RXD d   1     -41.468  12.691 -19.927  0.00  0.00     0.017 C 
ATOM      2  H10 RXD d   1     -40.503  13.098 -19.590  0.00  0.00     0.047 H 
ATOM      3  H11 RXD d   1     -41.862  12.002 -19.165  0.00  0.00     0.047 H 
ENDROOT
BRANCH   1   4
ATOM      4  CAV RXD d   1     -41.250  11.926 -21.203  0.00  0.00     0.222 C 
ATOM      5  NAR RXD d   1     -40.951  10.609 -21.061  0.00  0.00    -0.327 N 
ATOM      6  H9  RXD d   1     -40.671  10.256 -20.168  0.00  0.00     0.169 HD
ATOM      7  OAA RXD d   1     -41.349  12.533 -22.274  0.00  0.00    -0.273 OA
BRANCH   5   8
ATOM      8  CAX RXD d   1     -41.031   9.761 -22.135  0.00  0.00     0.037 A 
ATOM      9  CAH RXD d   1     -41.296  10.289 -23.412  0.00  0.00    -0.057 A 
ATOM     10  CAG RXD d   1     -41.373   9.464 -24.535  0.00  0.00    -0.078 A 
ATOM     11  H7  RXD d   1     -41.443  11.357 -23.526  0.00  0.00     0.086 H 
ATOM     12  CAI RXD d   1     -41.183   8.090 -24.373  0.00  0.00    -0.051 A 
ATOM     13  H6  RXD d   1     -41.576   9.882 -25.514  0.00  0.00     0.083 H 
ATOM     14  CAZ RXD d   1     -40.911   7.545 -23.112  0.00  0.00     0.070 A 
ATOM     15  H5  RXD d   1     -41.247   7.436 -25.235  0.00  0.00     0.087 H 
ATOM     16  CAL RXD d   1     -40.845   8.373 -21.989  0.00  0.00    -0.025 A 
ATOM     17  H8  RXD d   1     -40.652   7.949 -21.010  0.00  0.00     0.091 H 
BRANCH  14  18
ATOM     18  OAU RXD d   1     -40.714   6.177 -22.999  0.00  0.00    -0.349 OA
BRANCH  18  19
ATOM     19  CAO RXD d   1     -40.384   5.348 -24.128  0.00  0.00     0.050 C 
ATOM     20  H3  RXD d   1     -41.291   4.840 -24.486  0.00  0.00     0.078 H 
ATOM     21  H4  RXD d   1     -39.972   5.973 -24.933  0.00  0.00     0.078 H 
BRANCH  19  22
ATOM     22  CAN RXD d   1     -39.347   4.305 -23.712  0.00  0.00     0.078 C 
ATOM     23  FAN RXD d   1     -39.997   3.117 -23.460  0.00  0.00    -0.253 F 
ATOM     24  H1  RXD d   1     -38.617   4.164 -24.523  0.00  0.00     0.085 H 
ATOM     25  H2  RXD d   1     -38.825   4.642 -22.804  0.00  0.00     0.085 H 
ENDBRANCH  19  22
ENDBRANCH  18  19
ENDBRANCH  14  18
ENDBRANCH   5   8
ENDBRANCH   1   4
BRANCH   1  26
ATOM     26  CAQ RXD d   1     -42.448  13.839 -20.100  0.00  0.00     0.017 C 
ATOM     27  H12 RXD d   1     -42.510  14.382 -19.145  0.00  0.00     0.047 H 
ATOM     28  H13 RXD d   1     -43.433  13.414 -20.345  0.00  0.00     0.047 H 
BRANCH  26  29
ATOM     29  CAW RXD d   1     -42.080  14.833 -21.185  0.00  0.00     0.222 C 
ATOM     30  OAB RXD d   1     -40.975  15.368 -21.226  0.00  0.00    -0.273 OA
ATOM     31  NAS RXD d   1     -43.030  15.104 -22.082  0.00  0.00    -0.327 N 
ATOM     32  H14 RXD d   1     -42.837  15.779 -22.795  0.00  0.00     0.169 HD
BRANCH  31  33
ATOM     33  CAY RXD d   1     -44.296  14.479 -22.068  0.00  0.00     0.035 A 
ATOM     34  CAJ RXD d   1     -44.751  13.951 -23.287  0.00  0.00    -0.056 A 
ATOM     35  CAK RXD d   1     -45.984  13.312 -23.353  0.00  0.00    -0.065 A 
ATOM     36  H15 RXD d   1     -44.140  14.042 -24.178  0.00  0.00     0.086 H 
ATOM     37  CBD RXD d   1     -46.758  13.206 -22.193  0.00  0.00     0.046 A 
ATOM     38  H16 RXD d   1     -46.341  12.902 -24.291  0.00  0.00     0.085 H 
ATOM     39  CBE RXD d   1     -46.322  13.718 -20.964  0.00  0.00     0.038 A 
ATOM     40  CBB RXD d   1     -47.980  12.565 -22.274  0.00  0.00     0.259 A 
ATOM     41  CBC RXD d   1     -47.149  13.577 -19.842  0.00  0.00     0.250 A 
ATOM     42  CAM RXD d   1     -45.082  14.359 -20.894  0.00  0.00    -0.042 A 
ATOM     43  OAE RXD d   1     -46.814  14.020 -18.715  0.00  0.00    -0.281 OA
ATOM     44  CBA RXD d   1     -48.383  12.934 -19.988  0.00  0.00     0.299 A 
ATOM     45  NAT RXD d   1     -48.776  12.437 -21.192  0.00  0.00    -0.286 N 
ATOM     46  OAC RXD d   1     -49.125  12.800 -18.978  0.00  0.00    -0.264 OA
ATOM     47  H18 RXD d   1     -49.659  11.975 -21.276  0.00  0.00     0.172 HD
ATOM     48  H17 RXD d   1     -44.725  14.760 -19.952  0.00  0.00     0.088 H 
ATOM     49  OAD RXD d   1     -48.328  12.118 -23.388  0.00  0.00    -0.267 OA
ENDBRANCH  31  33
ENDBRANCH  26  29
ENDBRANCH   1  26
TORSDOF 8
