REMARK  5 active torsions:
REMARK  status: ('A' for Active; 'I' for Inactive)
REMARK    1  A    between atoms: C1_1  and  O7_7 
REMARK    2  A    between atoms: C3_3  and  O9_9 
REMARK    3  A    between atoms: C5_5  and  N11_11 
REMARK    4  A    between atoms: O7_7  and  C8_8 
REMARK    5  A    between atoms: O9_9  and  C10_10 
REMARK       I    between atoms: N11_11  and  C12_12 
REMARK       I    between atoms: C12_12  and  N13_13 
REMARK       I    between atoms: N13_13  and  C14_14 
REMARK       I    between atoms: C14_14  and  N15_15 
ROOT
ATOM      1  C1  RJ6 d   1      26.954   4.822  62.190  0.00  0.00     0.073 A 
ATOM      2  C2  RJ6 d   1      27.397   5.911  62.858  0.00  0.00    -0.019 A 
ATOM      3  C3  RJ6 d   1      28.211   6.861  62.357  0.00  0.00     0.073 A 
ATOM      4  C4  RJ6 d   1      28.629   6.697  61.033  0.00  0.00    -0.024 A 
ATOM      5  C5  RJ6 d   1      28.223   5.604  60.291  0.00  0.00     0.054 A 
ATOM      6  C6  RJ6 d   1      27.380   4.669  60.874  0.00  0.00    -0.024 A 
ATOM      7  H   RJ6 d   1      27.069   6.030  63.884  0.00  0.00     0.092 H 
ATOM      8  H   RJ6 d   1      29.280   7.437  60.582  0.00  0.00     0.091 H 
ATOM      9  H   RJ6 d   1      27.050   3.811  60.299  0.00  0.00     0.091 H 
ENDROOT
BRANCH   5  10
ATOM     10  N11 RJ6 d   1      28.624   5.428  58.996  0.00  0.00    -0.192 N 
ATOM     11  C12 RJ6 d   1      29.517   4.560  58.439  0.00  0.00     0.690 C 
ATOM     12  N13 RJ6 d   1      29.775   4.662  57.117  0.00  0.00    -0.023 N 
ATOM     13  N16 RJ6 d   1      30.089   3.676  59.179  0.00  0.00    -0.234 N 
ATOM     14  C14 RJ6 d   1      29.200   5.378  56.138  0.00  0.00     0.683 C 
ATOM     15  H   RJ6 d   1      30.563   4.079  56.800  0.00  0.00     0.203 HD
ATOM     16  N15 RJ6 d   1      28.377   6.415  56.392  0.00  0.00    -0.234 N 
ATOM     17  N17 RJ6 d   1      29.446   5.052  54.916  0.00  0.00    -0.234 N 
ATOM     18  H   RJ6 d   1      27.955   6.940  55.613  0.00  0.00     0.174 HD
ATOM     19  H   RJ6 d   1      28.170   6.682  57.365  0.00  0.00     0.174 HD
ATOM     20  H   RJ6 d   1      30.073   4.261  54.710  0.00  0.00     0.174 HD
ATOM     21  H   RJ6 d   1      29.015   5.582  54.145  0.00  0.00     0.174 HD
ATOM     22  H   RJ6 d   1      29.869   3.626  60.184  0.00  0.00     0.174 HD
ATOM     23  H   RJ6 d   1      30.766   3.019  58.766  0.00  0.00     0.174 HD
ATOM     24  H   RJ6 d   1      28.172   6.063  58.322  0.00  0.00     0.184 HD
ENDBRANCH   5  10
BRANCH   3  25
ATOM     25  O9  RJ6 d   1      28.499   7.882  63.215  0.00  0.00    -0.356 OA
BRANCH  25  26
ATOM     26  C10 RJ6 d   1      28.906   9.144  62.774  0.00  0.00     0.010 C 
ATOM     27  H   RJ6 d   1      29.079   9.797  63.642  0.00  0.00     0.066 H 
ATOM     28  H   RJ6 d   1      28.122   9.580  62.137  0.00  0.00     0.066 H 
ATOM     29  H   RJ6 d   1      29.837   9.048  62.196  0.00  0.00     0.066 H 
ENDBRANCH  25  26
ENDBRANCH   3  25
BRANCH   1  30
ATOM     30  O7  RJ6 d   1      26.124   4.009  62.898  0.00  0.00    -0.356 OA
BRANCH  30  31
ATOM     31  C8  RJ6 d   1      25.423   2.827  62.665  0.00  0.00     0.010 C 
ATOM     32  H   RJ6 d   1      24.869   2.544  63.572  0.00  0.00     0.066 H 
ATOM     33  H   RJ6 d   1      26.131   2.027  62.403  0.00  0.00     0.066 H 
ATOM     34  H   RJ6 d   1      24.716   2.977  61.836  0.00  0.00     0.066 H 
ENDBRANCH  30  31
ENDBRANCH   1  30
TORSDOF 5
