REMARK  10 active torsions:
REMARK  status: ('A' for Active; 'I' for Inactive)
REMARK    1  A    between atoms: O3B_8  and  PG_1 
REMARK    2  A    between atoms: PB_5  and  O3B_8 
REMARK    3  A    between atoms: O3A_12  and  PB_5 
REMARK    4  A    between atoms: PA_9  and  O3A_12 
REMARK    5  A    between atoms: PA_9  and  O5'_13 
REMARK    6  A    between atoms: O5'_13  and  C5'_14 
REMARK    7  A    between atoms: C5'_14  and  C4'_15 
REMARK    8  A    between atoms: C3'_17  and  O3'_18 
REMARK    9  A    between atoms: C2'_19  and  O2'_20 
REMARK   10  A    between atoms: C1'_21  and  N9_22 
ROOT
ATOM      1  C4' ATP d   1      27.774 -16.149 -22.390  0.00  0.00     0.089 C 
ATOM      2  O4' ATP d   1      28.443 -17.242 -21.745  0.00  0.00    -0.353 OA
ATOM      3  C3' ATP d   1      26.618 -15.758 -21.481  0.00  0.00     0.091 C 
ATOM      4  C2' ATP d   1      27.016 -16.333 -20.127  0.00  0.00     0.105 C 
ATOM      5  C1' ATP d   1      27.763 -17.583 -20.527  0.00  0.00     0.139 C 
ATOM      6  H3  ATP d   1      27.378 -16.470 -23.365  0.00  0.00     0.090 H 
ATOM      7  H4  ATP d   1      26.468 -14.669 -21.440  0.00  0.00     0.091 H 
ATOM      8  H6  ATP d   1      27.661 -15.630 -19.580  0.00  0.00     0.093 H 
ATOM      9  H8  ATP d   1      27.045 -18.396 -20.708  0.00  0.00     0.122 H 
ENDROOT
BRANCH   1  10
ATOM     10  C5' ATP d   1      28.771 -15.014 -22.613  0.00  0.00     0.058 C 
ATOM     11  H1  ATP d   1      29.621 -15.375 -23.211  0.00  0.00     0.079 H 
ATOM     12  H2  ATP d   1      28.279 -14.183 -23.140  0.00  0.00     0.079 H 
BRANCH  10  13
ATOM     13  O5' ATP d   1      29.230 -14.574 -21.333  0.00  0.00    -0.287 OA
BRANCH  13  14
ATOM     14  PA  ATP d   1      29.549 -13.023 -21.001  0.00  0.00     0.417 P 
ATOM     15  O1A ATP d   1      29.765 -12.899 -19.516  0.00  0.00    -0.624 OA
ATOM     16  O2A ATP d   1      30.636 -12.586 -21.948  0.00  0.00    -0.624 OA
BRANCH  14  17
ATOM     17  O3A ATP d   1      28.170 -12.304 -21.433  0.00  0.00    -0.180 OA
BRANCH  17  18
ATOM     18  PB  ATP d   1      27.024 -11.811 -20.409  0.00  0.00     0.428 P 
ATOM     19  O1B ATP d   1      27.614 -10.710 -19.559  0.00  0.00    -0.624 OA
ATOM     20  O2B ATP d   1      25.794 -11.547 -21.244  0.00  0.00    -0.624 OA
BRANCH  18  21
ATOM     21  O3B ATP d   1      26.726 -13.080 -19.460  0.00  0.00    -0.173 OA
BRANCH  21  22
ATOM     22  PG  ATP d   1      25.412 -13.153 -18.524  0.00  0.00     0.431 P 
ATOM     23  O1G ATP d   1      25.575 -14.401 -17.695  0.00  0.00    -0.616 OA
ATOM     24  O2G ATP d   1      24.243 -13.221 -19.484  0.00  0.00    -0.616 OA
ATOM     25  O3G ATP d   1      25.497 -11.866 -17.730  0.00  0.00    -0.616 OA
ENDBRANCH  21  22
ENDBRANCH  18  21
ENDBRANCH  17  18
ENDBRANCH  14  17
ENDBRANCH  13  14
ENDBRANCH  10  13
ENDBRANCH   1  10
BRANCH   3  26
ATOM     26  O3' ATP d   1      25.440 -16.427 -21.951  0.00  0.00    -0.390 OA
ATOM     27  H5  ATP d   1      24.704 -16.197 -21.396  0.00  0.00     0.210 HD
ENDBRANCH   3  26
BRANCH   5  28
ATOM     28  N9  ATP d   1      28.742 -18.037 -19.511  0.00  0.00    -0.294 N 
ATOM     29  C8  ATP d   1      29.381 -17.291 -18.582  0.00  0.00     0.071 A 
ATOM     30  N7  ATP d   1      30.227 -18.052 -17.846  0.00  0.00    -0.236 NA
ATOM     31  H9  ATP d   1      29.235 -16.221 -18.444  0.00  0.00     0.144 H 
ATOM     32  C5  ATP d   1      30.104 -19.317 -18.319  0.00  0.00     0.149 A 
ATOM     33  C6  ATP d   1      30.724 -20.622 -18.018  0.00  0.00     0.155 A 
ATOM     34  C4  ATP d   1      29.140 -19.300 -19.423  0.00  0.00     0.167 A 
ATOM     35  N6  ATP d   1      31.621 -20.712 -17.008  0.00  0.00    -0.382 N 
ATOM     36  N1  ATP d   1      30.335 -21.696 -18.756  0.00  0.00    -0.222 NA
ATOM     37  H10 ATP d   1      32.060 -21.617 -16.788  0.00  0.00     0.157 HD
ATOM     38  H11 ATP d   1      31.864 -19.875 -16.459  0.00  0.00     0.157 HD
ATOM     39  C2  ATP d   1      29.428 -21.616 -19.752  0.00  0.00     0.091 A 
ATOM     40  N3  ATP d   1      28.837 -20.448 -20.098  0.00  0.00    -0.222 NA
ATOM     41  H12 ATP d   1      29.164 -22.517 -20.293  0.00  0.00     0.146 H 
ENDBRANCH   5  28
BRANCH   4  42
ATOM     42  O2' ATP d   1      25.912 -16.693 -19.309  0.00  0.00    -0.388 OA
ATOM     43  H7  ATP d   1      25.392 -17.352 -19.753  0.00  0.00     0.210 HD
ENDBRANCH   4  42
TORSDOF 10
