REMARK  9 active torsions:
REMARK  status: ('A' for Active; 'I' for Inactive)
REMARK    1  A    between atoms: O3A_8  and  PB_1 
REMARK    2  A    between atoms: PA_5  and  O3A_8 
REMARK    3  A    between atoms: PA_5  and  O5'_9 
REMARK    4  A    between atoms: O5'_9  and  C5'_10 
REMARK    5  A    between atoms: C5'_10  and  C4'_11 
REMARK    6  A    between atoms: C3'_13  and  O3'_14 
REMARK    7  A    between atoms: C2'_15  and  O2'_16 
REMARK    8  A    between atoms: C1'_17  and  N9_18 
REMARK    9  A    between atoms: C6_22  and  N6_23 
ROOT
ATOM      1  C4' ADP d   1      25.588 -15.015 -21.141  0.00  0.00     0.089 C 
ATOM      2  O4' ADP d   1      26.778 -15.828 -21.304  0.00  0.00    -0.353 OA
ATOM      3  C3' ADP d   1      24.452 -16.010 -20.866  0.00  0.00     0.091 C 
ATOM      4  C2' ADP d   1      25.179 -17.034 -20.027  0.00  0.00     0.105 C 
ATOM      5  C1' ADP d   1      26.526 -17.119 -20.746  0.00  0.00     0.139 C 
ATOM      6  H3  ADP d   1      25.372 -14.442 -22.055  0.00  0.00     0.090 H 
ATOM      7  H4  ADP d   1      23.629 -15.533 -20.314  0.00  0.00     0.091 H 
ATOM      8  H6  ADP d   1      25.306 -16.687 -18.991  0.00  0.00     0.093 H 
ATOM      9  H8  ADP d   1      26.458 -17.858 -21.557  0.00  0.00     0.122 H 
ENDROOT
BRANCH   5  10
ATOM     10  N9  ADP d   1      27.609 -17.533 -19.831  0.00  0.00    -0.294 N 
ATOM     11  C8  ADP d   1      28.189 -16.710 -18.940  0.00  0.00     0.071 A 
ATOM     12  N7  ADP d   1      29.102 -17.465 -18.288  0.00  0.00    -0.236 NA
ATOM     13  H9  ADP d   1      27.970 -15.656 -18.777  0.00  0.00     0.144 H 
ATOM     14  C5  ADP d   1      29.164 -18.754 -18.739  0.00  0.00     0.149 A 
ATOM     15  C6  ADP d   1      29.958 -19.990 -18.404  0.00  0.00     0.155 A 
ATOM     16  C4  ADP d   1      28.147 -18.805 -19.787  0.00  0.00     0.167 A 
ATOM     17  N1  ADP d   1      29.638 -21.111 -19.132  0.00  0.00    -0.222 NA
ATOM     18  C2  ADP d   1      28.650 -21.063 -20.088  0.00  0.00     0.091 A 
ATOM     19  N3  ADP d   1      27.934 -19.981 -20.443  0.00  0.00    -0.222 NA
ATOM     20  H12 ADP d   1      28.426 -21.988 -20.606  0.00  0.00     0.146 H 
BRANCH  15  21
ATOM     21  N6  ADP d   1      30.946 -20.012 -17.400  0.00  0.00    -0.382 N 
ATOM     22  H10 ADP d   1      31.464 -20.881 -17.206  0.00  0.00     0.157 HD
ATOM     23  H11 ADP d   1      31.151 -19.159 -16.860  0.00  0.00     0.157 HD
ENDBRANCH  15  21
ENDBRANCH   5  10
BRANCH   4  24
ATOM     24  O2' ADP d   1      24.482 -18.267 -20.023  0.00  0.00    -0.388 OA
ATOM     25  H7  ADP d   1      23.613 -18.137 -19.663  0.00  0.00     0.210 HD
ENDBRANCH   4  24
BRANCH   1  26
ATOM     26  C5' ADP d   1      25.842 -14.029 -19.954  0.00  0.00     0.058 C 
ATOM     27  H1  ADP d   1      26.925 -13.921 -19.796  0.00  0.00     0.079 H 
ATOM     28  H2  ADP d   1      25.407 -13.048 -20.196  0.00  0.00     0.079 H 
BRANCH  26  29
ATOM     29  O5' ADP d   1      25.226 -14.542 -18.738  0.00  0.00    -0.287 OA
BRANCH  29  30
ATOM     30  PA  ADP d   1      24.991 -13.793 -17.306  0.00  0.00     0.418 P 
ATOM     31  O1A ADP d   1      24.521 -14.838 -16.290  0.00  0.00    -0.624 OA
ATOM     32  O2A ADP d   1      26.121 -12.763 -17.032  0.00  0.00    -0.624 OA
BRANCH  30  33
ATOM     33  O3A ADP d   1      23.716 -13.036 -17.860  0.00  0.00    -0.173 OA
BRANCH  33  34
ATOM     34  PB  ADP d   1      23.242 -11.780 -17.016  0.00  0.00     0.431 P 
ATOM     35  O1B ADP d   1      23.067 -12.414 -15.631  0.00  0.00    -0.616 OA
ATOM     36  O2B ADP d   1      21.983 -11.365 -17.777  0.00  0.00    -0.616 OA
ATOM     37  O3B ADP d   1      24.445 -10.792 -17.141  0.00  0.00    -0.616 OA
ENDBRANCH  33  34
ENDBRANCH  30  33
ENDBRANCH  29  30
ENDBRANCH  26  29
ENDBRANCH   1  26
BRANCH   3  38
ATOM     38  O3' ADP d   1      23.932 -16.635 -22.060  0.00  0.00    -0.390 OA
ATOM     39  H5  ADP d   1      23.235 -17.236 -21.824  0.00  0.00     0.210 HD
ENDBRANCH   3  38
TORSDOF 9
