REMARK  7 active torsions:
REMARK  status: ('A' for Active; 'I' for Inactive)
REMARK    1  A    between atoms: C1_1  and  O2_2 
REMARK    2  A    between atoms: O2_2  and  C12_16 
REMARK    3  A    between atoms: C4_7  and  C7_10 
REMARK    4  A    between atoms: C7_10  and  C8_12 
REMARK    5  A    between atoms: C8_12  and  C9_13 
REMARK    6  A    between atoms: C9_13  and  C10_14 
REMARK    7  A    between atoms: C12_16  and  C13_17 
ROOT
ATOM      1  C1  EAA d   1       5.756   6.538  23.045  0.00  0.00     0.092 A 
ATOM      2  C2  EAA d   1       5.924   5.408  23.990  0.00  0.00     0.090 A 
ATOM      3 CL1  EAA d   1       4.541   4.805  24.953  0.00  0.00    -0.080 Cl
ATOM      4  C3  EAA d   1       7.259   4.785  24.137  0.00  0.00     0.072 A 
ATOM      5 CL2  EAA d   1       7.426   3.421  25.291  0.00  0.00    -0.081 Cl
ATOM      6  C4  EAA d   1       8.370   5.343  23.307  0.00  0.00     0.038 A 
ATOM      7  C5  EAA d   1       8.104   6.414  22.449  0.00  0.00    -0.065 A 
ATOM      8  C6  EAA d   1       6.848   6.995  22.314  0.00  0.00    -0.048 A 
ATOM      9  H1  EAA d   1       8.920   6.813  21.858  0.00  0.00     0.085 H 
ATOM     10  H2  EAA d   1       6.717   7.821  21.625  0.00  0.00     0.087 H 
ENDROOT
BRANCH   6  11
ATOM     11  C7  EAA d   1       9.795   4.860  23.303  0.00  0.00     0.189 C 
ATOM     12  O1  EAA d   1      10.565   5.443  22.562  0.00  0.00    -0.287 OA
BRANCH  11  13
ATOM     13  C8  EAA d   1      10.310   3.758  24.114  0.00  0.00    -0.017 C 
ATOM     14  C11 EAA d   1      10.675   2.636  23.520  0.00  0.00    -0.112 C 
ATOM     15  H8  EAA d   1      10.574   2.534  22.441  0.00  0.00     0.067 H 
ATOM     16  H9  EAA d   1      11.077   1.813  24.110  0.00  0.00     0.067 H 
BRANCH  13  17
ATOM     17  C9  EAA d   1      10.452   3.896  25.617  0.00  0.00    -0.041 C 
ATOM     18  H3  EAA d   1      10.532   2.893  26.062  0.00  0.00     0.039 H 
ATOM     19  H4  EAA d   1       9.561   4.404  26.015  0.00  0.00     0.039 H 
BRANCH  17  20
ATOM     20  C10 EAA d   1      11.681   4.697  25.986  0.00  0.00    -0.073 C 
ATOM     21  H5  EAA d   1      11.752   4.777  27.081  0.00  0.00     0.028 H 
ATOM     22  H6  EAA d   1      11.607   5.704  25.549  0.00  0.00     0.028 H 
ATOM     23  H7  EAA d   1      12.578   4.193  25.596  0.00  0.00     0.028 H 
ENDBRANCH  17  20
ENDBRANCH  13  17
ENDBRANCH  11  13
ENDBRANCH   6  11
BRANCH   1  24
ATOM     24  O2  EAA d   1       4.533   7.125  22.883  0.00  0.00    -0.339 OA
BRANCH  24  25
ATOM     25  C12 EAA d   1       3.684   6.643  21.839  0.00  0.00     0.106 C 
ATOM     26  H10 EAA d   1       2.633   6.768  22.139  0.00  0.00     0.091 H 
ATOM     27  H11 EAA d   1       3.892   5.577  21.665  0.00  0.00     0.091 H 
BRANCH  25  28
ATOM     28  C13 EAA d   1       3.934   7.415  20.562  0.00  0.00     0.198 C 
ATOM     29  O   EAA d   1       4.960   7.170  19.885  0.00  0.00    -0.646 OA
ATOM     30  OXT EAA d   1       3.090   8.275  20.231  0.00  0.00    -0.646 OA
ENDBRANCH  25  28
ENDBRANCH  24  25
ENDBRANCH   1  24
TORSDOF 7
