REMARK  8 active torsions:
REMARK  status: ('A' for Active; 'I' for Inactive)
REMARK    1  A    between atoms: C1_1  and  C8_8 
REMARK    2  A    between atoms: C8_8  and  C7_7 
REMARK    3  A    between atoms: C8_8  and  C9_9 
REMARK    4  A    between atoms: C9_9  and  N2_10 
REMARK    5  A    between atoms: C9_9  and  C10_11 
REMARK       I    between atoms: C10_11  and  N1_13 
REMARK    6  A    between atoms: C14_17  and  C15_18 
REMARK       I    between atoms: C15_18  and  N23_19 
REMARK    7  A    between atoms: N23_19  and  C16_20 
REMARK    8  A    between atoms: C16_20  and  C17_21 
ROOT
ATOM      1  C10 23U d   1      17.248 -13.597  22.683  0.00  0.00     0.252 C 
ATOM      2  O32 23U d   1      16.322 -12.940  23.157  0.00  0.00    -0.271 OA
ATOM      3  N1  23U d   1      17.997 -13.124  21.661  0.00  0.00    -0.337 N 
ATOM      4  C11 23U d   1      19.040 -13.940  21.012  0.00  0.00    -0.001 C 
ATOM      5  C12 23U d   1      19.789 -12.814  20.255  0.00  0.00    -0.048 C 
ATOM      6  C13 23U d   1      18.616 -11.937  19.751  0.00  0.00    -0.036 C 
ATOM      7  C14 23U d   1      17.733 -11.839  21.028  0.00  0.00     0.091 C 
ATOM      8  H11 23U d   1      18.613 -14.686  20.325  0.00  0.00     0.064 H 
ATOM      9  H12 23U d   1      19.686 -14.444  21.746  0.00  0.00     0.064 H 
ATOM     10  H13 23U d   1      20.377 -13.217  19.417  0.00  0.00     0.035 H 
ATOM     11  H14 23U d   1      20.450 -12.250  20.929  0.00  0.00     0.035 H 
ATOM     12  H15 23U d   1      18.076 -12.424  18.925  0.00  0.00     0.036 H 
ATOM     13  H16 23U d   1      18.965 -10.946  19.427  0.00  0.00     0.036 H 
ATOM     14  H17 23U d   1      18.019 -10.993  21.670  0.00  0.00     0.087 H 
ENDROOT
BRANCH   1  15
ATOM     15  C9  23U d   1      17.421 -14.982  23.330  0.00  0.00     0.187 C 
ATOM     16  H7  23U d   1      18.206 -15.515  22.774  0.00  0.00     0.100 H 
BRANCH  15  17
ATOM     17  C8  23U d   1      17.907 -14.776  24.798  0.00  0.00     0.033 C 
ATOM     18  H6  23U d   1      17.244 -14.018  25.240  0.00  0.00     0.058 H 
BRANCH  17  19
ATOM     19  C1  23U d   1      19.346 -14.243  24.868  0.00  0.00    -0.047 A 
ATOM     20  C2  23U d   1      19.633 -13.154  25.685  0.00  0.00    -0.076 A 
ATOM     21  C3  23U d   1      20.935 -12.658  25.757  0.00  0.00    -0.082 A 
ATOM     22  H1  23U d   1      18.844 -12.690  26.266  0.00  0.00     0.084 H 
ATOM     23  C4  23U d   1      21.963 -13.249  25.011  0.00  0.00    -0.083 A 
ATOM     24  H2  23U d   1      21.153 -11.809  26.395  0.00  0.00     0.083 H 
ATOM     25  C5  23U d   1      21.689 -14.341  24.190  0.00  0.00    -0.082 A 
ATOM     26  H3  23U d   1      22.972 -12.857  25.073  0.00  0.00     0.083 H 
ATOM     27  C6  23U d   1      20.382 -14.835  24.119  0.00  0.00    -0.076 A 
ATOM     28  H4  23U d   1      22.481 -14.803  23.612  0.00  0.00     0.083 H 
ATOM     29  H5  23U d   1      20.164 -15.683  23.480  0.00  0.00     0.084 H 
ENDBRANCH  17  19
BRANCH  17  30
ATOM     30  C7  23U d   1      17.833 -16.036  25.699  0.00  0.00    -0.047 A 
ATOM     31  C23 23U d   1      17.283 -16.036  26.981  0.00  0.00    -0.076 A 
ATOM     32  C24 23U d   1      17.259 -17.220  27.723  0.00  0.00    -0.082 A 
ATOM     33  H25 23U d   1      16.876 -15.122  27.399  0.00  0.00     0.084 H 
ATOM     34  C25 23U d   1      17.780 -18.392  27.184  0.00  0.00    -0.083 A 
ATOM     35  H26 23U d   1      16.834 -17.225  28.720  0.00  0.00     0.083 H 
ATOM     36  C26 23U d   1      18.334 -18.400  25.899  0.00  0.00    -0.082 A 
ATOM     37  H27 23U d   1      17.757 -19.307  27.765  0.00  0.00     0.083 H 
ATOM     38  C27 23U d   1      18.357 -17.218  25.160  0.00  0.00    -0.076 A 
ATOM     39  H28 23U d   1      18.741 -19.315  25.483  0.00  0.00     0.083 H 
ATOM     40  H29 23U d   1      18.783 -17.214  24.163  0.00  0.00     0.084 H 
ENDBRANCH  17  30
ENDBRANCH  15  17
BRANCH  15  41
ATOM     41  N2  23U d   1      16.205 -15.832  23.300  0.00  0.00    -0.065 N 
ATOM     42  H8  23U d   1      15.905 -15.955  22.346  0.00  0.00     0.275 HD
ATOM     43  H9  23U d   1      15.471 -15.387  23.829  0.00  0.00     0.275 HD
ATOM     44  H10 23U d   1      16.413 -16.731  23.705  0.00  0.00     0.275 HD
ENDBRANCH  15  41
ENDBRANCH   1  15
BRANCH   7  45
ATOM     45  C15 23U d   1      16.278 -11.736  20.631  0.00  0.00     0.240 C 
ATOM     46  N23 23U d   1      15.647 -10.565  20.861  0.00  0.00    -0.355 N 
ATOM     47  H18 23U d   1      16.107  -9.838  21.371  0.00  0.00     0.162 HD
ATOM     48  O22 23U d   1      15.749 -12.714  20.111  0.00  0.00    -0.271 OA
BRANCH  46  49
ATOM     49  C16 23U d   1      14.286 -10.363  20.360  0.00  0.00     0.019 C 
ATOM     50  H19 23U d   1      14.023 -11.192  19.687  0.00  0.00     0.071 H 
ATOM     51  H20 23U d   1      14.243  -9.413  19.806  0.00  0.00     0.071 H 
BRANCH  49  52
ATOM     52  C17 23U d   1      13.273 -10.316  21.522  0.00  0.00    -0.039 A 
ATOM     53  C18 23U d   1      12.383 -11.366  21.746  0.00  0.00    -0.075 A 
ATOM     54  C19 23U d   1      11.466 -11.329  22.796  0.00  0.00    -0.081 A 
ATOM     55  H21 23U d   1      12.404 -12.229  21.090  0.00  0.00     0.084 H 
ATOM     56  C20 23U d   1      11.427 -10.226  23.643  0.00  0.00    -0.062 A 
ATOM     57  H22 23U d   1      10.785 -12.158  22.952  0.00  0.00     0.083 H 
ATOM     58  C21 23U d   1      12.312  -9.170  23.431  0.00  0.00     0.034 A 
ATOM     59  H23 23U d   1      10.715 -10.188  24.460  0.00  0.00     0.086 H 
ATOM     60  C22 23U d   1      13.231  -9.206  22.381  0.00  0.00    -0.054 A 
ATOM     61 CL1  23U d   1      12.243  -7.796  24.514  0.00  0.00    -0.084 Cl
ATOM     62  H24 23U d   1      13.912  -8.377  22.229  0.00  0.00     0.086 H 
ENDBRANCH  49  52
ENDBRANCH  46  49
ENDBRANCH   7  45
TORSDOF 8
