REMARK  4 active torsions:
REMARK  status: ('A' for Active; 'I' for Inactive)
REMARK    1  A    between atoms: C5_5  and  O7_7 
REMARK    2  A    between atoms: O7_7  and  C8_8 
REMARK    3  A    between atoms: C12_12  and  C14_14 
REMARK    4  A    between atoms: C14_14  and  C17_17 
ROOT
ATOM      1  C8  PDZ d   1      48.546  63.985  16.956  0.00  0.00     0.136 A 
ATOM      2  C9  PDZ d   1      47.624  63.964  15.932  0.00  0.00     0.071 A 
ATOM      3  C10 PDZ d   1      48.014  63.838  14.603  0.00  0.00    -0.059 A 
ATOM      4  C11 PDZ d   1      49.368  63.736  14.329  0.00  0.00    -0.072 A 
ATOM      5  C12 PDZ d   1      50.304  63.753  15.361  0.00  0.00    -0.011 A 
ATOM      6  C13 PDZ d   1      49.894  63.890  16.680  0.00  0.00     0.158 A 
ATOM      7 CL15 PDZ d   1      45.968  64.098  16.383  0.00  0.00    -0.081 Cl
ATOM      8  F16 PDZ d   1      50.765  63.915  17.712  0.00  0.00    -0.203 F 
ATOM      9  H6  PDZ d   1      47.280  63.820  13.805  0.00  0.00     0.086 H 
ATOM     10  H7  PDZ d   1      49.703  63.642  13.302  0.00  0.00     0.084 H 
ENDROOT
BRANCH   5  11
ATOM     11  C14 PDZ d   1      51.771  63.666  15.045  0.00  0.00     0.004 C 
ATOM     12  H8  PDZ d   1      51.946  63.051  14.150  0.00  0.00     0.049 H 
ATOM     13  H9  PDZ d   1      52.333  63.248  15.893  0.00  0.00     0.049 H 
BRANCH  11  14
ATOM     14  C17 PDZ d   1      52.156  65.105  14.797  0.00  0.00     0.058 A 
ATOM     15  C18 PDZ d   1      52.775  65.864  15.814  0.00  0.00    -0.069 A 
ATOM     16  C19 PDZ d   1      53.087  67.169  15.546  0.00  0.00     0.030 A 
ATOM     17  H10 PDZ d   1      52.998  65.423  16.785  0.00  0.00     0.080 H 
ATOM     18  C20 PDZ d   1      52.750  67.667  14.264  0.00  0.00     0.265 A 
ATOM     19  H11 PDZ d   1      54.174  67.281  15.668  0.00  0.00     0.053 H 
ATOM     20  H12 PDZ d   1      52.568  67.792  16.289  0.00  0.00     0.053 H 
ATOM     21  N21 PDZ d   1      52.152  66.867  13.360  0.00  0.00    -0.111 NA
ATOM     22  O23 PDZ d   1      53.001  68.817  13.957  0.00  0.00    -0.269 OA
ATOM     23  N22 PDZ d   1      51.873  65.647  13.634  0.00  0.00    -0.152 NA
ENDBRANCH  11  14
ENDBRANCH   5  11
BRANCH   1  24
ATOM     24  O7  PDZ d   1      48.117  64.104  18.230  0.00  0.00    -0.306 OA
BRANCH  24  25
ATOM     25  C5  PDZ d   1      48.179  63.054  19.083  0.00  0.00     0.076 A 
ATOM     26  C4  PDZ d   1      47.833  61.773  18.666  0.00  0.00    -0.050 A 
ATOM     27  C3  PDZ d   1      47.904  60.724  19.570  0.00  0.00    -0.080 A 
ATOM     28  H4  PDZ d   1      47.511  61.597  17.646  0.00  0.00     0.087 H 
ATOM     29  C2  PDZ d   1      48.315  60.952  20.878  0.00  0.00    -0.083 A 
ATOM     30  H3  PDZ d   1      47.638  59.721  19.255  0.00  0.00     0.083 H 
ATOM     31  C1  PDZ d   1      48.661  62.232  21.291  0.00  0.00    -0.080 A 
ATOM     32  H2  PDZ d   1      48.366  60.127  21.579  0.00  0.00     0.083 H 
ATOM     33  C6  PDZ d   1      48.590  63.280  20.390  0.00  0.00    -0.050 A 
ATOM     34  H1  PDZ d   1      48.984  62.409  22.311  0.00  0.00     0.083 H 
ATOM     35  H5  PDZ d   1      48.856  64.282  20.706  0.00  0.00     0.087 H 
ENDBRANCH  24  25
ENDBRANCH   1  24
TORSDOF 4
