REMARK WARNING: 32 MAX_TORS EXCEEDED!!!
REMARK  41 active torsions:
REMARK  status: ('A' for Active; 'I' for Inactive)
REMARK    1  A    between atoms: N_1  and  CA_2 
REMARK    2  A    between atoms: CA_2  and  C_3 
REMARK    3  A    between atoms: CA_2  and  CB_5 
REMARK       I    between atoms: C_3  and  N_10 
REMARK    4  A    between atoms: CB_5  and  CG_6 
REMARK    5  A    between atoms: CG_6  and  CD_7 
REMARK       I    between atoms: CD_7  and  NE2_9 
REMARK    6  A    between atoms: N_10  and  CA_11 
REMARK    7  A    between atoms: CA_11  and  C_12 
REMARK    8  A    between atoms: CA_11  and  CB_14 
REMARK       I    between atoms: C_12  and  N_18 
REMARK    9  A    between atoms: CB_14  and  CG_15 
REMARK   10  A    between atoms: CG_15  and  CD1_16 
REMARK   11  A    between atoms: CG_15  and  CD2_17 
REMARK   12  A    between atoms: N_18  and  CA_19 
REMARK   13  A    between atoms: CA_19  and  C_20 
REMARK   14  A    between atoms: CA_19  and  CB_22 
REMARK       I    between atoms: C_20  and  N_23 
REMARK   15  A    between atoms: N_23  and  CA_24 
REMARK   16  A    between atoms: CA_24  and  C_25 
REMARK   17  A    between atoms: CA_24  and  CB_27 
REMARK       I    between atoms: C_25  and  N_37 
REMARK   18  A    between atoms: CB_27  and  CG_28 
REMARK   19  A    between atoms: N_37  and  CA_38 
REMARK   20  A    between atoms: CA_38  and  C_39 
REMARK   21  A    between atoms: CA_38  and  CB_41 
REMARK       I    between atoms: C_39  and  N_48 
REMARK   22  A    between atoms: CB_41  and  CG_42 
REMARK   23  A    between atoms: N_48  and  CA_49 
REMARK   24  A    between atoms: CA_49  and  C_50 
REMARK   25  A    between atoms: CA_49  and  CB_52 
REMARK       I    between atoms: C_50  and  N_56 
REMARK   26  A    between atoms: CB_52  and  CG_53 
REMARK   27  A    between atoms: N_56  and  CA_57 
REMARK   28  A    between atoms: CA_57  and  C_58 
REMARK   29  A    between atoms: CA_57  and  CB_60 
REMARK       I    between atoms: C_58  and  N_63 
REMARK   30  A    between atoms: CB_60  and  OG1_61 
REMARK   31  A    between atoms: CB_60  and  CG2_62 
REMARK   32  A    between atoms: N_63  and  CA_64 
REMARK   33  A    between atoms: CA_64  and  C_65 
REMARK   34  A    between atoms: CA_64  and  CB_67 
REMARK       I    between atoms: C_65  and  N_71 
REMARK   35  A    between atoms: CB_67  and  CG_68 
REMARK   36  A    between atoms: N_71  and  CA_72 
REMARK   37  A    between atoms: CA_72  and  C_73 
REMARK   38  A    between atoms: CA_72  and  CB_75 
REMARK   39  A    between atoms: CB_75  and  CG_76 
REMARK   40  A    between atoms: CG_76  and  CD1_77 
REMARK   41  A    between atoms: CG_76  and  CD2_78 
ROOT
ATOM      1  CA  PHE d   1       4.804   3.942  12.870  0.00  0.00     0.093 C 
ATOM      2  H38 PHE d   1       5.829   3.660  12.587  0.00  0.00     0.088 H 
ENDROOT
BRANCH   1   3
ATOM      3  N   PHE d   1       4.386   5.059  12.019  0.00  0.00    -0.346 N 
ATOM      4  C   TRP d   1       5.276   5.931  11.557  0.00  0.00     0.241 C 
ATOM      5  O   TRP d   1       6.475   5.883  11.852  0.00  0.00    -0.271 OA
ATOM      6  H37 PHE d   1       3.420   5.166  11.783  0.00  0.00     0.163 HD
BRANCH   4   7
ATOM      7  CA  TRP d   1       4.757   7.044  10.651  0.00  0.00     0.093 C 
ATOM      8  H28 TRP d   1       3.661   7.005  10.569  0.00  0.00     0.088 H 
BRANCH   7   9
ATOM      9  N   TRP d   1       5.185   8.294  11.267  0.00  0.00    -0.346 N 
ATOM     10  C   ALA d   1       4.634   8.779  12.377  0.00  0.00     0.240 C 
ATOM     11  O   ALA d   1       3.707   8.225  12.971  0.00  0.00    -0.271 OA
ATOM     12  H27 TRP d   1       5.926   8.810  10.836  0.00  0.00     0.163 HD
BRANCH  10  13
ATOM     13  CA  ALA d   1       5.234  10.095  12.879  0.00  0.00     0.086 C 
ATOM     14  H23 ALA d   1       5.411  10.728  11.997  0.00  0.00     0.086 H 
BRANCH  13  15
ATOM     15  N   ALA d   1       4.383  10.851  13.788  0.00  0.00    -0.346 N 
ATOM     16  C   LEU d   1       3.354  11.581  13.370  0.00  0.00     0.241 C 
ATOM     17  O   LEU d   1       3.021  11.666  12.185  0.00  0.00    -0.271 OA
ATOM     18  H22 ALA d   1       4.581  10.819  14.768  0.00  0.00     0.163 HD
BRANCH  16  19
ATOM     19  CA  LEU d   1       2.585  12.326  14.460  0.00  0.00     0.089 C 
ATOM     20  H12 LEU d   1       3.060  12.111  15.428  0.00  0.00     0.087 H 
BRANCH  19  21
ATOM     21  N   LEU d   1       2.628  13.769  14.235  0.00  0.00    -0.346 N 
ATOM     22  C   GLN d   1       3.718  14.481  14.515  0.00  0.00     0.249 C 
ATOM     23  O   GLN d   1       4.749  13.976  14.960  0.00  0.00    -0.271 OA
ATOM     24  H11 LEU d   1       1.823  14.231  13.863  0.00  0.00     0.163 HD
BRANCH  22  25
ATOM     25  CA  GLN d   1       3.644  15.986  14.253  0.00  0.00     0.176 C 
ATOM     26  H4  GLN d   1       4.664  16.396  14.294  0.00  0.00     0.099 H 
BRANCH  25  27
ATOM     27  N   GLN d   1       3.074  16.278  12.908  0.00  0.00    -0.066 N 
ATOM     28  H1  GLN d   1       3.039  17.276  12.767  0.00  0.00     0.275 HD
ATOM     29  H2  GLN d   1       2.143  15.897  12.848  0.00  0.00     0.275 HD
ATOM     30  H3  GLN d   1       3.655  15.859  12.199  0.00  0.00     0.275 HD
ENDBRANCH  25  27
BRANCH  25  31
ATOM     31  CB  GLN d   1       2.797  16.663  15.338  0.00  0.00    -0.022 C 
ATOM     32  H5  GLN d   1       1.744  16.397  15.164  0.00  0.00     0.037 H 
ATOM     33  H6  GLN d   1       2.921  17.751  15.238  0.00  0.00     0.037 H 
BRANCH  31  34
ATOM     34  CG  GLN d   1       3.152  16.276  16.774  0.00  0.00     0.011 C 
ATOM     35  H7  GLN d   1       3.115  15.180  16.859  0.00  0.00     0.047 H 
ATOM     36  H8  GLN d   1       2.407  16.722  17.449  0.00  0.00     0.047 H 
BRANCH  34  37
ATOM     37  CD  GLN d   1       4.533  16.745  17.205  0.00  0.00     0.215 C 
ATOM     38  OE1 GLN d   1       5.551  16.311  16.662  0.00  0.00    -0.274 OA
ATOM     39  NE2 GLN d   1       4.571  17.636  18.189  0.00  0.00    -0.370 N 
ATOM     40  H9  GLN d   1       5.450  17.982  18.516  0.00  0.00     0.159 HD
ATOM     41  H10 GLN d   1       3.720  17.961  18.603  0.00  0.00     0.159 HD
ENDBRANCH  34  37
ENDBRANCH  31  34
ENDBRANCH  25  31
ENDBRANCH  22  25
ENDBRANCH  19  21
BRANCH  19  42
ATOM     42  CB  LEU d   1       1.130  11.840  14.513  0.00  0.00    -0.035 C 
ATOM     43  H13 LEU d   1       0.725  11.899  13.492  0.00  0.00     0.037 H 
ATOM     44  H14 LEU d   1       0.576  12.529  15.168  0.00  0.00     0.037 H 
BRANCH  42  45
ATOM     45  CG  LEU d   1       0.878  10.417  15.025  0.00  0.00    -0.059 C 
ATOM     46  H15 LEU d   1       1.376   9.701  14.355  0.00  0.00     0.038 H 
BRANCH  45  47
ATOM     47  CD1 LEU d   1       1.451  10.261  16.427  0.00  0.00    -0.073 C 
ATOM     48  H16 LEU d   1       1.266   9.238  16.787  0.00  0.00     0.028 H 
ATOM     49  H17 LEU d   1       0.967  10.981  17.103  0.00  0.00     0.028 H 
ATOM     50  H18 LEU d   1       2.534  10.451  16.404  0.00  0.00     0.028 H 
ENDBRANCH  45  47
BRANCH  45  51
ATOM     51  CD2 LEU d   1      -0.621  10.132  15.029  0.00  0.00    -0.073 C 
ATOM     52  H19 LEU d   1      -1.019  10.249  14.010  0.00  0.00     0.028 H 
ATOM     53  H20 LEU d   1      -1.127  10.838  15.704  0.00  0.00     0.028 H 
ATOM     54  H21 LEU d   1      -0.798   9.103  15.376  0.00  0.00     0.028 H 
ENDBRANCH  45  51
ENDBRANCH  42  45
ENDBRANCH  19  42
ENDBRANCH  16  19
ENDBRANCH  13  15
BRANCH  13  55
ATOM     55  CB  ALA d   1       6.579   9.823  13.551  0.00  0.00    -0.049 C 
ATOM     56  H24 ALA d   1       7.223   9.252  12.866  0.00  0.00     0.030 H 
ATOM     57  H25 ALA d   1       6.418   9.243  14.472  0.00  0.00     0.030 H 
ATOM     58  H26 ALA d   1       7.064  10.778  13.800  0.00  0.00     0.030 H 
ENDBRANCH  13  55
ENDBRANCH  10  13
ENDBRANCH   7   9
BRANCH   7  59
ATOM     59  CB  TRP d   1       5.397   6.902   9.261  0.00  0.00    -0.012 C 
ATOM     60  H29 TRP d   1       6.402   6.474   9.391  0.00  0.00     0.044 H 
ATOM     61  H30 TRP d   1       5.481   7.906   8.820  0.00  0.00     0.044 H 
BRANCH  59  62
ATOM     62  CG  TRP d   1       4.642   6.032   8.296  0.00  0.00    -0.028 A 
ATOM     63  CD1 TRP d   1       3.622   6.414   7.477  0.00  0.00    -0.015 A 
ATOM     64  NE1 TRP d   1       3.182   5.346   6.732  0.00  0.00    -0.365 N 
ATOM     65  H31 TRP d   1       3.214   7.422   7.421  0.00  0.00     0.112 H 
ATOM     66  CE2 TRP d   1       3.918   4.241   7.065  0.00  0.00     0.042 A 
ATOM     67  H32 TRP d   1       2.422   5.373   6.037  0.00  0.00     0.165 HD
ATOM     68  CD2 TRP d   1       4.851   4.636   8.050  0.00  0.00    -0.002 A 
ATOM     69  CZ2 TRP d   1       3.842   2.928   6.583  0.00  0.00    -0.056 A 
ATOM     70  CE3 TRP d   1       5.734   3.679   8.567  0.00  0.00    -0.070 A 
ATOM     71  CZ3 TRP d   1       5.657   2.368   8.085  0.00  0.00    -0.082 A 
ATOM     72  H33 TRP d   1       6.461   3.949   9.324  0.00  0.00     0.084 H 
ATOM     73  CH2 TRP d   1       4.716   2.010   7.103  0.00  0.00    -0.081 A 
ATOM     74  H35 TRP d   1       6.333   1.616   8.475  0.00  0.00     0.083 H 
ATOM     75  H36 TRP d   1       4.681   0.986   6.750  0.00  0.00     0.083 H 
ATOM     76  H34 TRP d   1       3.118   2.648   5.826  0.00  0.00     0.086 H 
ENDBRANCH  59  62
ENDBRANCH   7  59
ENDBRANCH   4   7
ENDBRANCH   1   3
BRANCH   1  77
ATOM     77  C   PHE d   1       3.894   2.744  12.651  0.00  0.00     0.241 C 
ATOM     78  O   PHE d   1       2.794   2.889  12.109  0.00  0.00    -0.271 OA
ATOM     79  N   ASP d   1       4.347   1.564  13.075  0.00  0.00    -0.345 N 
ATOM     80  H46 ASP d   1       5.241   1.506  13.519  0.00  0.00     0.163 HD
BRANCH  79  81
ATOM     81  CA  ASP d   1       3.551   0.361  12.896  0.00  0.00     0.098 C 
ATOM     82  H47 ASP d   1       2.623   0.663  12.388  0.00  0.00     0.088 H 
BRANCH  81  83
ATOM     83  C   ASP d   1       3.142  -0.319  14.199  0.00  0.00     0.241 C 
ATOM     84  O   ASP d   1       3.715  -0.067  15.260  0.00  0.00    -0.271 OA
ATOM     85  N   THR d   1       2.136  -1.181  14.095  0.00  0.00    -0.344 N 
ATOM     86  H50 THR d   1       1.729  -1.333  13.195  0.00  0.00     0.163 HD
BRANCH  85  87
ATOM     87  CA  THR d   1       1.600  -1.914  15.235  0.00  0.00     0.113 C 
ATOM     88  H51 THR d   1       2.312  -1.846  16.070  0.00  0.00     0.091 H 
BRANCH  87  89
ATOM     89  C   THR d   1       1.412  -3.382  14.856  0.00  0.00     0.243 C 
ATOM     90  O   THR d   1       1.038  -3.693  13.719  0.00  0.00    -0.271 OA
ATOM     91  N   ASP d   1       1.668  -4.277  15.810  0.00  0.00    -0.345 N 
ATOM     92  H57 ASP d   1       1.948  -3.954  16.714  0.00  0.00     0.163 HD
BRANCH  91  93
ATOM     93  CA  ASP d   1       1.553  -5.714  15.576  0.00  0.00     0.098 C 
ATOM     94  H58 ASP d   1       1.828  -5.906  14.528  0.00  0.00     0.088 H 
BRANCH  93  95
ATOM     95  C   ASP d   1       0.135  -6.240  15.792  0.00  0.00     0.241 C 
ATOM     96  O   ASP d   1      -0.549  -5.846  16.738  0.00  0.00    -0.271 OA
ATOM     97  N   LEU d   1      -0.292  -7.137  14.906  0.00  0.00    -0.345 N 
ATOM     98  H61 LEU d   1       0.331  -7.423  14.177  0.00  0.00     0.163 HD
BRANCH  97  99
ATOM     99  CA  LEU d   1      -1.631  -7.723  14.951  0.00  0.00     0.096 C 
ATOM    100  H62 LEU d   1      -2.104  -7.439  15.903  0.00  0.00     0.089 H 
BRANCH  99 101
ATOM    101  C   LEU d   1      -1.575  -9.245  14.870  0.00  0.00     0.196 C 
ATOM    102  O   LEU d   1      -2.565  -9.894  15.267  0.00  0.00    -0.646 OA
ATOM    103  OXT LEU d   1      -0.551  -9.769  14.384  0.00  0.00    -0.646 OA
ENDBRANCH  99 101
BRANCH  99 104
ATOM    104  CB  LEU d   1      -2.480  -7.183  13.795  0.00  0.00    -0.034 C 
ATOM    105  H63 LEU d   1      -3.256  -7.936  13.593  0.00  0.00     0.037 H 
ATOM    106  H64 LEU d   1      -1.814  -7.101  12.924  0.00  0.00     0.037 H 
BRANCH 104 107
ATOM    107  CG  LEU d   1      -3.198  -5.833  13.932  0.00  0.00    -0.059 C 
ATOM    108  H65 LEU d   1      -4.018  -5.938  14.657  0.00  0.00     0.038 H 
BRANCH 107 109
ATOM    109  CD1 LEU d   1      -2.252  -4.755  14.425  0.00  0.00    -0.073 C 
ATOM    110  H66 LEU d   1      -2.795  -3.803  14.512  0.00  0.00     0.028 H 
ATOM    111  H67 LEU d   1      -1.423  -4.640  13.711  0.00  0.00     0.028 H 
ATOM    112  H68 LEU d   1      -1.852  -5.040  15.409  0.00  0.00     0.028 H 
ENDBRANCH 107 109
BRANCH 107 113
ATOM    113  CD2 LEU d   1      -3.776  -5.451  12.581  0.00  0.00    -0.073 C 
ATOM    114  H69 LEU d   1      -4.459  -6.242  12.238  0.00  0.00     0.028 H 
ATOM    115  H70 LEU d   1      -2.960  -5.330  11.854  0.00  0.00     0.028 H 
ATOM    116  H71 LEU d   1      -4.328  -4.504  12.673  0.00  0.00     0.028 H 
ENDBRANCH 107 113
ENDBRANCH 104 107
ENDBRANCH  99 104
ENDBRANCH  97  99
ENDBRANCH  93  95
BRANCH  93 117
ATOM    117  CB  ASP d   1       2.527  -6.479  16.479  0.00  0.00     0.043 C 
ATOM    118  H59 ASP d   1       2.550  -7.532  16.161  0.00  0.00     0.052 H 
ATOM    119  H60 ASP d   1       2.168  -6.417  17.517  0.00  0.00     0.052 H 
BRANCH 117 120
ATOM    120  CG  ASP d   1       3.940  -5.922  16.419  0.00  0.00     0.175 C 
ATOM    121  OD1 ASP d   1       4.418  -5.614  15.305  0.00  0.00    -0.648 OA
ATOM    122  OD2 ASP d   1       4.578  -5.801  17.490  0.00  0.00    -0.648 OA
ENDBRANCH 117 120
ENDBRANCH  93 117
ENDBRANCH  91  93
ENDBRANCH  87  89
BRANCH  87 123
ATOM    123  CB  THR d   1       0.238  -1.309  15.683  0.00  0.00     0.060 C 
ATOM    124  H52 THR d   1      -0.185  -1.926  16.489  0.00  0.00     0.086 H 
BRANCH 123 125
ATOM    125  OG1 THR d   1      -0.663  -1.278  14.573  0.00  0.00    -0.393 OA
ATOM    126  H53 THR d   1      -0.292  -0.743  13.881  0.00  0.00     0.210 HD
ENDBRANCH 123 125
BRANCH 123 127
ATOM    127  CG2 THR d   1       0.421   0.116  16.175  0.00  0.00    -0.050 C 
ATOM    128  H54 THR d   1      -0.552   0.524  16.486  0.00  0.00     0.031 H 
ATOM    129  H55 THR d   1       0.835   0.734  15.364  0.00  0.00     0.031 H 
ATOM    130  H56 THR d   1       1.112   0.123  17.031  0.00  0.00     0.031 H 
ENDBRANCH 123 127
ENDBRANCH  87 123
ENDBRANCH  85  87
ENDBRANCH  81  83
BRANCH  81 131
ATOM    131  CB  ASP d   1       4.285  -0.632  11.978  0.00  0.00     0.043 C 
ATOM    132  H48 ASP d   1       4.518  -0.125  11.030  0.00  0.00     0.052 H 
ATOM    133  H49 ASP d   1       3.620  -1.486  11.784  0.00  0.00     0.052 H 
BRANCH 131 134
ATOM    134  CG  ASP d   1       5.582  -1.156  12.578  0.00  0.00     0.175 C 
ATOM    135  OD1 ASP d   1       6.020  -0.646  13.633  0.00  0.00    -0.648 OA
ATOM    136  OD2 ASP d   1       6.169  -2.085  11.980  0.00  0.00    -0.648 OA
ENDBRANCH 131 134
ENDBRANCH  81 131
ENDBRANCH  79  81
ENDBRANCH   1  77
BRANCH   1 137
ATOM    137  CB  PHE d   1       4.803   4.329  14.361  0.00  0.00    -0.014 C 
ATOM    138  H39 PHE d   1       5.392   5.251  14.478  0.00  0.00     0.043 H 
ATOM    139  H40 PHE d   1       5.279   3.516  14.928  0.00  0.00     0.043 H 
BRANCH 137 140
ATOM    140  CG  PHE d   1       3.428   4.569  14.942  0.00  0.00    -0.056 A 
ATOM    141  CD1 PHE d   1       2.864   5.842  14.935  0.00  0.00    -0.077 A 
ATOM    142  CE1 PHE d   1       1.602   6.075  15.507  0.00  0.00    -0.082 A 
ATOM    143  H41 PHE d   1       3.406   6.664  14.482  0.00  0.00     0.084 H 
ATOM    144  CZ  PHE d   1       0.895   5.016  16.091  0.00  0.00    -0.083 A 
ATOM    145  H43 PHE d   1       1.176   7.072  15.496  0.00  0.00     0.083 H 
ATOM    146  CE2 PHE d   1       1.448   3.740  16.099  0.00  0.00    -0.082 A 
ATOM    147  H45 PHE d   1      -0.079   5.190  16.535  0.00  0.00     0.083 H 
ATOM    148  CD2 PHE d   1       2.712   3.523  15.525  0.00  0.00    -0.077 A 
ATOM    149  H44 PHE d   1       0.905   2.915  16.547  0.00  0.00     0.083 H 
ATOM    150  H42 PHE d   1       3.138   2.526  15.535  0.00  0.00     0.084 H 
ENDBRANCH 137 140
ENDBRANCH   1 137
TORSDOF 41
