REMARK  3 active torsions:
REMARK  status: ('A' for Active; 'I' for Inactive)
REMARK    1  A    between atoms: N01_1  and  C02_2 
REMARK    2  A    between atoms: C05_5  and  C06_6 
REMARK    3  A    between atoms: C06_6  and  C07_7 
ROOT
ATOM      1  C02 BC3 d   1     -19.495  -2.690  25.837  0.00  0.00     0.679 A 
ATOM      2  N03 BC3 d   1     -18.682  -3.169  26.792  0.00  0.00    -0.189 N 
ATOM      3  C04 BC3 d   1     -19.024  -3.108  28.088  0.00  0.00     0.089 A 
ATOM      4  C05 BC3 d   1     -18.387  -3.516  29.251  0.00  0.00    -0.009 A 
ATOM      5  C13 BC3 d   1     -19.185  -3.208  30.272  0.00  0.00    -0.014 A 
ATOM      6  N14 BC3 d   1     -20.293  -2.625  29.810  0.00  0.00    -0.359 N 
ATOM      7  C15 BC3 d   1     -20.228  -2.548  28.483  0.00  0.00     0.129 A 
ATOM      8  C16 BC3 d   1     -21.095  -2.043  27.524  0.00  0.00     0.288 A 
ATOM      9  O17 BC3 d   1     -22.169  -1.542  27.853  0.00  0.00    -0.265 OA
ATOM     10  N18 BC3 d   1     -20.726  -2.114  26.178  0.00  0.00    -0.154 N 
ATOM     11  H3  BC3 d   1     -17.781  -3.590  26.525  0.00  0.00     0.184 HD
ATOM     12  H10 BC3 d   1     -18.967  -3.402  31.321  0.00  0.00     0.112 H 
ATOM     13  H11 BC3 d   1     -21.075  -2.288  30.389  0.00  0.00     0.165 HD
ATOM     14  H12 BC3 d   1     -21.333  -1.758  25.467  0.00  0.00     0.187 HD
ENDROOT
BRANCH   4  15
ATOM     15  C06 BC3 d   1     -17.020  -4.197  29.343  0.00  0.00    -0.012 C 
ATOM     16  H4  BC3 d   1     -16.789  -4.686  28.385  0.00  0.00     0.047 H 
ATOM     17  H5  BC3 d   1     -17.039  -4.950  30.145  0.00  0.00     0.047 H 
BRANCH  15  18
ATOM     18  C07 BC3 d   1     -15.948  -3.150  29.652  0.00  0.00    -0.036 A 
ATOM     19  C08 BC3 d   1     -14.634  -3.537  29.872  0.00  0.00    -0.074 A 
ATOM     20  C09 BC3 d   1     -13.695  -2.554  30.149  0.00  0.00    -0.066 A 
ATOM     21  H6  BC3 d   1     -14.348  -4.582  29.828  0.00  0.00     0.084 H 
ATOM     22  C10 BC3 d   1     -14.099  -1.224  30.197  0.00  0.00     0.002 A 
ATOM     23  H7  BC3 d   1     -12.659  -2.819  30.326  0.00  0.00     0.085 H 
ATOM     24  N11 BC3 d   1     -15.361  -0.891  29.983  0.00  0.00    -0.273 NA
ATOM     25  H8  BC3 d   1     -13.370  -0.451  30.413  0.00  0.00     0.114 H 
ATOM     26  C12 BC3 d   1     -16.281  -1.802  29.716  0.00  0.00     0.008 A 
ATOM     27  H9  BC3 d   1     -17.306  -1.494  29.545  0.00  0.00     0.115 H 
ENDBRANCH  15  18
ENDBRANCH   4  15
BRANCH   1  28
ATOM     28  N01 BC3 d   1     -19.131  -2.764  24.560  0.00  0.00    -0.234 N 
ATOM     29  H1  BC3 d   1     -18.227  -3.187  24.306  0.00  0.00     0.174 HD
ATOM     30  H2  BC3 d   1     -19.753  -2.398  23.825  0.00  0.00     0.174 HD
ENDBRANCH   1  28
TORSDOF 3
