REMARK  4 active torsions:
REMARK  status: ('A' for Active; 'I' for Inactive)
REMARK    1  A    between atoms: N1_4  and  C1_3 
REMARK    2  A    between atoms: C3_7  and  C5_5 
REMARK    3  A    between atoms: C9_13  and  S1_16 
REMARK    4  A    between atoms: S1_16  and  C10_17 
ROOT
ATOM      1  C7  SX8 d   1      16.177  16.693 139.108  0.00  0.00    -0.033 A 
ATOM      2  C6  SX8 d   1      15.349  15.817 139.687  0.00  0.00    -0.049 A 
ATOM      3  C5  SX8 d   1      15.457  14.387 139.278  0.00  0.00     0.090 A 
ATOM      4  N7  SX8 d   1      16.274  13.905 138.374  0.00  0.00    -0.163 NA
ATOM      5  N6  SX8 d   1      17.077  14.877 137.837  0.00  0.00    -0.187 N 
ATOM      6  C8  SX8 d   1      17.080  16.232 138.131  0.00  0.00     0.175 A 
ATOM      7  C9  SX8 d   1      18.042  14.746 136.887  0.00  0.00     0.217 A 
ATOM      8  N4  SX8 d   1      18.582  15.909 136.609  0.00  0.00    -0.120 NA
ATOM      9  N3  SX8 d   1      17.968  16.855 137.394  0.00  0.00    -0.128 NA
ATOM     10  H   SX8 d   1      16.153  17.746 139.388  0.00  0.00     0.089 H 
ATOM     11  H   SX8 d   1      14.620  16.137 140.432  0.00  0.00     0.087 H 
ENDROOT
BRANCH   7  12
ATOM     12  S1  SX8 d   1      18.423  13.225 136.154  0.00  0.00    -0.049 SA
BRANCH  12  13
ATOM     13  C10 SX8 d   1      19.174  12.301 137.473  0.00  0.00     0.009 A 
ATOM     14  C18 SX8 d   1      18.556  11.160 138.001  0.00  0.00    -0.054 A 
ATOM     15  C17 SX8 d   1      19.200  10.440 139.034  0.00  0.00    -0.006 A 
ATOM     16  H   SX8 d   1      17.589  10.831 137.620  0.00  0.00     0.086 H 
ATOM     17  C13 SX8 d   1      20.471  10.854 139.524  0.00  0.00     0.066 A 
ATOM     18  C16 SX8 d   1      18.628   9.297 139.609  0.00  0.00    -0.069 A 
ATOM     19  C12 SX8 d   1      21.054  11.992 138.976  0.00  0.00    -0.053 A 
ATOM     20  N5  SX8 d   1      21.125  10.197 140.515  0.00  0.00    -0.260 NA
ATOM     21  C11 SX8 d   1      20.424  12.706 137.948  0.00  0.00    -0.064 A 
ATOM     22  H   SX8 d   1      22.018  12.334 139.353  0.00  0.00     0.087 H 
ATOM     23  H   SX8 d   1      20.911  13.581 137.517  0.00  0.00     0.085 H 
ATOM     24  C14 SX8 d   1      20.541   9.099 141.041  0.00  0.00     0.003 A 
ATOM     25  C15 SX8 d   1      19.308   8.621 140.627  0.00  0.00    -0.065 A 
ATOM     26  H   SX8 d   1      21.066   8.562 141.831  0.00  0.00     0.114 H 
ATOM     27  H   SX8 d   1      18.875   7.733 141.087  0.00  0.00     0.085 H 
ATOM     28  H   SX8 d   1      17.659   8.937 139.265  0.00  0.00     0.085 H 
ENDBRANCH  12  13
ENDBRANCH   7  12
BRANCH   3  29
ATOM     29  C3  SX8 d   1      14.511  13.490 139.899  0.00  0.00     0.031 A 
ATOM     30  C4  SX8 d   1      14.445  12.077 139.775  0.00  0.00     0.035 A 
ATOM     31  N2  SX8 d   1      13.410  11.555 140.436  0.00  0.00    -0.185 NA
ATOM     32  H   SX8 d   1      15.160  11.485 139.204  0.00  0.00     0.118 H 
ATOM     33  N1  SX8 d   1      12.791  12.620 140.969  0.00  0.00    -0.285 N 
ATOM     34  C2  SX8 d   1      13.397  13.797 140.667  0.00  0.00     0.011 A 
ATOM     35  H   SX8 d   1      13.071  14.792 140.970  0.00  0.00     0.115 H 
BRANCH  33  36
ATOM     36  C1  SX8 d   1      11.595  12.434 141.761  0.00  0.00     0.002 C 
ATOM     37  H   SX8 d   1      11.760  12.828 142.764  0.00  0.00     0.059 H 
ATOM     38  H   SX8 d   1      10.765  12.963 141.293  0.00  0.00     0.059 H 
ATOM     39  H   SX8 d   1      11.362  11.371 141.821  0.00  0.00     0.059 H 
ENDBRANCH  33  36
ENDBRANCH   3  29
TORSDOF 4
