REMARK  4 active torsions:
REMARK  status: ('A' for Active; 'I' for Inactive)
REMARK    1  A    between atoms: N1_4  and  C1_3 
REMARK    2  A    between atoms: C3_7  and  C5_5 
REMARK    3  A    between atoms: C9_13  and  S1_16 
REMARK    4  A    between atoms: S1_16  and  C10_17 
ROOT
ATOM      1  C7  SX8 d   1      16.187  16.527  60.118  0.00  0.00    -0.033 A 
ATOM      2  C6  SX8 d   1      15.367  15.663  60.738  0.00  0.00    -0.049 A 
ATOM      3  C5  SX8 d   1      15.443  14.221  60.341  0.00  0.00     0.090 A 
ATOM      4  N7  SX8 d   1      16.242  13.730  59.430  0.00  0.00    -0.163 NA
ATOM      5  N6  SX8 d   1      17.062  14.685  58.853  0.00  0.00    -0.187 N 
ATOM      6  C8  SX8 d   1      17.069  16.054  59.120  0.00  0.00     0.175 A 
ATOM      7  C9  SX8 d   1      18.017  14.534  57.872  0.00  0.00     0.217 A 
ATOM      8  N4  SX8 d   1      18.547  15.709  57.570  0.00  0.00    -0.120 NA
ATOM      9  N3  SX8 d   1      17.934  16.674  58.342  0.00  0.00    -0.128 NA
ATOM     10  H   SX8 d   1      16.172  17.584  60.382  0.00  0.00     0.089 H 
ATOM     11  H   SX8 d   1      14.669  16.000  61.505  0.00  0.00     0.087 H 
ENDROOT
BRANCH   7  12
ATOM     12  S1  SX8 d   1      18.401  13.012  57.109  0.00  0.00    -0.049 SA
BRANCH  12  13
ATOM     13  C10 SX8 d   1      19.305  12.118  58.355  0.00  0.00     0.009 A 
ATOM     14  C18 SX8 d   1      18.693  11.031  58.987  0.00  0.00    -0.054 A 
ATOM     15  C17 SX8 d   1      19.402  10.311  59.972  0.00  0.00    -0.006 A 
ATOM     16  H   SX8 d   1      17.676  10.742  58.721  0.00  0.00     0.086 H 
ATOM     17  C13 SX8 d   1      20.734  10.672  60.316  0.00  0.00     0.066 A 
ATOM     18  C16 SX8 d   1      18.822   9.219  60.646  0.00  0.00    -0.069 A 
ATOM     19  C12 SX8 d   1      21.329  11.757  59.664  0.00  0.00    -0.053 A 
ATOM     20  N5  SX8 d   1      21.429   9.981  61.249  0.00  0.00    -0.260 NA
ATOM     21  C11 SX8 d   1      20.625  12.481  58.682  0.00  0.00    -0.064 A 
ATOM     22  H   SX8 d   1      22.349  12.046  59.919  0.00  0.00     0.087 H 
ATOM     23  H   SX8 d   1      21.102  13.321  58.176  0.00  0.00     0.085 H 
ATOM     24  C14 SX8 d   1      20.830   8.941  61.879  0.00  0.00     0.003 A 
ATOM     25  C15 SX8 d   1      19.543   8.521  61.617  0.00  0.00    -0.065 A 
ATOM     26  H   SX8 d   1      21.400   8.405  62.638  0.00  0.00     0.114 H 
ATOM     27  H   SX8 d   1      19.105   7.676  62.148  0.00  0.00     0.085 H 
ATOM     28  H   SX8 d   1      17.802   8.916  60.408  0.00  0.00     0.085 H 
ENDBRANCH  12  13
ENDBRANCH   7  12
BRANCH   3  29
ATOM     29  C3  SX8 d   1      14.533  13.304  61.018  0.00  0.00     0.031 A 
ATOM     30  C4  SX8 d   1      14.670  11.895  61.140  0.00  0.00     0.035 A 
ATOM     31  N2  SX8 d   1      13.666  11.324  61.806  0.00  0.00    -0.185 NA
ATOM     32  H   SX8 d   1      15.512  11.337  60.730  0.00  0.00     0.118 H 
ATOM     33  N1  SX8 d   1      12.866  12.351  62.122  0.00  0.00    -0.285 N 
ATOM     34  C2  SX8 d   1      13.336  13.555  61.671  0.00  0.00     0.011 A 
ATOM     35  H   SX8 d   1      12.860  14.527  61.801  0.00  0.00     0.115 H 
BRANCH  33  36
ATOM     36  C1  SX8 d   1      11.646  12.102  62.862  0.00  0.00     0.002 C 
ATOM     37  H   SX8 d   1      11.672  12.656  63.800  0.00  0.00     0.059 H 
ATOM     38  H   SX8 d   1      10.791  12.427  62.270  0.00  0.00     0.059 H 
ATOM     39  H   SX8 d   1      11.560  11.036  63.071  0.00  0.00     0.059 H 
ENDBRANCH  33  36
ENDBRANCH   3  29
TORSDOF 4
