REMARK  9 active torsions:
REMARK  status: ('A' for Active; 'I' for Inactive)
REMARK    1  A    between atoms: C1_1  and  O1_6 
REMARK    2  A    between atoms: C2_2  and  O2_7 
REMARK    3  A    between atoms: C3_3  and  O3_8 
REMARK    4  A    between atoms: C4_4  and  C5_5 
REMARK    5  A    between atoms: C5_5  and  O5_10 
REMARK    6  A    between atoms: O1_6  and  PA_15 
REMARK    7  A    between atoms: O5_10  and  P_11 
REMARK    8  A    between atoms: PA_15  and  O3A_18 
REMARK    9  A    between atoms: O3A_18  and  PB_19 
ROOT
ATOM      1  C1  PRP d   1      10.897  18.908  10.114  0.00  0.00     0.170 C 
ATOM      2  C2  PRP d   1      10.453  18.639   8.698  0.00  0.00     0.110 C 
ATOM      3  C3  PRP d   1       9.112  17.902   8.931  0.00  0.00     0.092 C 
ATOM      4  C4  PRP d   1       9.312  17.142  10.258  0.00  0.00     0.090 C 
ATOM      5  O4  PRP d   1      10.533  17.701  10.786  0.00  0.00    -0.348 OA
ATOM      6  H1  PRP d   1      11.982  19.081  10.178  0.00  0.00     0.134 H 
ATOM      7  H2  PRP d   1      11.144  17.937   8.208  0.00  0.00     0.094 H 
ATOM      8  H3  PRP d   1       8.878  17.215   8.105  0.00  0.00     0.091 H 
ATOM      9  H4  PRP d   1       8.473  17.428  10.909  0.00  0.00     0.090 H 
ENDROOT
BRANCH   1  10
ATOM     10  O1  PRP d   1      10.188  20.070  10.602  0.00  0.00    -0.255 OA
BRANCH  10  11
ATOM     11  PA  PRP d   1      10.536  20.928  11.967  0.00  0.00     0.420 P 
ATOM     12  O1A PRP d   1      11.686  20.268  12.625  0.00  0.00    -0.624 OA
ATOM     13  O2A PRP d   1      10.591  22.359  11.524  0.00  0.00    -0.624 OA
BRANCH  11  14
ATOM     14  O3A PRP d   1       9.186  20.677  12.798  0.00  0.00    -0.173 OA
BRANCH  14  15
ATOM     15  PB  PRP d   1       7.778  21.352  12.373  0.00  0.00     0.431 P 
ATOM     16  O1B PRP d   1       7.936  22.815  12.664  0.00  0.00    -0.616 OA
ATOM     17  O2B PRP d   1       6.714  20.657  13.220  0.00  0.00    -0.616 OA
ATOM     18  O3B PRP d   1       7.522  21.035  10.906  0.00  0.00    -0.616 OA
ENDBRANCH  14  15
ENDBRANCH  11  14
ENDBRANCH  10  11
ENDBRANCH   1  10
BRANCH   2  19
ATOM     19  O2  PRP d   1      10.506  19.881   7.921  0.00  0.00    -0.388 OA
ATOM     20  H7  PRP d   1       9.961  20.538   8.339  0.00  0.00     0.210 HD
ENDBRANCH   2  19
BRANCH   3  21
ATOM     21  O3  PRP d   1       8.060  18.888   9.090  0.00  0.00    -0.390 OA
ATOM     22  H8  PRP d   1       7.939  19.355   8.271  0.00  0.00     0.210 HD
ENDBRANCH   3  21
BRANCH   4  23
ATOM     23  C5  PRP d   1       9.381  15.586  10.332  0.00  0.00     0.059 C 
ATOM     24  H5  PRP d   1      10.167  15.228   9.651  0.00  0.00     0.079 H 
ATOM     25  H6  PRP d   1       8.411  15.168  10.024  0.00  0.00     0.079 H 
BRANCH  23  26
ATOM     26  O5  PRP d   1       9.687  15.135  11.699  0.00  0.00    -0.280 OA
BRANCH  26  27
ATOM     27  P   PRP d   1       8.731  14.431  12.859  0.00  0.00     0.422 P 
ATOM     28  O1P PRP d   1       9.241  13.041  12.917  0.00  0.00    -0.617 OA
ATOM     29  O2P PRP d   1       8.934  14.909  14.304  0.00  0.00    -0.617 OA
ATOM     30  O3P PRP d   1       7.323  14.525  12.305  0.00  0.00    -0.617 OA
ENDBRANCH  26  27
ENDBRANCH  23  26
ENDBRANCH   4  23
TORSDOF 9
