REMARK  15 active torsions:
REMARK  status: ('A' for Active; 'I' for Inactive)
REMARK    1  A    between atoms: C7N_2  and  C3N_4 
REMARK    2  A    between atoms: N1N_9  and  C1M_10 
REMARK    3  A    between atoms: C2M_11  and  O2M_12 
REMARK    4  A    between atoms: C3M_13  and  O3M_14 
REMARK    5  A    between atoms: C4M_16  and  C5M_17 
REMARK    6  A    between atoms: C5M_17  and  O5M_18 
REMARK    7  A    between atoms: O5M_18  and  PN_19 
REMARK    8  A    between atoms: PN_19  and  O3A_22 
REMARK    9  A    between atoms: O3A_22  and  PA_23 
REMARK   10  A    between atoms: PA_23  and  O5B_26 
REMARK   11  A    between atoms: O5B_26  and  C5B_27 
REMARK   12  A    between atoms: C5B_27  and  C4B_28 
REMARK   13  A    between atoms: C3B_29  and  O3B_30 
REMARK   14  A    between atoms: C2B_31  and  O2P_32 
REMARK   15  A    between atoms: C1B_33  and  N9A_35 
ROOT
ATOM      1  O3A NXX d   1     153.763  86.305  70.217  0.00  0.00    -0.180 OA
ENDROOT
BRANCH   1   2
ATOM      2  PN  NXX d   1     153.155  85.307  71.365  0.00  0.00     0.417 P 
ATOM      3  O1N NXX d   1     151.742  84.839  71.105  0.00  0.00    -0.624 OA
ATOM      4  O2N NXX d   1     153.427  85.909  72.726  0.00  0.00    -0.624 OA
BRANCH   2   5
ATOM      5  O5M NXX d   1     154.121  84.034  71.178  0.00  0.00    -0.287 OA
BRANCH   5   6
ATOM      6  C5M NXX d   1     153.826  82.915  70.342  0.00  0.00     0.058 C 
ATOM      7  H11 NXX d   1     152.738  82.801  70.228  0.00  0.00     0.079 H 
ATOM      8  H12 NXX d   1     154.286  83.047  69.352  0.00  0.00     0.079 H 
BRANCH   6   9
ATOM      9  C4M NXX d   1     154.414  81.697  71.038  0.00  0.00     0.089 C 
ATOM     10  C3M NXX d   1     155.890  81.539  70.701  0.00  0.00     0.091 C 
ATOM     11  C2M NXX d   1     156.103  80.037  70.775  0.00  0.00     0.105 C 
ATOM     12  H8  NXX d   1     156.077  81.893  69.676  0.00  0.00     0.091 H 
ATOM     13  C1M NXX d   1     154.781  79.498  70.243  0.00  0.00     0.136 C 
ATOM     14  H6  NXX d   1     156.948  79.725  70.144  0.00  0.00     0.093 H 
ATOM     15  O4M NXX d   1     153.786  80.482  70.609  0.00  0.00    -0.353 OA
ATOM     16  H5  NXX d   1     154.541  78.535  70.717  0.00  0.00     0.122 H 
ATOM     17  H10 NXX d   1     154.288  81.817  72.124  0.00  0.00     0.090 H 
BRANCH  10  18
ATOM     18  O3M NXX d   1     156.752  82.263  71.577  0.00  0.00    -0.390 OA
ATOM     19  H9  NXX d   1     156.593  81.990  72.473  0.00  0.00     0.210 HD
ENDBRANCH  10  18
BRANCH  11  20
ATOM     20  O2M NXX d   1     156.318  79.591  72.120  0.00  0.00    -0.388 OA
ATOM     21  H7  NXX d   1     157.145  79.934  72.438  0.00  0.00     0.210 HD
ENDBRANCH  11  20
BRANCH  13  22
ATOM     22  N1N NXX d   1     154.887  79.298  68.774  0.00  0.00    -0.336 N 
ATOM     23  C6N NXX d   1     155.329  80.300  67.975  0.00  0.00    -0.018 A 
ATOM     24  C5N NXX d   1     155.455  80.158  66.598  0.00  0.00    -0.067 A 
ATOM     25  H3  NXX d   1     155.594  81.249  68.427  0.00  0.00     0.111 H 
ATOM     26  C4N NXX d   1     155.110  78.943  66.033  0.00  0.00    -0.064 A 
ATOM     27  H2  NXX d   1     155.814  80.976  65.984  0.00  0.00     0.085 H 
ATOM     28  C3N NXX d   1     154.651  77.905  66.842  0.00  0.00     0.056 A 
ATOM     29  H1  NXX d   1     155.197  78.799  64.962  0.00  0.00     0.085 H 
ATOM     30  C2N NXX d   1     154.553  78.112  68.228  0.00  0.00    -0.002 A 
ATOM     31  H4  NXX d   1     154.204  77.308  68.866  0.00  0.00     0.113 H 
BRANCH  28  32
ATOM     32  C7N NXX d   1     154.269  76.589  66.194  0.00  0.00     0.210 C 
ATOM     33  O7N NXX d   1     155.157  75.727  65.938  0.00  0.00    -0.644 OA
ATOM     34  O8N NXX d   1     153.057  76.397  65.908  0.00  0.00    -0.644 OA
ENDBRANCH  28  32
ENDBRANCH  13  22
ENDBRANCH   6   9
ENDBRANCH   5   6
ENDBRANCH   2   5
ENDBRANCH   1   2
BRANCH   1  35
ATOM     35  PA  NXX d   1     153.194  86.867  68.791  0.00  0.00     0.417 P 
ATOM     36  O1A NXX d   1     154.252  87.698  68.109  0.00  0.00    -0.624 OA
ATOM     37  O2A NXX d   1     152.610  85.767  67.960  0.00  0.00    -0.624 OA
BRANCH  35  38
ATOM     38  O5B NXX d   1     152.028  87.875  69.252  0.00  0.00    -0.287 OA
BRANCH  38  39
ATOM     39  C5B NXX d   1     152.267  88.827  70.274  0.00  0.00     0.058 C 
ATOM     40  H13 NXX d   1     153.148  88.538  70.867  0.00  0.00     0.079 H 
ATOM     41  H14 NXX d   1     151.391  88.906  70.934  0.00  0.00     0.079 H 
BRANCH  39  42
ATOM     42  C4B NXX d   1     152.518  90.154  69.567  0.00  0.00     0.089 C 
ATOM     43  C3B NXX d   1     153.189  91.171  70.479  0.00  0.00     0.091 C 
ATOM     44  C2B NXX d   1     152.027  91.791  71.223  0.00  0.00     0.105 C 
ATOM     45  H16 NXX d   1     153.916  90.710  71.164  0.00  0.00     0.091 H 
ATOM     46  C1B NXX d   1     150.956  91.815  70.131  0.00  0.00     0.139 C 
ATOM     47  H18 NXX d   1     151.719  91.185  72.088  0.00  0.00     0.093 H 
ATOM     48  O4B NXX d   1     151.283  90.764  69.188  0.00  0.00    -0.353 OA
ATOM     49  H20 NXX d   1     151.038  92.782  69.614  0.00  0.00     0.122 H 
ATOM     50  H15 NXX d   1     153.143  89.973  68.680  0.00  0.00     0.090 H 
BRANCH  43  51
ATOM     51  O3B NXX d   1     153.821  92.149  69.634  0.00  0.00    -0.390 OA
ATOM     52  H17 NXX d   1     154.464  91.720  69.081  0.00  0.00     0.210 HD
ENDBRANCH  43  51
BRANCH  44  53
ATOM     53  O2P NXX d   1     152.360  93.115  71.644  0.00  0.00    -0.388 OA
ATOM     54  H19 NXX d   1     152.562  93.647  70.883  0.00  0.00     0.210 HD
ENDBRANCH  44  53
BRANCH  46  55
ATOM     55  N9A NXX d   1     149.537  91.698  70.595  0.00  0.00    -0.294 N 
ATOM     56  C8A NXX d   1     149.032  90.991  71.632  0.00  0.00     0.071 A 
ATOM     57  N7A NXX d   1     147.687  91.154  71.656  0.00  0.00    -0.236 NA
ATOM     58  H21 NXX d   1     149.611  90.390  72.332  0.00  0.00     0.144 H 
ATOM     59  C5A NXX d   1     147.356  91.981  70.616  0.00  0.00     0.149 A 
ATOM     60  C4A NXX d   1     148.532  92.308  69.950  0.00  0.00     0.167 A 
ATOM     61  C6A NXX d   1     146.159  92.521  70.113  0.00  0.00     0.155 A 
ATOM     62  N3A NXX d   1     148.501  93.122  68.849  0.00  0.00    -0.222 NA
ATOM     63  C2A NXX d   1     147.346  93.624  68.383  0.00  0.00     0.091 A 
ATOM     64  N1A NXX d   1     146.194  93.329  69.010  0.00  0.00    -0.222 NA
ATOM     65  H24 NXX d   1     147.343  94.263  67.507  0.00  0.00     0.146 H 
ATOM     66  N6A NXX d   1     144.967  92.237  70.702  0.00  0.00    -0.382 N 
ATOM     67  H22 NXX d   1     144.097  92.639  70.324  0.00  0.00     0.157 HD
ATOM     68  H23 NXX d   1     144.934  91.620  71.526  0.00  0.00     0.157 HD
ENDBRANCH  46  55
ENDBRANCH  39  42
ENDBRANCH  38  39
ENDBRANCH  35  38
ENDBRANCH   1  35
TORSDOF 15
