REMARK  25 active torsions:
REMARK  status: ('A' for Active; 'I' for Inactive)
REMARK       I    between atoms: C10_2  and  N8_3 
REMARK    1  A    between atoms: C10_2  and  C12_12 
REMARK    2  A    between atoms: N8_3  and  C7_4 
REMARK    3  A    between atoms: C7_4  and  C6_5 
REMARK    4  A    between atoms: C7_4  and  C9_11 
REMARK    5  A    between atoms: C14_14  and  N21_15 
REMARK    6  A    between atoms: N21_15  and  C22_16 
REMARK    7  A    between atoms: N21_15  and  S23_17 
REMARK    8  A    between atoms: S23_17  and  C24_19 
REMARK    9  A    between atoms: C16_23  and  C18_24 
REMARK       I    between atoms: C18_24  and  N29_26 
REMARK   10  A    between atoms: N29_26  and  C30_27 
REMARK   11  A    between atoms: C30_27  and  C31_28 
REMARK   12  A    between atoms: C30_27  and  C41_38 
REMARK   13  A    between atoms: C31_28  and  O32_29 
REMARK   14  A    between atoms: O32_29  and  C33_30 
REMARK   15  A    between atoms: C41_38  and  O42_39 
REMARK   16  A    between atoms: C41_38  and  C43_40 
REMARK   17  A    between atoms: C43_40  and  C44_41 
REMARK       I    between atoms: C44_41  and  N46_43 
REMARK   18  A    between atoms: N46_43  and  C47_44 
REMARK   19  A    between atoms: C47_44  and  C48_45 
REMARK   20  A    between atoms: C47_44  and  C51_48 
REMARK   21  A    between atoms: C48_45  and  C49_46 
REMARK   22  A    between atoms: C48_45  and  C50_47 
REMARK       I    between atoms: C51_48  and  N53_50 
REMARK   23  A    between atoms: N53_50  and  C54_51 
REMARK   24  A    between atoms: C58_53  and  C63_54 
REMARK   25  A    between atoms: C56_58  and  C60_60 
ROOT
ATOM      1  C30 757 d   1      -1.734  15.341  36.183  0.00  0.00     0.058 C 
ATOM      2  H21 757 d   1      -1.294  15.649  37.143  0.00  0.00     0.079 H 
ENDROOT
BRANCH   1   3
ATOM      3  N29 757 d   1      -0.669  15.286  35.202  0.00  0.00    -0.348 N 
ATOM      4  C18 757 d   1       0.647  15.296  35.429  0.00  0.00     0.252 C 
ATOM      5  O19 757 d   1       1.117  15.335  36.557  0.00  0.00    -0.268 OA
ATOM      6  H20 757 d   1      -0.952  15.235  34.244  0.00  0.00     0.163 HD
BRANCH   4   7
ATOM      7  C16 757 d   1       1.587  15.335  34.236  0.00  0.00     0.035 A 
ATOM      8  C15 757 d   1       2.783  14.622  34.157  0.00  0.00    -0.041 A 
ATOM      9  C14 757 d   1       3.614  14.724  33.040  0.00  0.00     0.046 A 
ATOM     10  H18 757 d   1       3.073  13.977  34.978  0.00  0.00     0.088 H 
ATOM     11  C13 757 d   1       3.233  15.589  32.018  0.00  0.00    -0.041 A 
ATOM     12  C12 757 d   1       2.032  16.319  32.075  0.00  0.00     0.035 A 
ATOM     13  H11 757 d   1       3.879  15.703  31.155  0.00  0.00     0.088 H 
ATOM     14  C17 757 d   1       1.229  16.188  33.191  0.00  0.00    -0.052 A 
ATOM     15  H19 757 d   1       0.308  16.756  33.256  0.00  0.00     0.086 H 
BRANCH   9  16
ATOM     16  N21 757 d   1       4.828  14.003  32.971  0.00  0.00    -0.281 N 
BRANCH  16  17
ATOM     17  C22 757 d   1       5.517  13.723  34.222  0.00  0.00    -0.004 C 
ATOM     18  H12 757 d   1       4.924  14.113  35.062  0.00  0.00     0.058 H 
ATOM     19  H13 757 d   1       6.504  14.209  34.214  0.00  0.00     0.058 H 
ATOM     20  H14 757 d   1       5.644  12.636  34.335  0.00  0.00     0.058 H 
ENDBRANCH  16  17
BRANCH  16  21
ATOM     21  S23 757 d   1       5.528  13.520  31.677  0.00  0.00     0.228 S 
ATOM     22  O26 757 d   1       4.605  13.376  30.550  0.00  0.00    -0.206 OA
ATOM     23  O25 757 d   1       6.209  12.274  31.970  0.00  0.00    -0.206 OA
BRANCH  21  24
ATOM     24  C24 757 d   1       6.702  14.635  31.264  0.00  0.00     0.033 C 
ATOM     25  H15 757 d   1       7.211  14.308  30.345  0.00  0.00     0.051 H 
ATOM     26  H16 757 d   1       7.435  14.715  32.080  0.00  0.00     0.051 H 
ATOM     27  H17 757 d   1       6.233  15.615  31.094  0.00  0.00     0.051 H 
ENDBRANCH  21  24
ENDBRANCH  16  21
ENDBRANCH   9  16
BRANCH  12  28
ATOM     28  C10 757 d   1       1.637  17.253  30.956  0.00  0.00     0.252 C 
ATOM     29  O11 757 d   1       2.507  17.716  30.208  0.00  0.00    -0.268 OA
ATOM     30  N8  757 d   1       0.368  17.618  30.788  0.00  0.00    -0.349 N 
ATOM     31  H1  757 d   1      -0.305  17.321  31.465  0.00  0.00     0.163 HD
BRANCH  30  32
ATOM     32  C7  757 d   1      -0.085  18.422  29.677  0.00  0.00     0.034 C 
ATOM     33  H2  757 d   1       0.747  19.045  29.317  0.00  0.00     0.079 H 
BRANCH  32  34
ATOM     34  C6  757 d   1      -0.508  17.506  28.566  0.00  0.00    -0.036 A 
ATOM     35  C5  757 d   1      -1.559  16.591  28.717  0.00  0.00    -0.075 A 
ATOM     36  C4  757 d   1      -1.948  15.749  27.666  0.00  0.00    -0.082 A 
ATOM     37  H3  757 d   1      -2.081  16.533  29.665  0.00  0.00     0.084 H 
ATOM     38  C3  757 d   1      -1.260  15.792  26.443  0.00  0.00    -0.083 A 
ATOM     39  H4  757 d   1      -2.779  15.066  27.797  0.00  0.00     0.083 H 
ATOM     40  C2  757 d   1      -0.194  16.692  26.281  0.00  0.00    -0.082 A 
ATOM     41  H5  757 d   1      -1.549  15.136  25.630  0.00  0.00     0.083 H 
ATOM     42  C1  757 d   1       0.175  17.542  27.332  0.00  0.00    -0.075 A 
ATOM     43  H6  757 d   1       0.344  16.729  25.341  0.00  0.00     0.083 H 
ATOM     44  H7  757 d   1       0.996  18.236  27.195  0.00  0.00     0.084 H 
ENDBRANCH  32  34
BRANCH  32  45
ATOM     45  C9  757 d   1      -1.202  19.342  30.149  0.00  0.00    -0.053 C 
ATOM     46  H8  757 d   1      -1.551  19.957  29.306  0.00  0.00     0.030 H 
ATOM     47  H9  757 d   1      -0.825  19.996  30.949  0.00  0.00     0.030 H 
ATOM     48  H10 757 d   1      -2.037  18.738  30.533  0.00  0.00     0.030 H 
ENDBRANCH  32  45
ENDBRANCH  30  32
ENDBRANCH  12  28
ENDBRANCH   4   7
ENDBRANCH   1   3
BRANCH   1  49
ATOM     49  C31 757 d   1      -2.745  16.392  35.703  0.00  0.00     0.047 C 
ATOM     50  H22 757 d   1      -3.043  16.993  36.575  0.00  0.00     0.078 H 
ATOM     51  H23 757 d   1      -3.622  15.858  35.309  0.00  0.00     0.078 H 
BRANCH  49  52
ATOM     52  O32 757 d   1      -2.289  17.296  34.683  0.00  0.00    -0.349 OA
BRANCH  52  53
ATOM     53  C33 757 d   1      -1.456  18.386  34.869  0.00  0.00     0.074 A 
ATOM     54  C34 757 d   1      -0.908  18.645  36.117  0.00  0.00    -0.013 A 
ATOM     55  C35 757 d   1      -0.054  19.722  36.325  0.00  0.00     0.121 A 
ATOM     56  H24 757 d   1      -1.151  17.993  36.948  0.00  0.00     0.092 H 
ATOM     57  F40 757 d   1       0.433  19.917  37.552  0.00  0.00    -0.206 F 
ATOM     58  C36 757 d   1       0.273  20.587  35.294  0.00  0.00    -0.008 A 
ATOM     59  C37 757 d   1      -0.263  20.347  34.038  0.00  0.00     0.121 A 
ATOM     60  H25 757 d   1       0.932  21.431  35.465  0.00  0.00     0.092 H 
ATOM     61  F39 757 d   1       0.075  21.195  33.040  0.00  0.00    -0.206 F 
ATOM     62  C38 757 d   1      -1.128  19.258  33.822  0.00  0.00    -0.013 A 
ATOM     63  H26 757 d   1      -1.545  19.092  32.835  0.00  0.00     0.092 H 
ENDBRANCH  52  53
ENDBRANCH  49  52
ENDBRANCH   1  49
BRANCH   1  64
ATOM     64  C41 757 d   1      -2.527  14.072  36.414  0.00  0.00     0.065 C 
ATOM     65  H27 757 d   1      -3.461  14.331  36.934  0.00  0.00     0.086 H 
BRANCH  64  66
ATOM     66  O42 757 d   1      -2.859  13.578  35.113  0.00  0.00    -0.393 OA
ATOM     67  H28 757 d   1      -3.361  12.776  35.199  0.00  0.00     0.210 HD
ENDBRANCH  64  66
BRANCH  64  68
ATOM     68  C43 757 d   1      -1.782  13.056  37.306  0.00  0.00     0.035 C 
ATOM     69  H29 757 d   1      -0.766  12.924  36.905  0.00  0.00     0.051 H 
ATOM     70  H30 757 d   1      -2.321  12.098  37.263  0.00  0.00     0.051 H 
BRANCH  68  71
ATOM     71  C44 757 d   1      -1.669  13.481  38.779  0.00  0.00     0.220 C 
ATOM     72  O45 757 d   1      -0.695  14.140  39.113  0.00  0.00    -0.274 OA
ATOM     73  N46 757 d   1      -2.578  13.171  39.735  0.00  0.00    -0.347 N 
ATOM     74  H31 757 d   1      -3.399  12.656  39.489  0.00  0.00     0.163 HD
BRANCH  73  75
ATOM     75  C47 757 d   1      -2.368  13.585  41.132  0.00  0.00     0.092 C 
ATOM     76  H32 757 d   1      -2.171  14.667  41.107  0.00  0.00     0.088 H 
BRANCH  75  77
ATOM     77  C48 757 d   1      -3.466  13.310  42.169  0.00  0.00    -0.033 C 
ATOM     78  H33 757 d   1      -3.090  12.507  42.820  0.00  0.00     0.042 H 
BRANCH  77  79
ATOM     79  C49 757 d   1      -3.666  14.551  43.045  0.00  0.00    -0.071 C 
ATOM     80  H34 757 d   1      -4.453  14.353  43.788  0.00  0.00     0.028 H 
ATOM     81  H35 757 d   1      -3.963  15.401  42.414  0.00  0.00     0.028 H 
ATOM     82  H36 757 d   1      -2.725  14.790  43.563  0.00  0.00     0.028 H 
ENDBRANCH  77  79
BRANCH  77  83
ATOM     83  C50 757 d   1      -4.775  12.815  41.600  0.00  0.00    -0.071 C 
ATOM     84  H37 757 d   1      -4.592  11.926  40.979  0.00  0.00     0.028 H 
ATOM     85  H38 757 d   1      -5.229  13.605  40.984  0.00  0.00     0.028 H 
ATOM     86  H39 757 d   1      -5.457  12.553  42.423  0.00  0.00     0.028 H 
ENDBRANCH  77  83
ENDBRANCH  75  77
BRANCH  75  87
ATOM     87  C51 757 d   1      -1.216  12.866  41.778  0.00  0.00     0.245 C 
ATOM     88  O52 757 d   1      -1.047  11.673  41.584  0.00  0.00    -0.271 OA
ATOM     89  N53 757 d   1      -0.434  13.553  42.620  0.00  0.00    -0.325 N 
ATOM     90  H40 757 d   1      -0.633  14.517  42.797  0.00  0.00     0.169 HD
BRANCH  89  91
ATOM     91  C54 757 d   1       0.605  12.977  43.227  0.00  0.00     0.036 A 
ATOM     92  C59 757 d   1       1.849  13.056  42.632  0.00  0.00    -0.041 A 
ATOM     93  C58 757 d   1       2.964  12.468  43.214  0.00  0.00     0.043 A 
ATOM     94  H41 757 d   1       1.957  13.587  41.693  0.00  0.00     0.088 H 
ATOM     95  C57 757 d   1       2.805  11.783  44.428  0.00  0.00    -0.050 A 
ATOM     96  C56 757 d   1       1.530  11.718  45.007  0.00  0.00     0.043 A 
ATOM     97  H43 757 d   1       3.654  11.312  44.910  0.00  0.00     0.086 H 
ATOM     98  C55 757 d   1       0.434  12.309  44.413  0.00  0.00    -0.041 A 
ATOM     99  H42 757 d   1      -0.545  12.247  44.875  0.00  0.00     0.088 H 
BRANCH  93 100
ATOM    100  C63 757 d   1       4.274  12.614  42.479  0.00  0.00     0.209 C 
ATOM    101  O64 757 d   1       4.342  12.255  41.278  0.00  0.00    -0.644 OA
ATOM    102  O65 757 d   1       5.271  13.125  43.046  0.00  0.00    -0.644 OA
ENDBRANCH  93 100
BRANCH  96 103
ATOM    103  C60 757 d   1       1.254  11.008  46.286  0.00  0.00     0.209 C 
ATOM    104  O62 757 d   1       0.900  11.681  47.285  0.00  0.00    -0.644 OA
ATOM    105  O61 757 d   1       1.350   9.756  46.314  0.00  0.00    -0.644 OA
ENDBRANCH  96 103
ENDBRANCH  89  91
ENDBRANCH  75  87
ENDBRANCH  73  75
ENDBRANCH  68  71
ENDBRANCH  64  68
ENDBRANCH   1  64
TORSDOF 25
