REMARK  5 active torsions:
REMARK  status: ('A' for Active; 'I' for Inactive)
REMARK    1  A    between atoms: CAX_11  and  CAL_12 
REMARK    2  A    between atoms: CAL_12  and  N2_13 
REMARK       I    between atoms: N2_13  and  CAW_14 
REMARK    3  A    between atoms: CAW_14  and  CBB_16 
REMARK    4  A    between atoms: CBG_29  and  CAN_30 
REMARK    5  A    between atoms: CAN_30  and  CAU_31 
REMARK       I    between atoms: CAU_31  and  N5_33 
ROOT
ATOM      1  CBB AXA d   1      10.749  -8.663  27.928  0.00  0.00     0.200 A 
ATOM      2  N3  AXA d   1       9.564  -9.165  27.557  0.00  0.00    -0.217 NA
ATOM      3  N4  AXA d   1      11.840  -8.735  27.056  0.00  0.00    -0.303 N 
ATOM      4  CBD AXA d   1      11.663  -9.295  25.786  0.00  0.00     0.260 A 
ATOM      5  OAE AXA d   1      12.623  -9.356  25.019  0.00  0.00    -0.267 OA
ATOM      6  CBF AXA d   1      10.414  -9.776  25.405  0.00  0.00     0.075 A 
ATOM      7  CBC AXA d   1      10.027 -10.269  24.158  0.00  0.00    -0.022 A 
ATOM      8  CBE AXA d   1       9.384  -9.701  26.342  0.00  0.00     0.116 A 
ATOM      9  SAT AXA d   1       7.974 -10.302  25.582  0.00  0.00    -0.073 SA
ATOM     10  CBA AXA d   1       8.681 -10.624  24.055  0.00  0.00    -0.007 A 
ATOM     11  CAJ AXA d   1       8.004 -11.158  22.791  0.00  0.00    -0.034 C 
ATOM     12  CAI AXA d   1       8.850 -10.846  21.556  0.00  0.00    -0.060 C 
ATOM     13  CAK AXA d   1      10.293 -11.264  21.842  0.00  0.00    -0.057 C 
ATOM     14  CBG AXA d   1      10.907 -10.353  22.906  0.00  0.00    -0.018 C 
ATOM     15  H10 AXA d   1      12.736  -8.390  27.337  0.00  0.00     0.171 HD
ATOM     16  H11 AXA d   1       7.017 -10.685  22.682  0.00  0.00     0.040 H 
ATOM     17  H12 AXA d   1       7.881 -12.248  22.879  0.00  0.00     0.040 H 
ATOM     18  H13 AXA d   1       8.811  -9.768  21.341  0.00  0.00     0.033 H 
ATOM     19  H14 AXA d   1       8.465 -11.406  20.691  0.00  0.00     0.033 H 
ATOM     20  H15 AXA d   1      10.883 -11.190  20.916  0.00  0.00     0.034 H 
ATOM     21  H16 AXA d   1      10.305 -12.303  22.203  0.00  0.00     0.034 H 
ATOM     22  H17 AXA d   1      11.893 -10.750  23.188  0.00  0.00     0.048 H 
ENDROOT
BRANCH   1  23
ATOM     23  CAW AXA d   1      10.834  -7.792  29.181  0.00  0.00     0.287 C 
ATOM     24  N2  AXA d   1       9.678  -7.638  29.821  0.00  0.00    -0.350 N 
ATOM     25  H9  AXA d   1       8.863  -8.095  29.465  0.00  0.00     0.163 HD
ATOM     26  OAD AXA d   1      11.888  -7.245  29.502  0.00  0.00    -0.264 OA
BRANCH  24  27
ATOM     27  CAL AXA d   1       9.561  -6.818  31.035  0.00  0.00     0.019 C 
ATOM     28  H7  AXA d   1       8.689  -7.147  31.619  0.00  0.00     0.071 H 
ATOM     29  H8  AXA d   1      10.471  -6.928  31.643  0.00  0.00     0.071 H 
BRANCH  27  30
ATOM     30  CAX AXA d   1       9.386  -5.352  30.634  0.00  0.00    -0.038 A 
ATOM     31  CAH AXA d   1       9.208  -4.384  31.616  0.00  0.00    -0.047 A 
ATOM     32  CAY AXA d   1       9.047  -3.050  31.261  0.00  0.00     0.069 A 
ATOM     33  H1  AXA d   1       9.195  -4.670  32.661  0.00  0.00     0.088 H 
ATOM     34  N1  AXA d   1       8.855  -2.090  32.261  0.00  0.00    -0.323 N 
ATOM     35  CAZ AXA d   1       9.033  -2.680  29.920  0.00  0.00     0.096 A 
ATOM     36  CAV AXA d   1       8.763  -0.746  31.887  0.00  0.00     0.246 C 
ATOM     37  H2  AXA d   1       8.785  -2.359  33.221  0.00  0.00     0.169 HD
ATOM     38  OAC AXA d   1       8.549   0.125  32.729  0.00  0.00    -0.271 OA
ATOM     39  CAM AXA d   1       8.908  -0.425  30.542  0.00  0.00     0.100 C 
ATOM     40  OAS AXA d   1       8.661  -1.426  29.542  0.00  0.00    -0.340 OA
ATOM     41  H3  AXA d   1       9.945  -0.086  30.405  0.00  0.00     0.089 H 
ATOM     42  H4  AXA d   1       8.220   0.408  30.337  0.00  0.00     0.089 H 
ATOM     43  CAG AXA d   1       9.226  -3.647  28.938  0.00  0.00    -0.048 A 
ATOM     44  CAF AXA d   1       9.402  -4.979  29.294  0.00  0.00    -0.072 A 
ATOM     45  H5  AXA d   1       9.239  -3.361  27.893  0.00  0.00     0.087 H 
ATOM     46  H6  AXA d   1       9.552  -5.729  28.526  0.00  0.00     0.084 H 
ENDBRANCH  27  30
ENDBRANCH  24  27
ENDBRANCH   1  23
BRANCH  14  47
ATOM     47  CAN AXA d   1      11.069  -8.943  22.332  0.00  0.00     0.016 C 
ATOM     48  H18 AXA d   1      11.519  -8.297  23.101  0.00  0.00     0.048 H 
ATOM     49  H19 AXA d   1      10.076  -8.555  22.062  0.00  0.00     0.048 H 
BRANCH  47  50
ATOM     50  CAU AXA d   1      11.961  -8.922  21.088  0.00  0.00     0.215 C 
ATOM     51  OAB AXA d   1      11.627  -8.297  20.083  0.00  0.00    -0.274 OA
ATOM     52  N5  AXA d   1      13.097  -9.606  21.190  0.00  0.00    -0.370 N 
ATOM     53  H20 AXA d   1      13.732  -9.639  20.418  0.00  0.00     0.159 HD
ATOM     54  H21 AXA d   1      13.316 -10.087  22.039  0.00  0.00     0.159 HD
ENDBRANCH  47  50
ENDBRANCH  14  47
TORSDOF 5
