REMARK  14 active torsions:
REMARK  status: ('A' for Active; 'I' for Inactive)
REMARK    1  A    between atoms: N_1  and  CA_2 
REMARK    2  A    between atoms: CA_2  and  C_3 
REMARK    3  A    between atoms: CA_2  and  CB_5 
REMARK       I    between atoms: C_3  and  N_13 
REMARK    4  A    between atoms: CB_5  and  CG_6 
REMARK    5  A    between atoms: CZ_11  and  OH_12 
REMARK    6  A    between atoms: N_13  and  CA_14 
REMARK    7  A    between atoms: CA_14  and  C_15 
REMARK    8  A    between atoms: CA_14  and  CB_17 
REMARK       I    between atoms: C_15  and  N_21 
REMARK    9  A    between atoms: CB_17  and  CG_18 
REMARK   10  A    between atoms: CG_18  and  CD1_19 
REMARK   11  A    between atoms: CG_18  and  CD2_20 
REMARK   12  A    between atoms: N_21  and  CA_22 
REMARK   13  A    between atoms: CA_22  and  C_23 
REMARK   14  A    between atoms: CA_22  and  CB_25 
ROOT
ATOM      1  CA  LEU d   1      20.914  -5.814   9.356  0.00  0.00     0.089 C 
ATOM      2  H13 LEU d   1      21.426  -5.218  10.126  0.00  0.00     0.087 H 
ENDROOT
BRANCH   1   3
ATOM      3  N   LEU d   1      19.753  -6.451   9.977  0.00  0.00    -0.346 N 
ATOM      4  C   TYR d   1      19.064  -5.879  10.958  0.00  0.00     0.249 C 
ATOM      5  O   TYR d   1      19.323  -4.768  11.398  0.00  0.00    -0.271 OA
ATOM      6  H12 LEU d   1      19.467  -7.352   9.650  0.00  0.00     0.163 HD
BRANCH   4   7
ATOM      7  CA  TYR d   1      17.917  -6.682  11.535  0.00  0.00     0.179 C 
ATOM      8  H4  TYR d   1      18.259  -7.712  11.716  0.00  0.00     0.099 H 
BRANCH   7   9
ATOM      9  N   TYR d   1      17.491  -6.082  12.819  0.00  0.00    -0.066 N 
ATOM     10  H1  TYR d   1      16.727  -6.617  13.203  0.00  0.00     0.275 HD
ATOM     11  H2  TYR d   1      17.191  -5.132  12.663  0.00  0.00     0.275 HD
ATOM     12  H3  TYR d   1      18.264  -6.088  13.466  0.00  0.00     0.275 HD
ENDBRANCH   7   9
BRANCH   7  13
ATOM     13  CB  TYR d   1      16.751  -6.718  10.566  0.00  0.00    -0.006 C 
ATOM     14  H5  TYR d   1      17.116  -7.077   9.592  0.00  0.00     0.043 H 
ATOM     15  H6  TYR d   1      16.356  -5.697  10.456  0.00  0.00     0.043 H 
BRANCH  13  16
ATOM     16  CG  TYR d   1      15.627  -7.622  11.020  0.00  0.00    -0.056 A 
ATOM     17  CD1 TYR d   1      14.315  -7.161  11.052  0.00  0.00    -0.074 A 
ATOM     18  CE1 TYR d   1      13.279  -7.988  11.445  0.00  0.00    -0.051 A 
ATOM     19  H7  TYR d   1      14.102  -6.138  10.764  0.00  0.00     0.084 H 
ATOM     20  CZ  TYR d   1      13.551  -9.274  11.853  0.00  0.00     0.065 A 
ATOM     21  H9  TYR d   1      12.258  -7.625  11.432  0.00  0.00     0.087 H 
ATOM     22  CE2 TYR d   1      14.849  -9.754  11.841  0.00  0.00    -0.051 A 
ATOM     23  CD2 TYR d   1      15.880  -8.917  11.435  0.00  0.00    -0.074 A 
ATOM     24  H10 TYR d   1      15.059 -10.773  12.145  0.00  0.00     0.087 H 
ATOM     25  H8  TYR d   1      16.900  -9.284  11.443  0.00  0.00     0.084 H 
BRANCH  20  26
ATOM     26  OH  TYR d   1      12.499 -10.092  12.212  0.00  0.00    -0.361 OA
ATOM     27  H11 TYR d   1      12.630 -10.404  13.100  0.00  0.00     0.217 HD
ENDBRANCH  20  26
ENDBRANCH  13  16
ENDBRANCH   7  13
ENDBRANCH   4   7
ENDBRANCH   1   3
BRANCH   1  28
ATOM     28  C   LEU d   1      20.555  -4.910   8.210  0.00  0.00     0.241 C 
ATOM     29  O   LEU d   1      19.718  -5.233   7.386  0.00  0.00    -0.271 OA
ATOM     30  N   PHE d   1      21.254  -3.783   8.157  0.00  0.00    -0.345 N 
ATOM     31  H23 PHE d   1      21.887  -3.584   8.906  0.00  0.00     0.163 HD
BRANCH  30  32
ATOM     32  CA  PHE d   1      21.151  -2.814   7.064  0.00  0.00     0.093 C 
ATOM     33  H24 PHE d   1      22.020  -2.143   7.136  0.00  0.00     0.089 H 
BRANCH  32  34
ATOM     34  C   PHE d   1      19.898  -1.951   7.163  0.00  0.00     0.196 C 
ATOM     35  O   PHE d   1      19.555  -1.437   8.261  0.00  0.00    -0.646 OA
ATOM     36  O25 PHE d   1      19.197  -1.750   6.135  0.00  0.00    -0.646 OA
ENDBRANCH  32  34
BRANCH  32  37
ATOM     37  CB  PHE d   1      21.213  -3.514   5.714  0.00  0.00    -0.048 C 
ATOM     38  H25 PHE d   1      21.134  -2.768   4.910  0.00  0.00     0.030 H 
ATOM     39  H26 PHE d   1      20.381  -4.229   5.633  0.00  0.00     0.030 H 
ATOM     40  H27 PHE d   1      22.169  -4.051   5.623  0.00  0.00     0.030 H 
ENDBRANCH  32  37
ENDBRANCH  30  32
ENDBRANCH   1  28
BRANCH   1  41
ATOM     41  CB  LEU d   1      21.873  -6.866   8.819  0.00  0.00    -0.035 C 
ATOM     42  H14 LEU d   1      22.387  -6.468   7.932  0.00  0.00     0.037 H 
ATOM     43  H15 LEU d   1      21.304  -7.765   8.540  0.00  0.00     0.037 H 
BRANCH  41  44
ATOM     44  CG  LEU d   1      22.898  -7.231   9.864  0.00  0.00    -0.059 C 
ATOM     45  H16 LEU d   1      23.515  -6.346  10.077  0.00  0.00     0.038 H 
BRANCH  44  46
ATOM     46  CD1 LEU d   1      22.144  -7.582  11.076  0.00  0.00    -0.073 C 
ATOM     47  H17 LEU d   1      22.845  -7.859  11.877  0.00  0.00     0.028 H 
ATOM     48  H18 LEU d   1      21.479  -8.432  10.861  0.00  0.00     0.028 H 
ATOM     49  H19 LEU d   1      21.543  -6.718  11.397  0.00  0.00     0.028 H 
ENDBRANCH  44  46
BRANCH  44  50
ATOM     50  CD2 LEU d   1      23.845  -8.353   9.406  0.00  0.00    -0.073 C 
ATOM     51  H20 LEU d   1      24.380  -8.034   8.499  0.00  0.00     0.028 H 
ATOM     52  H21 LEU d   1      23.261  -9.259   9.188  0.00  0.00     0.028 H 
ATOM     53  H22 LEU d   1      24.572  -8.568  10.203  0.00  0.00     0.028 H 
ENDBRANCH  44  50
ENDBRANCH  41  44
ENDBRANCH   1  41
TORSDOF 14
