REMARK  11 active torsions:
REMARK  status: ('A' for Active; 'I' for Inactive)
REMARK    1  A    between atoms: O3B_8  and  PG_1 
REMARK    2  A    between atoms: PB_5  and  O3B_8 
REMARK    3  A    between atoms: O3A_12  and  PB_5 
REMARK    4  A    between atoms: PA_9  and  O3A_12 
REMARK    5  A    between atoms: PA_9  and  O5'_13 
REMARK    6  A    between atoms: O5'_13  and  C5'_14 
REMARK    7  A    between atoms: C5'_14  and  C4'_15 
REMARK    8  A    between atoms: C3'_17  and  O3'_18 
REMARK    9  A    between atoms: C2'_19  and  O2'_20 
REMARK   10  A    between atoms: C1'_21  and  N9_22 
REMARK   11  A    between atoms: C6_26  and  N6_27 
ROOT
ATOM      1  C4' ATP d   1      -1.653   7.286  52.604  0.00  0.00     0.089 C 
ATOM      2  O4' ATP d   1      -0.988   6.764  53.787  0.00  0.00    -0.353 OA
ATOM      3  C3' ATP d   1      -3.103   6.806  52.725  0.00  0.00     0.091 C 
ATOM      4  C2' ATP d   1      -3.000   5.631  53.677  0.00  0.00     0.105 C 
ATOM      5  C1' ATP d   1      -1.848   5.930  54.597  0.00  0.00     0.139 C 
ATOM      6  H3  ATP d   1      -1.221   6.814  51.709  0.00  0.00     0.090 H 
ATOM      7  H4  ATP d   1      -3.752   7.581  53.159  0.00  0.00     0.091 H 
ATOM      8  H6  ATP d   1      -3.933   5.535  54.251  0.00  0.00     0.093 H 
ATOM      9  H8  ATP d   1      -1.348   4.984  54.854  0.00  0.00     0.122 H 
ENDROOT
BRANCH   1  10
ATOM     10  C5' ATP d   1      -1.402   8.780  52.469  0.00  0.00     0.058 C 
ATOM     11  H1  ATP d   1      -0.322   8.961  52.572  0.00  0.00     0.079 H 
ATOM     12  H2  ATP d   1      -1.734   9.099  51.470  0.00  0.00     0.079 H 
BRANCH  10  13
ATOM     13  O5' ATP d   1      -2.098   9.582  53.461  0.00  0.00    -0.287 OA
BRANCH  13  14
ATOM     14  PA  ATP d   1      -3.304  10.529  53.094  0.00  0.00     0.417 P 
ATOM     15  O1A ATP d   1      -3.597  11.262  54.370  0.00  0.00    -0.624 OA
ATOM     16  O2A ATP d   1      -4.422   9.805  52.515  0.00  0.00    -0.624 OA
BRANCH  14  17
ATOM     17  O3A ATP d   1      -2.617  11.466  51.869  0.00  0.00    -0.180 OA
BRANCH  17  18
ATOM     18  PB  ATP d   1      -2.932  12.645  50.800  0.00  0.00     0.428 P 
ATOM     19  O1B ATP d   1      -1.477  12.636  50.615  0.00  0.00    -0.624 OA
ATOM     20  O2B ATP d   1      -3.839  13.363  51.689  0.00  0.00    -0.624 OA
BRANCH  18  21
ATOM     21  O3B ATP d   1      -3.716  11.589  49.809  0.00  0.00    -0.173 OA
BRANCH  21  22
ATOM     22  PG  ATP d   1      -4.404  12.062  48.356  0.00  0.00     0.431 P 
ATOM     23  O1G ATP d   1      -5.821  11.623  48.287  0.00  0.00    -0.616 OA
ATOM     24  O2G ATP d   1      -3.536  11.443  47.356  0.00  0.00    -0.616 OA
ATOM     25  O3G ATP d   1      -4.348  13.579  48.282  0.00  0.00    -0.616 OA
ENDBRANCH  21  22
ENDBRANCH  18  21
ENDBRANCH  17  18
ENDBRANCH  14  17
ENDBRANCH  13  14
ENDBRANCH  10  13
ENDBRANCH   1  10
BRANCH   3  26
ATOM     26  O3' ATP d   1      -3.562   6.501  51.391  0.00  0.00    -0.390 OA
ATOM     27  H5  ATP d   1      -3.014   5.822  51.016  0.00  0.00     0.210 HD
ENDBRANCH   3  26
BRANCH   5  28
ATOM     28  N9  ATP d   1      -2.127   6.663  55.876  0.00  0.00    -0.294 N 
ATOM     29  C8  ATP d   1      -2.589   7.954  56.100  0.00  0.00     0.071 A 
ATOM     30  N7  ATP d   1      -2.700   8.291  57.352  0.00  0.00    -0.236 NA
ATOM     31  H9  ATP d   1      -2.840   8.634  55.287  0.00  0.00     0.144 H 
ATOM     32  C5  ATP d   1      -2.278   7.135  58.010  0.00  0.00     0.149 A 
ATOM     33  C6  ATP d   1      -2.127   6.802  59.406  0.00  0.00     0.155 A 
ATOM     34  C4  ATP d   1      -1.934   6.126  57.112  0.00  0.00     0.167 A 
ATOM     35  N1  ATP d   1      -1.674   5.541  59.758  0.00  0.00    -0.222 NA
ATOM     36  C2  ATP d   1      -1.374   4.625  58.790  0.00  0.00     0.091 A 
ATOM     37  N3  ATP d   1      -1.468   4.821  57.423  0.00  0.00    -0.222 NA
ATOM     38  H12 ATP d   1      -1.030   3.653  59.124  0.00  0.00     0.146 H 
BRANCH  33  39
ATOM     39  N6  ATP d   1      -2.420   7.710  60.356  0.00  0.00    -0.382 N 
ATOM     40  H10 ATP d   1      -2.311   7.468  61.351  0.00  0.00     0.157 HD
ATOM     41  H11 ATP d   1      -2.753   8.647  60.088  0.00  0.00     0.157 HD
ENDBRANCH  33  39
ENDBRANCH   5  28
BRANCH   4  42
ATOM     42  O2' ATP d   1      -2.746   4.420  52.996  0.00  0.00    -0.388 OA
ATOM     43  H7  ATP d   1      -2.689   3.710  53.625  0.00  0.00     0.210 HD
ENDBRANCH   4  42
TORSDOF 11
