REMARK  12 active torsions:
REMARK  status: ('A' for Active; 'I' for Inactive)
REMARK    1  A    between atoms: O1_1  and  C15_2 
REMARK    2  A    between atoms: C15_2  and  C12_3 
REMARK    3  A    between atoms: C12_3  and  C13_4 
REMARK    4  A    between atoms: C12_3  and  N2_6 
REMARK    5  A    between atoms: C13_4  and  C14_5 
REMARK    6  A    between atoms: N2_6  and  C2_7 
REMARK    7  A    between atoms: C6_9  and  N6_19 
REMARK    8  A    between atoms: C9'_13  and  C9_14 
REMARK    9  A    between atoms: C9_14  and  C10_15 
REMARK   10  A    between atoms: C9_14  and  C11_16 
REMARK   11  A    between atoms: N6_19  and  CA'_20 
REMARK   12  A    between atoms: CA'_20  and  C1'_21 
ROOT
ATOM      1  C2  NNN d   1     -34.118 -17.627 -31.469  0.00  0.00     0.740 A 
ATOM      2  N1  NNN d   1     -33.941 -18.727 -30.709  0.00  0.00     0.130 NA
ATOM      3  C6  NNN d   1     -33.490 -18.645 -29.439  0.00  0.00     0.739 A 
ATOM      4  N5  NNN d   1     -33.209 -17.447 -28.946  0.00  0.00    -0.065 N 
ATOM      5  N7  NNN d   1     -32.734 -17.179 -27.657  0.00  0.00    -0.288 N 
ATOM      6  C8  NNN d   1     -32.593 -15.827 -27.567  0.00  0.00     0.005 A 
ATOM      7  C9' NNN d   1     -32.968 -15.306 -28.792  0.00  0.00     0.011 A 
ATOM      8  C4  NNN d   1     -33.384 -16.388 -29.698  0.00  0.00     0.194 A 
ATOM      9  N3  NNN d   1     -33.831 -16.410 -30.965  0.00  0.00    -0.042 NA
ATOM     10  H11 NNN d   1     -32.531 -17.869 -26.920  0.00  0.00     0.187 HD
ATOM     11  H12 NNN d   1     -32.251 -15.265 -26.699  0.00  0.00     0.114 H 
ENDROOT
BRANCH   1  12
ATOM     12  N2  NNN d   1     -34.571 -17.755 -32.731  0.00  0.00    -0.215 N 
ATOM     13  H10 NNN d   1     -34.760 -18.689 -33.122  0.00  0.00     0.178 HD
BRANCH  12  14
ATOM     14  C12 NNN d   1     -34.792 -16.567 -33.538  0.00  0.00     0.046 C 
ATOM     15  H4  NNN d   1     -34.268 -15.731 -33.052  0.00  0.00     0.076 H 
BRANCH  14  16
ATOM     16  C15 NNN d   1     -34.253 -16.681 -34.968  0.00  0.00     0.036 C 
ATOM     17  H2  NNN d   1     -35.092 -16.570 -35.671  0.00  0.00     0.077 H 
ATOM     18  H3  NNN d   1     -33.525 -15.873 -35.136  0.00  0.00     0.077 H 
BRANCH  16  19
ATOM     19  O1  NNN d   1     -33.607 -17.942 -35.217  0.00  0.00    -0.399 OA
ATOM     20  H1  NNN d   1     -33.291 -17.963 -36.113  0.00  0.00     0.209 HD
ENDBRANCH  16  19
ENDBRANCH  14  16
BRANCH  14  21
ATOM     21  C13 NNN d   1     -36.279 -16.250 -33.568  0.00  0.00    -0.047 C 
ATOM     22  H5  NNN d   1     -36.853 -17.167 -33.368  0.00  0.00     0.035 H 
ATOM     23  H6  NNN d   1     -36.550 -15.857 -34.559  0.00  0.00     0.035 H 
BRANCH  21  24
ATOM     24  C14 NNN d   1     -36.602 -15.206 -32.503  0.00  0.00    -0.075 C 
ATOM     25  H7  NNN d   1     -37.678 -14.979 -32.527  0.00  0.00     0.027 H 
ATOM     26  H8  NNN d   1     -36.029 -14.289 -32.703  0.00  0.00     0.027 H 
ATOM     27  H9  NNN d   1     -36.332 -15.598 -31.511  0.00  0.00     0.027 H 
ENDBRANCH  21  24
ENDBRANCH  14  21
ENDBRANCH  12  14
ENDBRANCH   1  12
BRANCH   3  28
ATOM     28  N6  NNN d   1     -33.326 -19.748 -28.692  0.00  0.00    -0.218 N 
ATOM     29  H20 NNN d   1     -32.774 -19.697 -27.824  0.00  0.00     0.178 HD
BRANCH  28  30
ATOM     30  CA' NNN d   1     -33.915 -21.008 -29.092  0.00  0.00     0.033 C 
ATOM     31  H21 NNN d   1     -34.805 -20.824 -29.712  0.00  0.00     0.072 H 
ATOM     32  H22 NNN d   1     -34.202 -21.585 -28.201  0.00  0.00     0.072 H 
BRANCH  30  33
ATOM     33  C1' NNN d   1     -32.893 -21.768 -29.882  0.00  0.00    -0.040 A 
ATOM     34  C6' NNN d   1     -31.759 -22.244 -29.249  0.00  0.00    -0.075 A 
ATOM     35  C5' NNN d   1     -30.802 -22.938 -29.973  0.00  0.00    -0.082 A 
ATOM     36  H23 NNN d   1     -31.619 -22.075 -28.188  0.00  0.00     0.084 H 
ATOM     37  C4' NNN d   1     -30.980 -23.149 -31.336  0.00  0.00    -0.083 A 
ATOM     38  H24 NNN d   1     -29.915 -23.316 -29.477  0.00  0.00     0.083 H 
ATOM     39  C3' NNN d   1     -32.120 -22.669 -31.975  0.00  0.00    -0.082 A 
ATOM     40  H25 NNN d   1     -30.229 -23.689 -31.902  0.00  0.00     0.083 H 
ATOM     41  C2' NNN d   1     -33.080 -21.972 -31.240  0.00  0.00    -0.075 A 
ATOM     42  H26 NNN d   1     -32.261 -22.836 -33.037  0.00  0.00     0.083 H 
ATOM     43  H27 NNN d   1     -33.969 -21.591 -31.730  0.00  0.00     0.084 H 
ENDBRANCH  30  33
ENDBRANCH  28  30
ENDBRANCH   3  28
BRANCH   7  44
ATOM     44  C9  NNN d   1     -32.970 -13.859 -29.091  0.00  0.00    -0.030 C 
ATOM     45  H13 NNN d   1     -32.448 -13.346 -28.269  0.00  0.00     0.046 H 
BRANCH  44  46
ATOM     46  C10 NNN d   1     -32.231 -13.520 -30.381  0.00  0.00    -0.069 C 
ATOM     47  H14 NNN d   1     -32.267 -12.434 -30.549  0.00  0.00     0.028 H 
ATOM     48  H15 NNN d   1     -32.710 -14.038 -31.225  0.00  0.00     0.028 H 
ATOM     49  H16 NNN d   1     -31.183 -13.844 -30.299  0.00  0.00     0.028 H 
ENDBRANCH  44  46
BRANCH  44  50
ATOM     50  C11 NNN d   1     -34.400 -13.354 -29.127  0.00  0.00    -0.069 C 
ATOM     51  H17 NNN d   1     -34.904 -13.614 -28.185  0.00  0.00     0.028 H 
ATOM     52  H18 NNN d   1     -34.933 -13.821 -29.969  0.00  0.00     0.028 H 
ATOM     53  H19 NNN d   1     -34.400 -12.261 -29.254  0.00  0.00     0.028 H 
ENDBRANCH  44  50
ENDBRANCH   7  44
TORSDOF 12
