REMARK  24 active torsions:
REMARK  status: ('A' for Active; 'I' for Inactive)
REMARK    1  A    between atoms: N_1  and  CA_2 
REMARK    2  A    between atoms: CA_2  and  C_3 
REMARK    3  A    between atoms: CA_2  and  CB_5 
REMARK       I    between atoms: C_3  and  N_9 
REMARK    4  A    between atoms: CB_5  and  CG_6 
REMARK    5  A    between atoms: N_9  and  CA_10 
REMARK    6  A    between atoms: CA_10  and  C_11 
REMARK    7  A    between atoms: CA_10  and  CB_13 
REMARK       I    between atoms: C_11  and  N_23 
REMARK    8  A    between atoms: CB_13  and  CG_14 
REMARK    9  A    between atoms: N_23  and  CA_24 
REMARK   10  A    between atoms: CA_24  and  C_25 
REMARK   11  A    between atoms: CA_24  and  CB_27 
REMARK       I    between atoms: C_25  and  N_31 
REMARK   12  A    between atoms: CB_27  and  CG_28 
REMARK   13  A    between atoms: N_31  and  CA_32 
REMARK   14  A    between atoms: CA_32  and  C_33 
REMARK   15  A    between atoms: CA_32  and  CB_35 
REMARK       I    between atoms: C_33  and  N_42 
REMARK   16  A    between atoms: CB_35  and  CG_36 
REMARK   17  A    between atoms: N_42  and  CA_43 
REMARK   18  A    between atoms: CA_43  and  C_44 
REMARK   19  A    between atoms: CA_43  and  CB_46 
REMARK       I    between atoms: C_44  and  N_50 
REMARK   20  A    between atoms: CB_46  and  CG_47 
REMARK   21  A    between atoms: CG_47  and  CD1_48 
REMARK   22  A    between atoms: CG_47  and  CD2_49 
REMARK   23  A    between atoms: CA_51  and  C_52 
REMARK       I    between atoms: C_52  and  N_57 
REMARK   24  A    between atoms: CA_58  and  C_59 
REMARK       I    between atoms: C_59  and  N_64 
ROOT
ATOM      1  CA  PHE d   1       0.192  10.947  38.472  0.00  0.00     0.093 C 
ATOM      2  H22 PHE d   1      -0.531  11.744  38.245  0.00  0.00     0.088 H 
ENDROOT
BRANCH   1   3
ATOM      3  N   PHE d   1       0.349  10.111  37.288  0.00  0.00    -0.346 N 
ATOM      4  C   ASP d   1       0.265  10.621  36.066  0.00  0.00     0.241 C 
ATOM      5  O   ASP d   1       0.047  11.811  35.859  0.00  0.00    -0.271 OA
ATOM      6  H21 PHE d   1       0.524   9.133  37.399  0.00  0.00     0.163 HD
BRANCH   4   7
ATOM      7  CA  ASP d   1       0.442   9.647  34.904  0.00  0.00     0.098 C 
ATOM      8  H18 ASP d   1       0.489   8.621  35.298  0.00  0.00     0.088 H 
BRANCH   7   9
ATOM      9  N   ASP d   1      -0.695   9.764  34.006  0.00  0.00    -0.345 N 
ATOM     10  C   TRP d   1      -1.712   8.914  34.052  0.00  0.00     0.241 C 
ATOM     11  O   TRP d   1      -1.746   7.950  34.815  0.00  0.00    -0.271 OA
ATOM     12  H17 ASP d   1      -0.711  10.506  33.335  0.00  0.00     0.163 HD
BRANCH  10  13
ATOM     13  CA  TRP d   1      -2.866   9.207  33.105  0.00  0.00     0.093 C 
ATOM     14  H8  TRP d   1      -2.527   9.923  32.342  0.00  0.00     0.088 H 
BRANCH  13  15
ATOM     15  N   TRP d   1      -3.312   7.993  32.433  0.00  0.00    -0.346 N 
ATOM     16  C   ASP d   1      -2.738   7.561  31.314  0.00  0.00     0.249 C 
ATOM     17  O   ASP d   1      -1.828   8.168  30.750  0.00  0.00    -0.271 OA
ATOM     18  H7  TRP d   1      -4.070   7.471  32.824  0.00  0.00     0.163 HD
BRANCH  16  19
ATOM     19  CA  ASP d   1      -3.267   6.245  30.747  0.00  0.00     0.185 C 
ATOM     20  H4  ASP d   1      -2.545   5.860  30.012  0.00  0.00     0.100 H 
BRANCH  19  21
ATOM     21  N   ASP d   1      -3.418   5.264  31.816  0.00  0.00    -0.066 N 
ATOM     22  H1  ASP d   1      -3.767   4.400  31.432  0.00  0.00     0.275 HD
ATOM     23  H2  ASP d   1      -4.067   5.613  32.503  0.00  0.00     0.275 HD
ATOM     24  H3  ASP d   1      -2.524   5.101  32.251  0.00  0.00     0.275 HD
ENDBRANCH  19  21
BRANCH  19  25
ATOM     25  CB  ASP d   1      -4.608   6.472  30.047  0.00  0.00     0.050 C 
ATOM     26  H5  ASP d   1      -5.217   7.148  30.665  0.00  0.00     0.052 H 
ATOM     27  H6  ASP d   1      -5.121   5.504  29.947  0.00  0.00     0.052 H 
BRANCH  25  28
ATOM     28  CG  ASP d   1      -4.452   7.083  28.667  0.00  0.00     0.175 C 
ATOM     29  OD1 ASP d   1      -3.351   6.981  28.083  0.00  0.00    -0.648 OA
ATOM     30  OD2 ASP d   1      -5.438   7.658  28.163  0.00  0.00    -0.648 OA
ENDBRANCH  25  28
ENDBRANCH  19  25
ENDBRANCH  16  19
ENDBRANCH  13  15
BRANCH  13  31
ATOM     31  CB  TRP d   1      -4.007   9.837  33.904  0.00  0.00    -0.012 C 
ATOM     32  H9  TRP d   1      -3.587  10.640  34.527  0.00  0.00     0.044 H 
ATOM     33  H10 TRP d   1      -4.443   9.061  34.550  0.00  0.00     0.044 H 
BRANCH  31  34
ATOM     34  CG  TRP d   1      -5.100  10.417  33.071  0.00  0.00    -0.028 A 
ATOM     35  CD1 TRP d   1      -6.208   9.769  32.611  0.00  0.00    -0.015 A 
ATOM     36  NE1 TRP d   1      -6.994  10.626  31.885  0.00  0.00    -0.365 N 
ATOM     37  H11 TRP d   1      -6.436   8.720  32.794  0.00  0.00     0.112 H 
ATOM     38  CE2 TRP d   1      -6.395  11.870  31.867  0.00  0.00     0.042 A 
ATOM     39  H12 TRP d   1      -7.884  10.382  31.428  0.00  0.00     0.165 HD
ATOM     40  CD2 TRP d   1      -5.207  11.764  32.607  0.00  0.00    -0.002 A 
ATOM     41  CZ2 TRP d   1      -6.812  13.049  31.263  0.00  0.00    -0.056 A 
ATOM     42  CE3 TRP d   1      -4.402  12.906  32.745  0.00  0.00    -0.070 A 
ATOM     43  CZ3 TRP d   1      -4.812  14.083  32.146  0.00  0.00    -0.082 A 
ATOM     44  H13 TRP d   1      -3.478  12.866  33.310  0.00  0.00     0.084 H 
ATOM     45  CH2 TRP d   1      -6.006  14.146  31.414  0.00  0.00    -0.081 A 
ATOM     46  H15 TRP d   1      -4.200  14.972  32.244  0.00  0.00     0.083 H 
ATOM     47  H16 TRP d   1      -6.298  15.085  30.957  0.00  0.00     0.083 H 
ATOM     48  H14 TRP d   1      -7.735  13.099  30.697  0.00  0.00     0.086 H 
ENDBRANCH  31  34
ENDBRANCH  13  31
ENDBRANCH  10  13
ENDBRANCH   7   9
BRANCH   7  49
ATOM     49  CB  ASP d   1       1.736   9.947  34.144  0.00  0.00     0.043 C 
ATOM     50  H19 ASP d   1       1.893  11.036  34.134  0.00  0.00     0.052 H 
ATOM     51  H20 ASP d   1       1.630   9.582  33.112  0.00  0.00     0.052 H 
BRANCH  49  52
ATOM     52  CG  ASP d   1       2.951   9.287  34.769  0.00  0.00     0.175 C 
ATOM     53  OD1 ASP d   1       3.149   9.424  35.996  0.00  0.00    -0.648 OA
ATOM     54  OD2 ASP d   1       3.714   8.634  34.025  0.00  0.00    -0.648 OA
ENDBRANCH  49  52
ENDBRANCH   7  49
ENDBRANCH   4   7
ENDBRANCH   1   3
BRANCH   1  55
ATOM     55  C   PHE d   1       1.521  11.594  38.841  0.00  0.00     0.241 C 
ATOM     56  O   PHE d   1       2.554  10.929  38.885  0.00  0.00    -0.271 OA
ATOM     57  N   LEU d   1       1.487  12.897  39.102  0.00  0.00    -0.346 N 
ATOM     58  H30 LEU d   1       0.602  13.359  39.165  0.00  0.00     0.163 HD
BRANCH  57  59
ATOM     59  CA  LEU d   1       2.706  13.668  39.299  0.00  0.00     0.090 C 
ATOM     60  H31 LEU d   1       3.522  12.977  39.558  0.00  0.00     0.087 H 
BRANCH  59  61
ATOM     61  C   LEU d   1       2.549  14.685  40.426  0.00  0.00     0.243 C 
ATOM     62  O   LEU d   1       1.923  15.726  40.237  0.00  0.00    -0.271 OA
ATOM     63  N   PRO d   1       3.123  14.390  41.606  0.00  0.00    -0.337 N 
ATOM     64  CA  PRO d   1       3.845  13.152  41.919  0.00  0.00     0.092 C 
ATOM     65  CD  PRO d   1       3.169  15.340  42.727  0.00  0.00    -0.001 C 
ATOM     66  CB  PRO d   1       4.583  13.488  43.226  0.00  0.00    -0.036 C 
ATOM     67  H41 PRO d   1       4.550  12.892  41.116  0.00  0.00     0.087 H 
ATOM     68  CG  PRO d   1       4.434  14.969  43.418  0.00  0.00    -0.048 C 
ATOM     69  H42 PRO d   1       5.646  13.219  43.144  0.00  0.00     0.036 H 
ATOM     70  H43 PRO d   1       4.131  12.946  44.070  0.00  0.00     0.036 H 
ATOM     71  H44 PRO d   1       5.286  15.501  42.970  0.00  0.00     0.035 H 
ATOM     72  H45 PRO d   1       4.372  15.213  44.489  0.00  0.00     0.035 H 
ATOM     73  H46 PRO d   1       2.302  15.212  43.391  0.00  0.00     0.064 H 
ATOM     74  H47 PRO d   1       3.204  16.378  42.366  0.00  0.00     0.064 H 
BRANCH  64  75
ATOM     75  C   PRO d   1       2.882  11.999  42.154  0.00  0.00     0.243 C 
ATOM     76  O   PRO d   1       1.720  12.241  42.482  0.00  0.00    -0.271 OA
ATOM     77  N   PRO d   1       3.357  10.756  41.991  0.00  0.00    -0.337 N 
ATOM     78  CA  PRO d   1       2.512   9.580  42.225  0.00  0.00     0.091 C 
ATOM     79  CD  PRO d   1       4.709  10.388  41.538  0.00  0.00    -0.001 C 
ATOM     80  CB  PRO d   1       3.485   8.409  42.044  0.00  0.00    -0.036 C 
ATOM     81  H48 PRO d   1       1.699   9.534  41.485  0.00  0.00     0.087 H 
ATOM     82  CG  PRO d   1       4.564   8.943  41.165  0.00  0.00    -0.048 C 
ATOM     83  H49 PRO d   1       2.981   7.557  41.565  0.00  0.00     0.036 H 
ATOM     84  H50 PRO d   1       3.896   8.093  43.014  0.00  0.00     0.036 H 
ATOM     85  H51 PRO d   1       4.280   8.846  40.107  0.00  0.00     0.035 H 
ATOM     86  H52 PRO d   1       5.506   8.404  41.343  0.00  0.00     0.035 H 
ATOM     87  H53 PRO d   1       5.444  10.515  42.346  0.00  0.00     0.064 H 
ATOM     88  H54 PRO d   1       5.012  10.991  40.669  0.00  0.00     0.064 H 
BRANCH  78  89
ATOM     89  C   PRO d   1       1.912   9.570  43.631  0.00  0.00     0.238 C 
ATOM     90  O   PRO d   1       0.699   9.387  43.757  0.00  0.00    -0.271 OA
ATOM     91  N   NH2 d   1       2.612  10.061  44.652  0.00  0.00    -0.368 N 
ATOM     92  H55 NH2 d   1       2.223  10.056  45.573  0.00  0.00     0.159 HD
ATOM     93  H56 NH2 d   1       3.527  10.434  44.498  0.00  0.00     0.159 HD
ENDBRANCH  78  89
ENDBRANCH  64  75
ENDBRANCH  59  61
BRANCH  59  94
ATOM     94  CB  LEU d   1       3.061  14.400  38.004  0.00  0.00    -0.035 C 
ATOM     95  H32 LEU d   1       2.504  15.348  37.990  0.00  0.00     0.037 H 
ATOM     96  H33 LEU d   1       2.736  13.771  37.162  0.00  0.00     0.037 H 
BRANCH  94  97
ATOM     97  CG  LEU d   1       4.538  14.724  37.801  0.00  0.00    -0.059 C 
ATOM     98  H34 LEU d   1       4.963  15.050  38.762  0.00  0.00     0.038 H 
BRANCH  97  99
ATOM     99  CD1 LEU d   1       5.279  13.484  37.337  0.00  0.00    -0.073 C 
ATOM    100  H35 LEU d   1       6.343  13.725  37.193  0.00  0.00     0.028 H 
ATOM    101  H36 LEU d   1       4.850  13.135  36.386  0.00  0.00     0.028 H 
ATOM    102  H37 LEU d   1       5.182  12.693  38.096  0.00  0.00     0.028 H 
ENDBRANCH  97  99
BRANCH  97 103
ATOM    103  CD2 LEU d   1       4.703  15.845  36.797  0.00  0.00    -0.073 C 
ATOM    104  H38 LEU d   1       4.160  16.735  37.149  0.00  0.00     0.028 H 
ATOM    105  H39 LEU d   1       4.298  15.529  35.825  0.00  0.00     0.028 H 
ATOM    106  H40 LEU d   1       5.771  16.086  36.688  0.00  0.00     0.028 H 
ENDBRANCH  97 103
ENDBRANCH  94  97
ENDBRANCH  59  94
ENDBRANCH  57  59
ENDBRANCH   1  55
BRANCH   1 107
ATOM    107  CB  PHE d   1      -0.353  10.118  39.633  0.00  0.00    -0.014 C 
ATOM    108  H23 PHE d   1      -0.400  10.758  40.526  0.00  0.00     0.043 H 
ATOM    109  H24 PHE d   1       0.337   9.281  39.817  0.00  0.00     0.043 H 
BRANCH 107 110
ATOM    110  CG  PHE d   1      -1.723   9.558  39.377  0.00  0.00    -0.056 A 
ATOM    111  CD1 PHE d   1      -1.905   8.527  38.468  0.00  0.00    -0.077 A 
ATOM    112  CE1 PHE d   1      -3.164   8.012  38.223  0.00  0.00    -0.082 A 
ATOM    113  H25 PHE d   1      -1.049   8.120  37.943  0.00  0.00     0.084 H 
ATOM    114  CZ  PHE d   1      -4.259   8.526  38.888  0.00  0.00    -0.083 A 
ATOM    115  H27 PHE d   1      -3.291   7.206  37.510  0.00  0.00     0.083 H 
ATOM    116  CE2 PHE d   1      -4.091   9.557  39.797  0.00  0.00    -0.082 A 
ATOM    117  H29 PHE d   1      -5.248   8.124  38.699  0.00  0.00     0.083 H 
ATOM    118  CD2 PHE d   1      -2.829  10.068  40.036  0.00  0.00    -0.077 A 
ATOM    119  H28 PHE d   1      -4.949   9.963  40.321  0.00  0.00     0.083 H 
ATOM    120  H26 PHE d   1      -2.704  10.877  40.747  0.00  0.00     0.084 H 
ENDBRANCH 107 110
ENDBRANCH   1 107
TORSDOF 24
