REMARK  7 active torsions:
REMARK  status: ('A' for Active; 'I' for Inactive)
REMARK    1  A    between atoms: CAA_1  and  OAO_2 
REMARK    2  A    between atoms: OAO_2  and  CAR_3 
REMARK    3  A    between atoms: CAV_8  and  CAP_9 
REMARK       I    between atoms: CAP_9  and  NAN_11 
REMARK    4  A    between atoms: NAM_12  and  CAG_13 
REMARK    5  A    between atoms: CAG_13  and  CAS_14 
REMARK    6  A    between atoms: CAT_18  and  OAC_19 
REMARK    7  A    between atoms: CAU_22  and  OAD_23 
ROOT
ATOM      1  CAP 2RB d   1     -15.801  16.753  12.432  0.00  0.00     0.294 C 
ATOM      2  OAB 2RB d   1     -15.824  17.748  13.156  0.00  0.00    -0.264 OA
ATOM      3  NAN 2RB d   1     -14.705  16.283  11.838  0.00  0.00    -0.111 NA
ATOM      4  NAM 2RB d   1     -13.622  16.855  11.972  0.00  0.00    -0.185 NA
ENDROOT
BRANCH   1   5
ATOM      5  CAV 2RB d   1     -17.096  15.968  12.213  0.00  0.00     0.035 A 
ATOM      6  CAK 2RB d   1     -17.096  14.672  11.710  0.00  0.00    -0.065 A 
ATOM      7  CAI 2RB d   1     -18.299  13.985  11.586  0.00  0.00    -0.050 A 
ATOM      8  H5  2RB d   1     -16.165  14.200  11.417  0.00  0.00     0.085 H 
ATOM      9  CAR 2RB d   1     -19.496  14.588  11.958  0.00  0.00     0.068 A 
ATOM     10  H4  2RB d   1     -18.304  12.973  11.197  0.00  0.00     0.087 H 
ATOM     11  CAH 2RB d   1     -19.493  15.888  12.452  0.00  0.00    -0.050 A 
ATOM     12  CAJ 2RB d   1     -18.292  16.575  12.578  0.00  0.00    -0.065 A 
ATOM     13  H6  2RB d   1     -20.424  16.363  12.738  0.00  0.00     0.087 H 
ATOM     14  H7  2RB d   1     -18.288  17.588  12.963  0.00  0.00     0.085 H 
BRANCH   9  15
ATOM     15  OAO 2RB d   1     -20.673  13.916  11.850  0.00  0.00    -0.356 OA
BRANCH  15  16
ATOM     16  CAA 2RB d   1     -21.733  14.838  11.575  0.00  0.00     0.010 C 
ATOM     17  H1  2RB d   1     -22.683  14.290  11.489  0.00  0.00     0.066 H 
ATOM     18  H2  2RB d   1     -21.526  15.364  10.631  0.00  0.00     0.066 H 
ATOM     19  H3  2RB d   1     -21.805  15.569  12.394  0.00  0.00     0.066 H 
ENDBRANCH  15  16
ENDBRANCH   9  15
ENDBRANCH   1   5
BRANCH   4  20
ATOM     20  CAG 2RB d   1     -13.544  17.952  12.705  0.00  0.00     0.061 C 
ATOM     21  H8  2RB d   1     -13.918  17.675  13.702  0.00  0.00     0.077 H 
ATOM     22  H9  2RB d   1     -14.233  18.673  12.242  0.00  0.00     0.077 H 
BRANCH  20  23
ATOM     23  CAS 2RB d   1     -12.358  18.644  12.922  0.00  0.00    -0.001 A 
ATOM     24  CAL 2RB d   1     -11.142  18.144  12.467  0.00  0.00    -0.053 A 
ATOM     25  CAQ 2RB d   1      -9.961  18.789  12.818  0.00  0.00     0.046 A 
ATOM     26  H10 2RB d   1     -11.115  17.258  11.843  0.00  0.00     0.086 H 
ATOM     27 BRAE 2RB d   1      -8.282  18.088  12.292  0.00  0.00    -0.048 Br
ATOM     28  CAT 2RB d   1      -9.988  19.930  13.611  0.00  0.00     0.103 A 
ATOM     29  CAW 2RB d   1     -11.205  20.435  14.054  0.00  0.00     0.079 A 
ATOM     30 BRAF 2RB d   1     -11.234  22.001  15.120  0.00  0.00    -0.045 Br
ATOM     31  CAU 2RB d   1     -12.388  19.792  13.708  0.00  0.00     0.093 A 
BRANCH  28  32
ATOM     32  OAC 2RB d   1      -8.825  20.535  13.973  0.00  0.00    -0.358 OA
ATOM     33  H11 2RB d   1      -9.018  21.295  14.510  0.00  0.00     0.217 HD
ENDBRANCH  28  32
BRANCH  31  34
ATOM     34  OAD 2RB d   1     -13.580  20.300  14.121  0.00  0.00    -0.359 OA
ATOM     35  H12 2RB d   1     -14.285  19.748  13.804  0.00  0.00     0.217 HD
ENDBRANCH  31  34
ENDBRANCH  20  23
ENDBRANCH   4  20
TORSDOF 7
