REMARK  5 active torsions:
REMARK  status: ('A' for Active; 'I' for Inactive)
REMARK    1  A    between atoms: CAU_7  and  CAO_8 
REMARK       I    between atoms: CAO_8  and  NAN_10 
REMARK    2  A    between atoms: NAM_11  and  CAG_12 
REMARK    3  A    between atoms: CAG_12  and  CAT_13 
REMARK    4  A    between atoms: CAR_17  and  OAB_18 
REMARK    5  A    between atoms: CAS_21  and  OAC_22 
ROOT
ATOM      1  CAG 4BE d   1      13.429  17.794 -12.482  0.00  0.00     0.061 C 
ATOM      2  H5  4BE d   1      13.795  17.532 -13.486  0.00  0.00     0.077 H 
ATOM      3  H6  4BE d   1      14.141  18.480 -11.999  0.00  0.00     0.077 H 
ENDROOT
BRANCH   1   4
ATOM      4  NAM 4BE d   1      13.494  16.676 -11.784  0.00  0.00    -0.185 NA
ATOM      5  NAN 4BE d   1      14.596  16.130 -11.706  0.00  0.00    -0.111 NA
ATOM      6  CAO 4BE d   1      15.627  16.692 -12.333  0.00  0.00     0.294 C 
ATOM      7  OAA 4BE d   1      15.541  17.701 -13.032  0.00  0.00    -0.264 OA
BRANCH   6   8
ATOM      8  CAU 4BE d   1      16.990  16.016 -12.207  0.00  0.00     0.035 A 
ATOM      9  CAJ 4BE d   1      17.166  14.795 -11.567  0.00  0.00    -0.066 A 
ATOM     10  CAH 4BE d   1      18.452  14.282 -11.428  0.00  0.00    -0.065 A 
ATOM     11  H1  4BE d   1      16.312  14.249 -11.181  0.00  0.00     0.085 H 
ATOM     12  CAP 4BE d   1      19.540  14.991 -11.922  0.00  0.00     0.011 A 
ATOM     13  H2  4BE d   1      18.605  13.329 -10.934  0.00  0.00     0.085 H 
ATOM     14 BRAD 4BE d   1      21.315  14.405 -11.625  0.00  0.00    -0.051 Br
ATOM     15  CAI 4BE d   1      19.362  16.206 -12.572  0.00  0.00    -0.065 A 
ATOM     16  CAK 4BE d   1      18.077  16.714 -12.711  0.00  0.00    -0.066 A 
ATOM     17  H3  4BE d   1      20.214  16.750 -12.965  0.00  0.00     0.085 H 
ATOM     18  H4  4BE d   1      17.923  17.661 -13.216  0.00  0.00     0.085 H 
ENDBRANCH   6   8
ENDBRANCH   1   4
BRANCH   1  19
ATOM     19  CAT 4BE d   1      12.283  18.546 -12.695  0.00  0.00    -0.001 A 
ATOM     20  CAL 4BE d   1      11.037  18.098 -12.273  0.00  0.00    -0.053 A 
ATOM     21  CAQ 4BE d   1       9.903  18.815 -12.633  0.00  0.00     0.046 A 
ATOM     22  H7  4BE d   1      10.951  17.201 -11.671  0.00  0.00     0.086 H 
ATOM     23 BRAE 4BE d   1       8.186  18.207 -12.118  0.00  0.00    -0.048 Br
ATOM     24  CAR 4BE d   1      10.005  19.967 -13.402  0.00  0.00     0.103 A 
ATOM     25  CAV 4BE d   1      11.256  20.417 -13.808  0.00  0.00     0.079 A 
ATOM     26 BRAF 4BE d   1      11.413  21.985 -14.857  0.00  0.00    -0.045 Br
ATOM     27  CAS 4BE d   1      12.395  19.707 -13.453  0.00  0.00     0.093 A 
BRANCH  24  28
ATOM     28  OAB 4BE d   1       8.883  20.623 -13.803  0.00  0.00    -0.358 OA
ATOM     29  H8  4BE d   1       9.129  21.384 -14.316  0.00  0.00     0.217 HD
ENDBRANCH  24  28
BRANCH  27  30
ATOM     30  OAC 4BE d   1      13.617  20.159 -13.841  0.00  0.00    -0.359 OA
ATOM     31  H9  4BE d   1      14.288  19.567 -13.522  0.00  0.00     0.217 HD
ENDBRANCH  27  30
ENDBRANCH   1  19
TORSDOF 5
