REMARK  9 active torsions:
REMARK  status: ('A' for Active; 'I' for Inactive)
REMARK    1  A    between atoms: CAA_1  and  CAY_2 
REMARK    2  A    between atoms: CAY_2  and  CAB_3 
REMARK    3  A    between atoms: CAY_2  and  CAC_4 
REMARK    4  A    between atoms: CAY_2  and  CAW_5 
REMARK    5  A    between atoms: CAS_10  and  CAQ_11 
REMARK       I    between atoms: CAQ_11  and  NAP_13 
REMARK    6  A    between atoms: NAO_14  and  CAI_15 
REMARK    7  A    between atoms: CAI_15  and  CAT_16 
REMARK    8  A    between atoms: CAU_20  and  OAE_21 
REMARK    9  A    between atoms: CAV_24  and  OAF_25 
ROOT
ATOM      1  CAW 4BB d   1     -19.034  15.180  11.759  0.00  0.00    -0.051 A 
ATOM      2  CAM 4BB d   1     -17.880  14.422  11.683  0.00  0.00    -0.075 A 
ATOM      3  CAK 4BB d   1     -16.640  14.998  11.888  0.00  0.00    -0.067 A 
ATOM      4  CAL 4BB d   1     -18.965  16.528  12.041  0.00  0.00    -0.075 A 
ATOM      5  CAJ 4BB d   1     -17.719  17.106  12.251  0.00  0.00    -0.067 A 
ATOM      6  CAS 4BB d   1     -16.562  16.346  12.174  0.00  0.00     0.035 A 
ATOM      7  H10 4BB d   1     -17.948  13.363  11.460  0.00  0.00     0.084 H 
ATOM      8  H11 4BB d   1     -15.739  14.398  11.825  0.00  0.00     0.085 H 
ATOM      9  H12 4BB d   1     -19.867  17.126  12.098  0.00  0.00     0.084 H 
ATOM     10  H13 4BB d   1     -17.651  18.164  12.478  0.00  0.00     0.085 H 
ENDROOT
BRANCH   6  11
ATOM     11  CAQ 4BB d   1     -15.223  17.032  12.416  0.00  0.00     0.294 C 
ATOM     12  OAD 4BB d   1     -15.173  17.928  13.253  0.00  0.00    -0.264 OA
ATOM     13  NAP 4BB d   1     -14.181  16.603  11.692  0.00  0.00    -0.111 NA
ATOM     14  NAO 4BB d   1     -13.075  17.124  11.834  0.00  0.00    -0.185 NA
BRANCH  14  15
ATOM     15  CAI 4BB d   1     -12.956  18.117  12.696  0.00  0.00     0.061 C 
ATOM     16  H14 4BB d   1     -13.330  17.722  13.652  0.00  0.00     0.077 H 
ATOM     17  H15 4BB d   1     -13.635  18.903  12.334  0.00  0.00     0.077 H 
BRANCH  15  18
ATOM     18  CAT 4BB d   1     -11.768  18.768  13.004  0.00  0.00    -0.001 A 
ATOM     19  CAN 4BB d   1     -10.546  18.306  12.531  0.00  0.00    -0.053 A 
ATOM     20  CAR 4BB d   1      -9.377  18.964  12.876  0.00  0.00     0.046 A 
ATOM     21  H16 4BB d   1     -10.508  17.431  11.892  0.00  0.00     0.086 H 
ATOM     22 BRAG 4BB d   1      -7.732  18.326  12.226  0.00  0.00    -0.048 Br
ATOM     23  CAU 4BB d   1      -9.428  20.083  13.693  0.00  0.00     0.103 A 
ATOM     24  CAX 4BB d   1     -10.653  20.548  14.168  0.00  0.00     0.079 A 
ATOM     25 BRAH 4BB d   1     -10.764  22.073  15.283  0.00  0.00    -0.045 Br
ATOM     26  CAV 4BB d   1     -11.818  19.885  13.823  0.00  0.00     0.093 A 
BRANCH  23  27
ATOM     27  OAE 4BB d   1      -8.287  20.731  14.032  0.00  0.00    -0.358 OA
ATOM     28  H17 4BB d   1      -8.498  21.469  14.591  0.00  0.00     0.217 HD
ENDBRANCH  23  27
BRANCH  26  29
ATOM     29  OAF 4BB d   1     -13.008  20.343  14.288  0.00  0.00    -0.359 OA
ATOM     30  H18 4BB d   1     -13.708  19.786  13.967  0.00  0.00     0.217 HD
ENDBRANCH  26  29
ENDBRANCH  15  18
ENDBRANCH  14  15
ENDBRANCH   6  11
BRANCH   1  31
ATOM     31  CAY 4BB d   1     -20.378  14.523  11.530  0.00  0.00    -0.024 C 
BRANCH  31  32
ATOM     32  CAA 4BB d   1     -21.484  15.461  11.979  0.00  0.00    -0.066 C 
ATOM     33  H1  4BB d   1     -22.460  14.983  11.812  0.00  0.00     0.028 H 
ATOM     34  H2  4BB d   1     -21.430  16.395  11.401  0.00  0.00     0.028 H 
ATOM     35  H3  4BB d   1     -21.363  15.685  13.049  0.00  0.00     0.028 H 
ENDBRANCH  31  32
BRANCH  31  36
ATOM     36  CAB 4BB d   1     -20.519  14.238  10.041  0.00  0.00    -0.066 C 
ATOM     37  H4  4BB d   1     -19.716  13.558   9.720  0.00  0.00     0.028 H 
ATOM     38  H5  4BB d   1     -20.448  15.181   9.479  0.00  0.00     0.028 H 
ATOM     39  H6  4BB d   1     -21.495  13.769   9.848  0.00  0.00     0.028 H 
ENDBRANCH  31  36
BRANCH  31  40
ATOM     40  CAC 4BB d   1     -20.399  13.247  12.348  0.00  0.00    -0.066 C 
ATOM     41  H7  4BB d   1     -20.295  13.494  13.415  0.00  0.00     0.028 H 
ATOM     42  H8  4BB d   1     -19.566  12.599  12.039  0.00  0.00     0.028 H 
ATOM     43  H9  4BB d   1     -21.352  12.722  12.184  0.00  0.00     0.028 H 
ENDBRANCH  31  40
ENDBRANCH   1  31
TORSDOF 9
