REMARK WARNING: 32 MAX_TORS EXCEEDED!!!
REMARK  41 active torsions:
REMARK  status: ('A' for Active; 'I' for Inactive)
REMARK    1  A    between atoms: N_1  and  CA_2 
REMARK    2  A    between atoms: CA_2  and  C_3 
REMARK    3  A    between atoms: CA_2  and  CB_5 
REMARK       I    between atoms: C_3  and  N_11 
REMARK    4  A    between atoms: CB_5  and  CG_6 
REMARK    5  A    between atoms: N_11  and  CA_12 
REMARK    6  A    between atoms: CA_12  and  C_13 
REMARK    7  A    between atoms: CA_12  and  CB_15 
REMARK       I    between atoms: C_13  and  N_16 
REMARK    8  A    between atoms: N_16  and  CA_17 
REMARK    9  A    between atoms: CA_17  and  CB_18 
REMARK   10  A    between atoms: CA_17  and  C_25 
REMARK   11  A    between atoms: CB_18  and  CG2_19 
REMARK   12  A    between atoms: CB_18  and  OG1_20 
REMARK   13  A    between atoms: OG1_20  and  P_21 
REMARK       I    between atoms: C_25  and  N_27 
REMARK   14  A    between atoms: CA_28  and  C_29 
REMARK       I    between atoms: C_29  and  N_34 
REMARK   15  A    between atoms: CA_35  and  C_36 
REMARK       I    between atoms: C_36  and  N_41 
REMARK   16  A    between atoms: N_41  and  CA_42 
REMARK   17  A    between atoms: CA_42  and  C_43 
REMARK   18  A    between atoms: CA_42  and  CB_45 
REMARK       I    between atoms: C_43  and  N_50 
REMARK   19  A    between atoms: CB_45  and  CG_46 
REMARK   20  A    between atoms: CG_46  and  CD_47 
REMARK   21  A    between atoms: CD_47  and  CE_48 
REMARK   22  A    between atoms: CE_48  and  NZ_49 
REMARK   23  A    between atoms: N_50  and  CA_51 
REMARK   24  A    between atoms: CA_51  and  C_52 
REMARK   25  A    between atoms: CA_51  and  CB_54 
REMARK       I    between atoms: C_52  and  N_59 
REMARK   26  A    between atoms: CB_54  and  CG_55 
REMARK   27  A    between atoms: CG_55  and  CD_56 
REMARK   28  A    between atoms: CD_56  and  CE_57 
REMARK   29  A    between atoms: CE_57  and  NZ_58 
REMARK   30  A    between atoms: N_59  and  CA_60 
REMARK   31  A    between atoms: CA_60  and  C_61 
REMARK   32  A    between atoms: CA_60  and  CB_63 
REMARK       I    between atoms: C_61  and  N_68 
REMARK   33  A    between atoms: CB_63  and  CG_64 
REMARK   34  A    between atoms: CG_64  and  CD_65 
REMARK   35  A    between atoms: N_68  and  CA_69 
REMARK   36  A    between atoms: CA_69  and  C_70 
REMARK   37  A    between atoms: CA_69  and  CB_72 
REMARK       I    between atoms: C_70  and  N_73 
REMARK   38  A    between atoms: N_73  and  CA_74 
REMARK   39  A    between atoms: CA_74  and  C_75 
REMARK   40  A    between atoms: CA_74  and  CB_77 
REMARK   41  A    between atoms: CB_77  and  CG_78 
ROOT
ATOM      1  CA  LYS d   1      18.420  24.865 -14.563  0.00  0.00     0.089 C 
ATOM      2  H36 LYS d   1      17.841  25.602 -13.987  0.00  0.00     0.087 H 
ENDROOT
BRANCH   1   3
ATOM      3  N   LYS d   1      18.062  23.533 -14.090  0.00  0.00    -0.346 N 
ATOM      4  C   PRO d   1      17.009  23.330 -13.305  0.00  0.00     0.241 C 
ATOM      5  O   PRO d   1      16.710  24.073 -12.370  0.00  0.00    -0.271 OA
ATOM      6  H35 LYS d   1      18.623  22.752 -14.363  0.00  0.00     0.163 HD
BRANCH   4   7
ATOM      7  CA  PRO d   1      16.152  22.107 -13.612  0.00  0.00     0.091 C 
ATOM      8  N   PRO d   1      15.131  21.885 -12.584  0.00  0.00    -0.337 N 
ATOM      9  C   PRO d   1      15.448  21.763 -11.299  0.00  0.00     0.243 C 
ATOM     10  CD  PRO d   1      13.780  22.234 -13.059  0.00  0.00    -0.001 C 
ATOM     11  O   PRO d   1      16.599  21.868 -10.874  0.00  0.00    -0.271 OA
ATOM     12  CG  PRO d   1      14.042  22.912 -14.374  0.00  0.00    -0.048 C 
ATOM     13  H33 PRO d   1      13.279  22.916 -12.357  0.00  0.00     0.064 H 
ATOM     14  H34 PRO d   1      13.165  21.332 -13.196  0.00  0.00     0.064 H 
ATOM     15  CB  PRO d   1      15.324  22.348 -14.875  0.00  0.00    -0.036 C 
ATOM     16  H31 PRO d   1      13.228  22.700 -15.083  0.00  0.00     0.035 H 
ATOM     17  H32 PRO d   1      14.132  23.999 -14.233  0.00  0.00     0.035 H 
ATOM     18  H29 PRO d   1      15.150  21.404 -15.413  0.00  0.00     0.036 H 
ATOM     19  H30 PRO d   1      15.829  23.062 -15.542  0.00  0.00     0.036 H 
ATOM     20  H28 PRO d   1      16.798  21.223 -13.721  0.00  0.00     0.087 H 
BRANCH   9  21
ATOM     21  CA  PRO d   1      14.301  21.479 -10.335  0.00  0.00     0.092 C 
ATOM     22  N   PRO d   1      14.755  20.742  -9.152  0.00  0.00    -0.337 N 
ATOM     23  C   TPO d   1      15.011  19.438  -9.196  0.00  0.00     0.246 C 
ATOM     24  CD  PRO d   1      14.787  21.591  -7.948  0.00  0.00    -0.001 C 
ATOM     25  O   TPO d   1      15.923  18.912  -8.558  0.00  0.00    -0.271 OA
ATOM     26  CG  PRO d   1      14.556  22.971  -8.493  0.00  0.00    -0.048 C 
ATOM     27  H26 PRO d   1      15.763  21.524  -7.444  0.00  0.00     0.064 H 
ATOM     28  H27 PRO d   1      13.991  21.307  -7.244  0.00  0.00     0.064 H 
ATOM     29  CB  PRO d   1      13.774  22.788  -9.745  0.00  0.00    -0.036 C 
ATOM     30  H24 PRO d   1      13.988  23.577  -7.772  0.00  0.00     0.035 H 
ATOM     31  H25 PRO d   1      15.516  23.463  -8.710  0.00  0.00     0.035 H 
ATOM     32  H22 PRO d   1      12.699  22.711  -9.525  0.00  0.00     0.036 H 
ATOM     33  H23 PRO d   1      13.947  23.625 -10.438  0.00  0.00     0.036 H 
ATOM     34  H21 PRO d   1      13.506  20.929 -10.860  0.00  0.00     0.087 H 
BRANCH  23  35
ATOM     35  CA  TPO d   1      14.104  18.604 -10.094  0.00  0.00     0.114 C 
ATOM     36  H16 TPO d   1      13.071  18.695  -9.727  0.00  0.00     0.091 H 
BRANCH  35  37
ATOM     37  N   TPO d   1      14.137  19.085 -11.470  0.00  0.00    -0.344 N 
ATOM     38  C   ALA d   1      13.352  18.568 -12.409  0.00  0.00     0.240 C 
ATOM     39  O   ALA d   1      12.770  17.491 -12.279  0.00  0.00    -0.271 OA
ATOM     40  H15 TPO d   1      14.767  19.823 -11.713  0.00  0.00     0.163 HD
BRANCH  38  41
ATOM     41  CA  ALA d   1      13.200  19.388 -13.686  0.00  0.00     0.086 C 
ATOM     42  H11 ALA d   1      13.890  20.243 -13.629  0.00  0.00     0.086 H 
BRANCH  41  43
ATOM     43  N   ALA d   1      13.548  18.601 -14.863  0.00  0.00    -0.346 N 
ATOM     44  C   HIS d   1      14.503  18.986 -15.703  0.00  0.00     0.249 C 
ATOM     45  O   HIS d   1      14.541  20.108 -16.207  0.00  0.00    -0.271 OA
ATOM     46  H10 ALA d   1      13.055  17.750 -15.043  0.00  0.00     0.163 HD
BRANCH  44  47
ATOM     47  CA  HIS d   1      15.577  17.951 -16.020  0.00  0.00     0.181 C 
ATOM     48  H4  HIS d   1      16.547  18.467 -16.081  0.00  0.00     0.099 H 
BRANCH  47  49
ATOM     49  N   HIS d   1      15.663  16.942 -14.972  0.00  0.00    -0.066 N 
ATOM     50  H1  HIS d   1      16.379  16.273 -15.208  0.00  0.00     0.275 HD
ATOM     51  H2  HIS d   1      14.777  16.470 -14.887  0.00  0.00     0.275 HD
ATOM     52  H3  HIS d   1      15.893  17.386 -14.097  0.00  0.00     0.275 HD
ENDBRANCH  47  49
BRANCH  47  53
ATOM     53  CB  HIS d   1      15.291  17.295 -17.373  0.00  0.00     0.011 C 
ATOM     54  H5  HIS d   1      14.956  18.075 -18.073  0.00  0.00     0.046 H 
ATOM     55  H6  HIS d   1      14.489  16.555 -17.237  0.00  0.00     0.046 H 
BRANCH  53  56
ATOM     56  CG  HIS d   1      16.476  16.602 -17.970  0.00  0.00     0.053 A 
ATOM     57  ND1 HIS d   1      16.396  15.853 -19.125  0.00  0.00    -0.247 NA
ATOM     58  CE1 HIS d   1      17.589  15.364 -19.413  0.00  0.00     0.064 A 
ATOM     59  NE2 HIS d   1      18.440  15.768 -18.487  0.00  0.00    -0.359 N 
ATOM     60  H8  HIS d   1      17.830  14.735 -20.268  0.00  0.00     0.143 H 
ATOM     61  CD2 HIS d   1      17.769  16.544 -17.573  0.00  0.00     0.002 A 
ATOM     62  H9  HIS d   1      19.444  15.539 -18.455  0.00  0.00     0.166 HD
ATOM     63  H7  HIS d   1      18.197  17.023 -16.694  0.00  0.00     0.114 H 
ENDBRANCH  53  56
ENDBRANCH  47  53
ENDBRANCH  44  47
ENDBRANCH  41  43
BRANCH  41  64
ATOM     64  CB  ALA d   1      11.782  19.926 -13.808  0.00  0.00    -0.049 C 
ATOM     65  H12 ALA d   1      11.536  20.517 -12.913  0.00  0.00     0.030 H 
ATOM     66  H13 ALA d   1      11.078  19.086 -13.898  0.00  0.00     0.030 H 
ATOM     67  H14 ALA d   1      11.708  20.564 -14.701  0.00  0.00     0.030 H 
ENDBRANCH  41  64
ENDBRANCH  38  41
ENDBRANCH  35  37
BRANCH  35  68
ATOM     68  CB  TPO d   1      14.525  17.126 -10.002  0.00  0.00     0.076 C 
ATOM     69  H17 TPO d   1      14.113  16.589 -10.869  0.00  0.00     0.087 H 
BRANCH  68  70
ATOM     70  CG2 TPO d   1      15.951  17.006 -10.018  0.00  0.00    -0.049 C 
ATOM     71  H18 TPO d   1      16.230  15.944  -9.951  0.00  0.00     0.031 H 
ATOM     72  H19 TPO d   1      16.375  17.551  -9.161  0.00  0.00     0.031 H 
ATOM     73  H20 TPO d   1      16.344  17.431 -10.953  0.00  0.00     0.031 H 
ENDBRANCH  68  70
BRANCH  68  74
ATOM     74  OG1 TPO d   1      13.981  16.496  -8.728  0.00  0.00    -0.275 OA
BRANCH  74  75
ATOM     75  P   TPO d   1      12.766  15.668  -8.430  0.00  0.00     0.422 P 
ATOM     76  O1P TPO d   1      12.636  15.012  -7.108  0.00  0.00    -0.617 OA
ATOM     77  O2P TPO d   1      11.462  16.576  -8.684  0.00  0.00    -0.617 OA
ATOM     78  O3P TPO d   1      12.657  14.537  -9.568  0.00  0.00    -0.617 OA
ENDBRANCH  74  75
ENDBRANCH  68  74
ENDBRANCH  35  68
ENDBRANCH  23  35
ENDBRANCH   9  21
ENDBRANCH   4   7
ENDBRANCH   1   3
BRANCH   1  79
ATOM     79  C   LYS d   1      18.078  25.036 -16.039  0.00  0.00     0.241 C 
ATOM     80  O   LYS d   1      17.982  24.059 -16.781  0.00  0.00    -0.271 OA
ATOM     81  N   LYS d   1      17.896  26.284 -16.459  0.00  0.00    -0.346 N 
ATOM     82  H48 LYS d   1      18.402  27.025 -16.018  0.00  0.00     0.163 HD
BRANCH  81  83
ATOM     83  CA  LYS d   1      16.977  26.600 -17.546  0.00  0.00     0.089 C 
ATOM     84  H49 LYS d   1      16.951  27.693 -17.667  0.00  0.00     0.087 H 
BRANCH  83  85
ATOM     85  C   LYS d   1      15.564  26.119 -17.232  0.00  0.00     0.241 C 
ATOM     86  O   LYS d   1      15.023  26.408 -16.165  0.00  0.00    -0.271 OA
ATOM     87  N   GLU d   1      14.973  25.385 -18.169  0.00  0.00    -0.346 N 
ATOM     88  H61 GLU d   1      15.532  24.970 -18.887  0.00  0.00     0.163 HD
BRANCH  87  89
ATOM     89  CA  GLU d   1      13.531  25.170 -18.177  0.00  0.00     0.090 C 
ATOM     90  H62 GLU d   1      13.258  24.704 -19.135  0.00  0.00     0.087 H 
BRANCH  89  91
ATOM     91  C   GLU d   1      12.776  26.489 -18.054  0.00  0.00     0.241 C 
ATOM     92  O   GLU d   1      12.144  26.761 -17.034  0.00  0.00    -0.271 OA
ATOM     93  N   ALA d   1      12.847  27.305 -19.101  0.00  0.00    -0.346 N 
ATOM     94  H67 ALA d   1      12.910  26.915 -20.020  0.00  0.00     0.163 HD
BRANCH  93  95
ATOM     95  CA  ALA d   1      12.836  28.755 -18.945  0.00  0.00     0.086 C 
ATOM     96  H68 ALA d   1      12.176  29.005 -18.101  0.00  0.00     0.086 H 
BRANCH  95  97
ATOM     97  C   ALA d   1      12.290  29.439 -20.193  0.00  0.00     0.240 C 
ATOM     98  O   ALA d   1      12.056  28.794 -21.215  0.00  0.00    -0.271 OA
ATOM     99  N   ASP d   1      12.089  30.750 -20.103  0.00  0.00    -0.344 N 
ATOM    100  H72 ASP d   1      11.540  31.108 -19.348  0.00  0.00     0.163 HD
BRANCH  99 101
ATOM    101  CA  ASP d   1      12.649  31.680 -21.077  0.00  0.00     0.105 C 
ATOM    102  H73 ASP d   1      11.871  31.908 -21.821  0.00  0.00     0.090 H 
BRANCH 101 103
ATOM    103  C   ASP d   1      13.841  31.066 -21.804  0.00  0.00     0.197 C 
ATOM    104  O   ASP d   1      14.455  31.704 -22.659  0.00  0.00    -0.646 OA
ATOM    105  OXT ASP d   1      14.221  29.919 -21.495  0.00  0.00    -0.646 OA
ENDBRANCH 101 103
BRANCH 101 106
ATOM    106  CB  ASP d   1      13.064  32.985 -20.395  0.00  0.00     0.044 C 
ATOM    107  H74 ASP d   1      12.893  32.887 -19.313  0.00  0.00     0.053 H 
ATOM    108  H75 ASP d   1      12.444  33.803 -20.792  0.00  0.00     0.053 H 
BRANCH 106 109
ATOM    109  CG  ASP d   1      14.523  33.325 -20.627  0.00  0.00     0.175 C 
ATOM    110  OD1 ASP d   1      15.395  32.583 -20.126  0.00  0.00    -0.648 OA
ATOM    111  OD2 ASP d   1      14.799  34.333 -21.310  0.00  0.00    -0.648 OA
ENDBRANCH 106 109
ENDBRANCH 101 106
ENDBRANCH  99 101
ENDBRANCH  95  97
BRANCH  95 112
ATOM    112  CB  ALA d   1      14.233  29.264 -18.626  0.00  0.00    -0.049 C 
ATOM    113  H69 ALA d   1      14.207  30.358 -18.512  0.00  0.00     0.030 H 
ATOM    114  H70 ALA d   1      14.917  28.997 -19.445  0.00  0.00     0.030 H 
ATOM    115  H71 ALA d   1      14.585  28.806 -17.690  0.00  0.00     0.030 H 
ENDBRANCH  95 112
ENDBRANCH  93  95
ENDBRANCH  89  91
BRANCH  89 116
ATOM    116  CB  GLU d   1      13.124  24.224 -17.045  0.00  0.00    -0.029 C 
ATOM    117  H63 GLU d   1      13.806  24.386 -16.197  0.00  0.00     0.037 H 
ATOM    118  H64 GLU d   1      13.226  23.190 -17.405  0.00  0.00     0.037 H 
BRANCH 116 119
ATOM    119  CG  GLU d   1      11.698  24.420 -16.555  0.00  0.00     0.018 C 
ATOM    120  H65 GLU d   1      11.122  23.509 -16.774  0.00  0.00     0.049 H 
ATOM    121  H66 GLU d   1      11.255  25.272 -17.091  0.00  0.00     0.049 H 
BRANCH 119 122
ATOM    122  CD  GLU d   1      11.626  24.693 -15.066  0.00  0.00     0.172 C 
ATOM    123  OE1 GLU d   1      11.352  23.746 -14.298  0.00  0.00    -0.648 OA
ATOM    124  OE2 GLU d   1      11.843  25.855 -14.662  0.00  0.00    -0.648 OA
ENDBRANCH 119 122
ENDBRANCH 116 119
ENDBRANCH  89 116
ENDBRANCH  87  89
ENDBRANCH  83  85
BRANCH  83 125
ATOM    125  CB  LYS d   1      17.465  25.980 -18.857  0.00  0.00    -0.038 C 
ATOM    126  H50 LYS d   1      16.599  25.543 -19.376  0.00  0.00     0.036 H 
ATOM    127  H51 LYS d   1      18.187  25.186 -18.616  0.00  0.00     0.036 H 
BRANCH 125 128
ATOM    128  CG  LYS d   1      18.137  26.966 -19.798  0.00  0.00    -0.061 C 
ATOM    129  H52 LYS d   1      17.379  27.658 -20.193  0.00  0.00     0.033 H 
ATOM    130  H53 LYS d   1      18.596  26.412 -20.630  0.00  0.00     0.033 H 
BRANCH 128 131
ATOM    131  CD  LYS d   1      19.213  27.767 -19.083  0.00  0.00    -0.043 C 
ATOM    132  H54 LYS d   1      20.115  27.798 -19.712  0.00  0.00     0.035 H 
ATOM    133  H55 LYS d   1      19.449  27.276 -18.127  0.00  0.00     0.035 H 
BRANCH 131 134
ATOM    134  CE  LYS d   1      18.752  29.189 -18.809  0.00  0.00     0.080 C 
ATOM    135  H56 LYS d   1      18.454  29.269 -17.753  0.00  0.00     0.075 H 
ATOM    136  H57 LYS d   1      17.888  29.413 -19.452  0.00  0.00     0.075 H 
BRANCH 134 137
ATOM    137  NZ  LYS d   1      19.826  30.183 -19.083  0.00  0.00    -0.079 N 
ATOM    138  H58 LYS d   1      19.482  31.111 -18.890  0.00  0.00     0.274 HD
ATOM    139  H59 LYS d   1      20.102  30.122 -20.050  0.00  0.00     0.274 HD
ATOM    140  H60 LYS d   1      20.621  29.990 -18.494  0.00  0.00     0.274 HD
ENDBRANCH 134 137
ENDBRANCH 131 134
ENDBRANCH 128 131
ENDBRANCH 125 128
ENDBRANCH  83 125
ENDBRANCH  81  83
ENDBRANCH   1  79
BRANCH   1 141
ATOM    141  CB  LYS d   1      19.909  25.133 -14.334  0.00  0.00    -0.038 C 
ATOM    142  H37 LYS d   1      20.022  25.659 -13.375  0.00  0.00     0.036 H 
ATOM    143  H38 LYS d   1      20.274  25.775 -15.149  0.00  0.00     0.036 H 
BRANCH 141 144
ATOM    144  CG  LYS d   1      20.766  23.879 -14.294  0.00  0.00    -0.061 C 
ATOM    145  H39 LYS d   1      20.166  23.047 -13.896  0.00  0.00     0.033 H 
ATOM    146  H40 LYS d   1      21.629  24.056 -13.636  0.00  0.00     0.033 H 
BRANCH 144 147
ATOM    147  CD  LYS d   1      21.268  23.508 -15.680  0.00  0.00    -0.043 C 
ATOM    148  H41 LYS d   1      22.149  24.122 -15.918  0.00  0.00     0.035 H 
ATOM    149  H42 LYS d   1      20.473  23.706 -16.414  0.00  0.00     0.035 H 
BRANCH 147 150
ATOM    150  CE  LYS d   1      21.654  22.040 -15.753  0.00  0.00     0.080 C 
ATOM    151  H43 LYS d   1      20.752  21.445 -15.960  0.00  0.00     0.075 H 
ATOM    152  H44 LYS d   1      22.080  21.736 -14.786  0.00  0.00     0.075 H 
BRANCH 150 153
ATOM    153  NZ  LYS d   1      22.657  21.783 -16.823  0.00  0.00    -0.079 N 
ATOM    154  H45 LYS d   1      22.887  20.802 -16.840  0.00  0.00     0.274 HD
ATOM    155  H46 LYS d   1      23.490  22.320 -16.639  0.00  0.00     0.274 HD
ATOM    156  H47 LYS d   1      22.273  22.053 -17.715  0.00  0.00     0.274 HD
ENDBRANCH 150 153
ENDBRANCH 147 150
ENDBRANCH 144 147
ENDBRANCH 141 144
ENDBRANCH   1 141
TORSDOF 41
