REMARK  3 active torsions:
REMARK  status: ('A' for Active; 'I' for Inactive)
REMARK    1  A    between atoms: C01_1  and  C02_2 
REMARK    2  A    between atoms: C02_2  and  C03_3 
REMARK    3  A    between atoms: C11_11  and  N12_12 
ROOT
ATOM      1  C02 41A d   1      24.155  63.182  18.873  0.00  0.00    -0.036 C 
ATOM      2  C04 41A d   1      22.695  62.741  19.251  0.00  0.00    -0.017 C 
ATOM      3  C05 41A d   1      22.585  61.909  20.508  0.00  0.00     0.058 A 
ATOM      4  C06 41A d   1      23.661  61.217  21.016  0.00  0.00     0.078 A 
ATOM      5  C07 41A d   1      24.996  61.213  20.438  0.00  0.00     0.169 C 
ATOM      6  C08 41A d   1      25.170  62.027  19.161  0.00  0.00     0.002 C 
ATOM      7  O09 41A d   1      25.915  60.580  20.930  0.00  0.00    -0.292 OA
ATOM      8  S10 41A d   1      23.206  60.371  22.461  0.00  0.00    -0.052 SA
ATOM      9  C11 41A d   1      21.580  61.003  22.257  0.00  0.00     0.149 A 
ATOM     10  N18 41A d   1      21.416  61.776  21.209  0.00  0.00    -0.233 NA
ATOM     11  H7  41A d   1      22.289  62.152  18.415  0.00  0.00     0.043 H 
ATOM     12  H8  41A d   1      22.089  63.649  19.388  0.00  0.00     0.043 H 
ATOM     13  H9  41A d   1      26.173  62.476  19.196  0.00  0.00     0.046 H 
ATOM     14  H10 41A d   1      25.112  61.324  18.317  0.00  0.00     0.046 H 
ENDROOT
BRANCH   9  15
ATOM     15  N12 41A d   1      20.590  60.684  23.142  0.00  0.00    -0.258 NA
ATOM     16  C13 41A d   1      20.476  59.265  23.494  0.00  0.00     0.005 C 
ATOM     17  C14 41A d   1      19.379  59.063  24.528  0.00  0.00     0.031 C 
ATOM     18  H11 41A d   1      21.433  58.916  23.908  0.00  0.00     0.059 H 
ATOM     19  H12 41A d   1      20.234  58.686  22.591  0.00  0.00     0.059 H 
ATOM     20  O15 41A d   1      18.139  59.619  24.117  0.00  0.00    -0.389 OA
ATOM     21  H13 41A d   1      19.687  59.543  25.468  0.00  0.00     0.076 H 
ATOM     22  H14 41A d   1      19.244  57.984  24.694  0.00  0.00     0.076 H 
ATOM     23  C16 41A d   1      18.264  61.013  23.851  0.00  0.00     0.031 C 
ATOM     24  C17 41A d   1      19.275  61.288  22.764  0.00  0.00     0.005 C 
ATOM     25  H15 41A d   1      18.583  61.524  24.771  0.00  0.00     0.076 H 
ATOM     26  H16 41A d   1      17.286  61.404  23.535  0.00  0.00     0.076 H 
ATOM     27  H17 41A d   1      18.927  60.846  21.819  0.00  0.00     0.059 H 
ATOM     28  H18 41A d   1      19.393  62.374  22.639  0.00  0.00     0.059 H 
ENDBRANCH   9  15
BRANCH   1  29
ATOM     29  C01 41A d   1      24.190  63.515  17.378  0.00  0.00    -0.069 C 
ATOM     30  H1  41A d   1      23.479  64.327  17.166  0.00  0.00     0.028 H 
ATOM     31  H2  41A d   1      23.912  62.623  16.797  0.00  0.00     0.028 H 
ATOM     32  H3  41A d   1      25.204  63.834  17.097  0.00  0.00     0.028 H 
ENDBRANCH   1  29
BRANCH   1  33
ATOM     33  C03 41A d   1      24.571  64.431  19.653  0.00  0.00    -0.069 C 
ATOM     34  H4  41A d   1      24.552  64.213  20.731  0.00  0.00     0.028 H 
ATOM     35  H5  41A d   1      23.872  65.251  19.433  0.00  0.00     0.028 H 
ATOM     36  H6  41A d   1      25.588  64.727  19.356  0.00  0.00     0.028 H 
ENDBRANCH   1  33
TORSDOF 3
