REMARK  4 active torsions:
REMARK  status: ('A' for Active; 'I' for Inactive)
REMARK    1  A    between atoms: CBD_7  and  N2_8 
REMARK    2  A    between atoms: CAW_17  and  CAO_18 
REMARK    3  A    between atoms: CAO_18  and  N3_19 
REMARK       I    between atoms: N3_19  and  CAV_20 
REMARK    4  A    between atoms: CAV_20  and  CBB_22 
ROOT
ATOM      1  CAO AXB d   1       9.745  -6.161   4.279  0.00  0.00     0.019 C 
ATOM      2  H13 AXB d   1      10.700  -6.486   4.718  0.00  0.00     0.071 H 
ATOM      3  H14 AXB d   1       9.794  -6.254   3.184  0.00  0.00     0.071 H 
ENDROOT
BRANCH   1   4
ATOM      4  CAW AXB d   1       9.498  -4.697   4.646  0.00  0.00    -0.040 A 
ATOM      5  CAJ AXB d   1      10.337  -3.730   4.108  0.00  0.00    -0.067 A 
ATOM      6  CAY AXB d   1      10.150  -2.386   4.404  0.00  0.00    -0.026 A 
ATOM      7  H10 AXB d   1      11.146  -4.027   3.450  0.00  0.00     0.085 H 
ATOM      8  CAP AXB d   1      11.111  -1.389   3.755  0.00  0.00     0.109 C 
ATOM      9  CAX AXB d   1       9.114  -2.006   5.249  0.00  0.00    -0.049 A 
ATOM     10  N2  AXB d   1      10.911  -0.027   4.276  0.00  0.00    -0.050 N 
ATOM     11  H8  AXB d   1      12.145  -1.703   3.963  0.00  0.00     0.083 H 
ATOM     12  H9  AXB d   1      10.940  -1.384   2.668  0.00  0.00     0.083 H 
ATOM     13  CAM AXB d   1      10.202   0.223   5.542  0.00  0.00     0.089 C 
ATOM     14  H3  AXB d   1      10.137   0.205   3.674  0.00  0.00     0.281 HD
ATOM     15  CAK AXB d   1       8.874  -0.536   5.594  0.00  0.00    -0.018 C 
ATOM     16  H4  AXB d   1      10.003   1.301   5.635  0.00  0.00     0.076 H 
ATOM     17  H5  AXB d   1      10.836  -0.106   6.379  0.00  0.00     0.076 H 
ATOM     18  H6  AXB d   1       8.173  -0.099   4.868  0.00  0.00     0.042 H 
ATOM     19  H7  AXB d   1       8.448  -0.462   6.606  0.00  0.00     0.042 H 
ATOM     20  CAI AXB d   1       8.273  -2.974   5.789  0.00  0.00    -0.076 A 
ATOM     21  CAH AXB d   1       8.462  -4.319   5.491  0.00  0.00    -0.075 A 
ATOM     22  H11 AXB d   1       7.464  -2.677   6.447  0.00  0.00     0.084 H 
ATOM     23  H12 AXB d   1       7.804  -5.069   5.916  0.00  0.00     0.084 H 
BRANCH  10  24
ATOM     24  CBD AXB d   1      11.740   0.917   3.842  0.00  0.00     0.213 A 
ATOM     25  CAZ AXB d   1      12.961   0.886   3.171  0.00  0.00     0.118 A 
ATOM     26  N1  AXB d   1      13.706  -0.088   2.659  0.00  0.00    -0.298 NA
ATOM     27  CBF AXB d   1      13.121   2.405   3.260  0.00  0.00     0.246 A 
ATOM     28  H1  AXB d   1      14.579   0.131   2.205  0.00  0.00     0.186 HD
ATOM     29  OAD AXB d   1      14.009   3.212   2.999  0.00  0.00    -0.282 OA
ATOM     30  CBG AXB d   1      11.739   2.447   3.909  0.00  0.00     0.238 A 
ATOM     31  OAE AXB d   1      10.976   3.317   4.322  0.00  0.00    -0.286 OA
ATOM     32  H2  AXB d   1      11.152   0.892   2.913  0.00  0.00     0.108 H 
ENDBRANCH  10  24
ENDBRANCH   1   4
BRANCH   1  33
ATOM     33  N3  AXB d   1       8.666  -7.019   4.787  0.00  0.00    -0.350 N 
ATOM     34  CAV AXB d   1       7.447  -7.032   4.256  0.00  0.00     0.287 C 
ATOM     35  OAB AXB d   1       7.083  -6.333   3.312  0.00  0.00    -0.264 OA
ATOM     36  H15 AXB d   1       8.856  -7.618   5.565  0.00  0.00     0.163 HD
BRANCH  34  37
ATOM     37  CBB AXB d   1       6.493  -8.010   4.942  0.00  0.00     0.200 A 
ATOM     38  N4  AXB d   1       6.978  -8.817   5.893  0.00  0.00    -0.217 NA
ATOM     39  CBH AXB d   1       6.189  -9.695   6.523  0.00  0.00     0.116 A 
ATOM     40  SAU AXB d   1       6.551 -10.823   7.755  0.00  0.00    -0.072 SA
ATOM     41  CBI AXB d   1       4.831  -9.826   6.236  0.00  0.00     0.075 A 
ATOM     42  CBA AXB d   1       4.977 -11.475   7.915  0.00  0.00     0.006 A 
ATOM     43  CAQ AXB d   1       4.563 -12.597   8.869  0.00  0.00     0.059 C 
ATOM     44  CBC AXB d   1       4.170 -10.794   7.000  0.00  0.00    -0.025 A 
ATOM     45  SBK AXB d   1       2.743 -12.695   8.987  0.00  0.00     0.149 S 
ATOM     46  H16 AXB d   1       4.980 -12.397   9.867  0.00  0.00     0.064 H 
ATOM     47  H17 AXB d   1       4.954 -13.554   8.494  0.00  0.00     0.064 H 
ATOM     48  OAF AXB d   1       2.333 -14.069   9.428  0.00  0.00    -0.228 OA
ATOM     49  OAG AXB d   1       2.239 -11.666   9.955  0.00  0.00    -0.228 OA
ATOM     50  CAN AXB d   1       2.138 -12.337   7.300  0.00  0.00     0.033 C 
ATOM     51  CAL AXB d   1       2.656 -10.973   6.843  0.00  0.00    -0.027 C 
ATOM     52  H18 AXB d   1       1.038 -12.328   7.301  0.00  0.00     0.056 H 
ATOM     53  H19 AXB d   1       2.498 -13.114   6.610  0.00  0.00     0.056 H 
ATOM     54  H20 AXB d   1       2.153 -10.196   7.437  0.00  0.00     0.041 H 
ATOM     55  H21 AXB d   1       2.401 -10.845   5.781  0.00  0.00     0.041 H 
ATOM     56  CBE AXB d   1       4.313  -8.994   5.249  0.00  0.00     0.260 A 
ATOM     57  OAC AXB d   1       3.121  -9.041   4.947  0.00  0.00    -0.267 OA
ATOM     58  N5  AXB d   1       5.141  -8.078   4.591  0.00  0.00    -0.303 N 
ATOM     59  H22 AXB d   1       4.771  -7.480   3.880  0.00  0.00     0.171 HD
ENDBRANCH  34  37
ENDBRANCH   1  33
TORSDOF 4
