REMARK  4 active torsions:
REMARK  status: ('A' for Active; 'I' for Inactive)
REMARK    1  A    between atoms: CBD_7  and  N2_8 
REMARK    2  A    between atoms: CAW_17  and  CAO_18 
REMARK    3  A    between atoms: CAO_18  and  N3_19 
REMARK       I    between atoms: N3_19  and  CAV_20 
REMARK    4  A    between atoms: CAV_20  and  CBB_22 
ROOT
ATOM      1  CAO AXB d   1      11.065  25.570  16.676  0.00  0.00     0.019 C 
ATOM      2  H13 AXB d   1      10.832  25.219  17.692  0.00  0.00     0.071 H 
ATOM      3  H14 AXB d   1      12.145  25.471  16.492  0.00  0.00     0.071 H 
ENDROOT
BRANCH   1   4
ATOM      4  CAW AXB d   1      10.673  27.046  16.558  0.00  0.00    -0.040 A 
ATOM      5  CAJ AXB d   1      11.347  27.988  17.326  0.00  0.00    -0.067 A 
ATOM      6  CAY AXB d   1      11.016  29.336  17.246  0.00  0.00    -0.026 A 
ATOM      7  H10 AXB d   1      12.139  27.669  17.994  0.00  0.00     0.085 H 
ATOM      8  CAP AXB d   1      11.798  30.336  18.100  0.00  0.00     0.109 C 
ATOM      9  CAX AXB d   1      10.000  29.743  16.387  0.00  0.00    -0.049 A 
ATOM     10  N2  AXB d   1      11.695  31.648  17.443  0.00  0.00    -0.050 N 
ATOM     11  H8  AXB d   1      11.366  30.386  19.110  0.00  0.00     0.083 H 
ATOM     12  H9  AXB d   1      12.852  30.030  18.166  0.00  0.00     0.083 H 
ATOM     13  CAM AXB d   1      10.281  32.041  17.345  0.00  0.00     0.089 C 
ATOM     14  H3  AXB d   1      12.061  31.557  16.508  0.00  0.00     0.281 HD
ATOM     15  CAK AXB d   1       9.622  31.217  16.236  0.00  0.00    -0.018 C 
ATOM     16  H4  AXB d   1      10.210  33.112  17.104  0.00  0.00     0.076 H 
ATOM     17  H5  AXB d   1       9.775  31.846  18.302  0.00  0.00     0.076 H 
ATOM     18  H6  AXB d   1       9.965  31.583  15.257  0.00  0.00     0.042 H 
ATOM     19  H7  AXB d   1       8.529  31.322  16.304  0.00  0.00     0.042 H 
ATOM     20  CAI AXB d   1       9.325  28.800  15.621  0.00  0.00    -0.076 A 
ATOM     21  CAH AXB d   1       9.657  27.451  15.701  0.00  0.00    -0.075 A 
ATOM     22  H11 AXB d   1       8.532  29.119  14.954  0.00  0.00     0.084 H 
ATOM     23  H12 AXB d   1       9.127  26.722  15.099  0.00  0.00     0.084 H 
BRANCH  10  24
ATOM     24  CBD AXB d   1      12.412  32.579  18.069  0.00  0.00     0.213 A 
ATOM     25  CAZ AXB d   1      13.603  32.563  18.792  0.00  0.00     0.118 A 
ATOM     26  N1  AXB d   1      14.425  31.597  19.195  0.00  0.00    -0.298 NA
ATOM     27  CBF AXB d   1      13.570  34.050  18.940  0.00  0.00     0.246 A 
ATOM     28  H1  AXB d   1      15.253  31.827  19.722  0.00  0.00     0.186 HD
ATOM     29  OAD AXB d   1      14.320  34.920  19.500  0.00  0.00    -0.282 OA
ATOM     30  CBG AXB d   1      12.277  34.096  18.204  0.00  0.00     0.238 A 
ATOM     31  OAE AXB d   1      11.486  34.953  17.812  0.00  0.00    -0.286 OA
ATOM     32  H2  AXB d   1      11.787  32.367  18.949  0.00  0.00     0.108 H 
ENDBRANCH  10  24
ENDBRANCH   1   4
BRANCH   1  33
ATOM     33  N3  AXB d   1      10.338  24.739  15.705  0.00  0.00    -0.350 N 
ATOM     34  CAV AXB d   1      10.678  24.672  14.421  0.00  0.00     0.287 C 
ATOM     35  OAB AXB d   1      11.596  25.312  13.910  0.00  0.00    -0.264 OA
ATOM     36  H15 AXB d   1       9.556  24.203  16.023  0.00  0.00     0.163 HD
BRANCH  34  37
ATOM     37  CBB AXB d   1       9.805  23.735  13.585  0.00  0.00     0.200 A 
ATOM     38  N4  AXB d   1       8.833  23.035  14.185  0.00  0.00    -0.217 NA
ATOM     39  CBH AXB d   1       8.033  22.213  13.492  0.00  0.00     0.116 A 
ATOM     40  SAU AXB d   1       6.728  21.228  13.998  0.00  0.00    -0.072 SA
ATOM     41  CBI AXB d   1       8.159  22.036  12.116  0.00  0.00     0.075 A 
ATOM     42  CBA AXB d   1       6.335  20.585  12.461  0.00  0.00     0.006 A 
ATOM     43  CAQ AXB d   1       5.230  19.569  12.159  0.00  0.00     0.059 C 
ATOM     44  CBC AXB d   1       7.231  21.156  11.553  0.00  0.00    -0.025 A 
ATOM     45  SBK AXB d   1       4.897  19.491  10.364  0.00  0.00     0.149 S 
ATOM     46  H16 AXB d   1       4.311  19.868  12.684  0.00  0.00     0.064 H 
ATOM     47  H17 AXB d   1       5.546  18.576  12.511  0.00  0.00     0.064 H 
ATOM     48  OAF AXB d   1       4.275  18.171  10.013  0.00  0.00    -0.228 OA
ATOM     49  OAG AXB d   1       3.991  20.621   9.973  0.00  0.00    -0.228 OA
ATOM     50  CAN AXB d   1       6.535  19.665   9.573  0.00  0.00     0.033 C 
ATOM     51  CAL AXB d   1       7.201  20.964  10.032  0.00  0.00    -0.027 C 
ATOM     52  H18 AXB d   1       6.412  19.685   8.480  0.00  0.00     0.056 H 
ATOM     53  H19 AXB d   1       7.169  18.811   9.855  0.00  0.00     0.056 H 
ATOM     54  H20 AXB d   1       6.651  21.808   9.589  0.00  0.00     0.041 H 
ATOM     55  H21 AXB d   1       8.238  20.968   9.664  0.00  0.00     0.041 H 
ATOM     56  CBE AXB d   1       9.167  22.751  11.477  0.00  0.00     0.260 A 
ATOM     57  OAC AXB d   1       9.339  22.639  10.264  0.00  0.00    -0.267 OA
ATOM     58  N5  AXB d   1      10.000  23.608  12.206  0.00  0.00    -0.303 N 
ATOM     59  H22 AXB d   1      10.725  24.122  11.747  0.00  0.00     0.171 HD
ENDBRANCH  34  37
ENDBRANCH   1  33
TORSDOF 4
