REMARK  9 active torsions:
REMARK  status: ('A' for Active; 'I' for Inactive)
REMARK    1  A    between atoms: C01_1  and  O02_2 
REMARK    2  A    between atoms: O02_2  and  N03_3 
REMARK       I    between atoms: N03_3  and  C04_4 
REMARK    3  A    between atoms: C04_4  and  C06_6 
REMARK    4  A    between atoms: N08_8  and  C31_31 
REMARK    5  A    between atoms: C11_11  and  N17_17 
REMARK    6  A    between atoms: N17_17  and  C18_18 
REMARK    7  A    between atoms: C21_21  and  C24_24 
REMARK    8  A    between atoms: C24_24  and  C25_25 
REMARK    9  A    between atoms: C25_25  and  N26_26 
ROOT
ATOM      1  C06 8C5 d   1       7.699  23.881   5.284  0.00  0.00     0.100 C 
ATOM      2  C07 8C5 d   1       6.776  24.806   4.892  0.00  0.00     0.001 C 
ATOM      3  N08 8C5 d   1       6.482  25.981   5.564  0.00  0.00    -0.335 N 
ATOM      4  C09 8C5 d   1       6.923  26.168   6.898  0.00  0.00     0.165 A 
ATOM      5  N10 8C5 d   1       6.584  27.281   7.617  0.00  0.00    -0.044 NA
ATOM      6  C11 8C5 d   1       7.081  27.367   8.957  0.00  0.00     0.728 A 
ATOM      7  N12 8C5 d   1       7.878  26.428   9.512  0.00  0.00    -0.074 NA
ATOM      8  C13 8C5 d   1       8.170  25.391   8.723  0.00  0.00     0.038 A 
ATOM      9  C14 8C5 d   1       7.744  25.165   7.420  0.00  0.00     0.080 A 
ATOM     10  C15 8C5 d   1       8.150  23.951   6.679  0.00  0.00     0.204 C 
ATOM     11  O16 8C5 d   1       8.868  23.095   7.235  0.00  0.00    -0.286 OA
ATOM     12  H5  8C5 d   1       6.225  24.604   3.975  0.00  0.00     0.113 H 
ATOM     13  H6  8C5 d   1       8.818  24.634   9.151  0.00  0.00     0.117 H 
ENDROOT
BRANCH   6  14
ATOM     14  N17 8C5 d   1       6.664  28.562   9.558  0.00  0.00    -0.188 N 
ATOM     15  H7  8C5 d   1       7.166  28.786  10.429  0.00  0.00     0.184 HD
BRANCH  14  16
ATOM     16  C18 8C5 d   1       5.636  29.571   9.182  0.00  0.00     0.049 A 
ATOM     17  C19 8C5 d   1       5.371  29.953   7.866  0.00  0.00    -0.056 A 
ATOM     18  C20 8C5 d   1       4.353  30.881   7.552  0.00  0.00    -0.075 A 
ATOM     19  H8  8C5 d   1       5.962  29.526   7.064  0.00  0.00     0.086 H 
ATOM     20  C21 8C5 d   1       3.553  31.506   8.499  0.00  0.00    -0.057 A 
ATOM     21  H9  8C5 d   1       4.186  31.120   6.508  0.00  0.00     0.084 H 
ATOM     22  C22 8C5 d   1       3.815  31.103   9.817  0.00  0.00    -0.075 A 
ATOM     23  C23 8C5 d   1       4.814  30.195  10.152  0.00  0.00    -0.056 A 
ATOM     24  H10 8C5 d   1       3.209  31.520  10.613  0.00  0.00     0.084 H 
ATOM     25  H11 8C5 d   1       4.970  29.955  11.198  0.00  0.00     0.086 H 
BRANCH  20  26
ATOM     26  C24 8C5 d   1       2.345  32.368   8.122  0.00  0.00    -0.018 C 
ATOM     27  H12 8C5 d   1       2.425  32.653   7.063  0.00  0.00     0.042 H 
ATOM     28  H13 8C5 d   1       2.342  33.274   8.746  0.00  0.00     0.042 H 
BRANCH  26  29
ATOM     29  C25 8C5 d   1       0.996  31.591   8.342  0.00  0.00     0.087 C 
ATOM     30  H14 8C5 d   1       0.881  31.413   9.421  0.00  0.00     0.076 H 
ATOM     31  H15 8C5 d   1       1.073  30.627   7.818  0.00  0.00     0.076 H 
BRANCH  29  32
ATOM     32  N26 8C5 d   1      -0.252  32.286   7.852  0.00  0.00    -0.071 N 
ATOM     33  C27 8C5 d   1      -0.041  33.112   6.634  0.00  0.00     0.084 C 
ATOM     34  C28 8C5 d   1      -1.450  33.585   6.231  0.00  0.00    -0.041 C 
ATOM     35  H17 8C5 d   1       0.410  32.511   5.831  0.00  0.00     0.076 H 
ATOM     36  H18 8C5 d   1       0.608  33.972   6.857  0.00  0.00     0.076 H 
ATOM     37  C29 8C5 d   1      -2.392  32.562   6.839  0.00  0.00    -0.041 C 
ATOM     38  H19 8C5 d   1      -1.554  33.604   5.136  0.00  0.00     0.035 H 
ATOM     39  H20 8C5 d   1      -1.653  34.587   6.636  0.00  0.00     0.035 H 
ATOM     40  C30 8C5 d   1      -1.496  31.532   7.544  0.00  0.00     0.084 C 
ATOM     41  H21 8C5 d   1      -2.988  32.076   6.053  0.00  0.00     0.035 H 
ATOM     42  H22 8C5 d   1      -3.064  33.044   7.564  0.00  0.00     0.035 H 
ATOM     43  H23 8C5 d   1      -1.971  31.168   8.467  0.00  0.00     0.076 H 
ATOM     44  H24 8C5 d   1      -1.283  30.681   6.881  0.00  0.00     0.076 H 
ATOM     45  H16 8C5 d   1      -0.490  32.913   8.604  0.00  0.00     0.279 HD
ENDBRANCH  29  32
ENDBRANCH  26  29
ENDBRANCH  20  26
ENDBRANCH  14  16
ENDBRANCH   6  14
BRANCH   3  46
ATOM     46  C31 8C5 d   1       5.823  27.163   4.802  0.00  0.00     0.018 C 
ATOM     47  C32 8C5 d   1       6.776  27.811   3.783  0.00  0.00    -0.046 C 
ATOM     48  C33 8C5 d   1       6.158  29.052   3.128  0.00  0.00    -0.063 C 
ATOM     49  H26 8C5 d   1       7.011  27.076   2.999  0.00  0.00     0.036 H 
ATOM     50  H27 8C5 d   1       7.701  28.106   4.300  0.00  0.00     0.036 H 
ATOM     51  C34 8C5 d   1       4.964  28.718   2.291  0.00  0.00    -0.065 C 
ATOM     52  H28 8C5 d   1       6.916  29.529   2.489  0.00  0.00     0.033 H 
ATOM     53  H29 8C5 d   1       5.851  29.753   3.918  0.00  0.00     0.033 H 
ATOM     54  C35 8C5 d   1       3.971  27.982   3.161  0.00  0.00    -0.063 C 
ATOM     55  H30 8C5 d   1       5.266  28.079   1.448  0.00  0.00     0.033 H 
ATOM     56  H31 8C5 d   1       4.509  29.642   1.906  0.00  0.00     0.033 H 
ATOM     57  C36 8C5 d   1       4.533  26.831   4.059  0.00  0.00    -0.046 C 
ATOM     58  H32 8C5 d   1       3.209  27.545   2.499  0.00  0.00     0.033 H 
ATOM     59  H33 8C5 d   1       3.499  28.721   3.825  0.00  0.00     0.033 H 
ATOM     60  H34 8C5 d   1       3.766  26.575   4.805  0.00  0.00     0.036 H 
ATOM     61  H35 8C5 d   1       4.724  25.959   3.416  0.00  0.00     0.036 H 
ATOM     62  H25 8C5 d   1       5.576  27.919   5.562  0.00  0.00     0.073 H 
ENDBRANCH   3  46
BRANCH   1  63
ATOM     63  C04 8C5 d   1       8.140  22.788   4.302  0.00  0.00     0.280 C 
ATOM     64  N03 8C5 d   1       8.930  21.714   4.803  0.00  0.00    -0.231 N 
ATOM     65  H4  8C5 d   1       9.321  21.799   5.720  0.00  0.00     0.197 HD
ATOM     66  O05 8C5 d   1       7.577  22.795   3.211  0.00  0.00    -0.265 OA
BRANCH  64  67
ATOM     67  O02 8C5 d   1       9.184  20.558   4.083  0.00  0.00    -0.282 OA
BRANCH  67  68
ATOM     68  C01 8C5 d   1      10.575  20.278   3.829  0.00  0.00     0.029 C 
ATOM     69  H1  8C5 d   1      10.662  19.344   3.254  0.00  0.00     0.069 H 
ATOM     70  H2  8C5 d   1      11.108  20.171   4.785  0.00  0.00     0.069 H 
ATOM     71  H3  8C5 d   1      11.016  21.105   3.253  0.00  0.00     0.069 H 
ENDBRANCH  67  68
ENDBRANCH  64  67
ENDBRANCH   1  63
TORSDOF 9
