REMARK WARNING: 32 MAX_TORS EXCEEDED!!!
REMARK  41 active torsions:
REMARK  status: ('A' for Active; 'I' for Inactive)
REMARK    1  A    between atoms: N_1  and  CA_2 
REMARK    2  A    between atoms: CA_2  and  C_3 
REMARK    3  A    between atoms: CA_2  and  CB_5 
REMARK       I    between atoms: C_3  and  N_10 
REMARK    4  A    between atoms: CB_5  and  CG_6 
REMARK    5  A    between atoms: CG_6  and  CD_7 
REMARK    6  A    between atoms: CD_7  and  CE_8 
REMARK    7  A    between atoms: CE_8  and  NZ_9 
REMARK    8  A    between atoms: N_10  and  CA_11 
REMARK    9  A    between atoms: CA_11  and  C_12 
REMARK   10  A    between atoms: CA_11  and  CB_14 
REMARK       I    between atoms: C_12  and  N_18 
REMARK   11  A    between atoms: CB_14  and  CG_15 
REMARK   12  A    between atoms: CG_15  and  CD1_16 
REMARK   13  A    between atoms: CG_15  and  CD2_17 
REMARK   14  A    between atoms: N_18  and  CA_19 
REMARK   15  A    between atoms: CA_19  and  C_20 
REMARK   16  A    between atoms: CA_19  and  CB_22 
REMARK       I    between atoms: C_20  and  N_30 
REMARK   17  A    between atoms: CB_22  and  CG_23 
REMARK   18  A    between atoms: CZ_28  and  OH_29 
REMARK   19  A    between atoms: N_30  and  CA_31 
REMARK   20  A    between atoms: CA_31  and  C_32 
REMARK   21  A    between atoms: CA_31  and  CB_34 
REMARK       I    between atoms: C_32  and  N_41 
REMARK   22  A    between atoms: CB_34  and  CG_35 
REMARK   23  A    between atoms: N_41  and  CA_42 
REMARK   24  A    between atoms: CA_42  and  C_43 
REMARK   25  A    between atoms: CA_42  and  CB_45 
REMARK       I    between atoms: C_43  and  N_49 
REMARK   26  A    between atoms: CB_45  and  CG_46 
REMARK   27  A    between atoms: CG_46  and  CD1_47 
REMARK   28  A    between atoms: CG_46  and  CD2_48 
REMARK   29  A    between atoms: CA_50  and  C_51 
REMARK       I    between atoms: C_51  and  N_56 
REMARK   30  A    between atoms: N_56  and  CA_57 
REMARK   31  A    between atoms: CA_57  and  C_58 
REMARK   32  A    between atoms: CA_57  and  CB_60 
REMARK       I    between atoms: C_58  and  N_67 
REMARK   33  A    between atoms: CB_60  and  CG_61 
REMARK   34  A    between atoms: CG_61  and  CD_62 
REMARK   35  A    between atoms: CD_62  and  NE_63 
REMARK       I    between atoms: NE_63  and  CZ_64 
REMARK       I    between atoms: CZ_64  and  NH1_65 
REMARK   36  A    between atoms: CA_68  and  C_69 
REMARK       I    between atoms: C_69  and  N_74 
REMARK   37  A    between atoms: N_74  and  CA_75 
REMARK   38  A    between atoms: CA_75  and  C_76 
REMARK   39  A    between atoms: CA_75  and  CB_78 
REMARK   40  A    between atoms: CB_78  and  OG1_79 
REMARK   41  A    between atoms: CB_78  and  CG2_80 
ROOT
ATOM      1  CA  ALC d   1     -42.184  32.088 -16.180  0.00  0.00     0.089 C 
ATOM      2  H37 ALC d   1     -42.660  33.004 -16.560  0.00  0.00     0.087 H 
ENDROOT
BRANCH   1   3
ATOM      3  N   ALC d   1     -41.931  31.195 -17.290  0.00  0.00    -0.346 N 
ATOM      4  C   TYR d   1     -42.270  31.664 -18.506  0.00  0.00     0.241 C 
ATOM      5  O   TYR d   1     -42.644  32.809 -18.765  0.00  0.00    -0.271 OA
ATOM      6  H36 ALC d   1     -41.530  30.288 -17.162  0.00  0.00     0.163 HD
BRANCH   4   7
ATOM      7  CA  TYR d   1     -42.204  30.579 -19.608  0.00  0.00     0.093 C 
ATOM      8  H28 TYR d   1     -42.559  29.635 -19.168  0.00  0.00     0.088 H 
BRANCH   7   9
ATOM      9  N   TYR d   1     -43.066  30.884 -20.751  0.00  0.00    -0.346 N 
ATOM     10  C   LEU d   1     -44.323  30.479 -20.810  0.00  0.00     0.241 C 
ATOM     11  O   LEU d   1     -44.857  29.829 -19.937  0.00  0.00    -0.271 OA
ATOM     12  H27 TYR d   1     -42.692  31.416 -21.511  0.00  0.00     0.163 HD
BRANCH  10  13
ATOM     13  CA  LEU d   1     -45.089  30.907 -22.041  0.00  0.00     0.089 C 
ATOM     14  H17 LEU d   1     -44.515  31.694 -22.552  0.00  0.00     0.087 H 
BRANCH  13  15
ATOM     15  N   LEU d   1     -45.235  29.767 -22.981  0.00  0.00    -0.346 N 
ATOM     16  C   LYS d   1     -44.426  29.607 -24.025  0.00  0.00     0.248 C 
ATOM     17  O   LYS d   1     -43.647  30.475 -24.447  0.00  0.00    -0.271 OA
ATOM     18  H16 LEU d   1     -45.963  29.100 -22.825  0.00  0.00     0.163 HD
BRANCH  16  19
ATOM     19  CA  LYS d   1     -44.556  28.262 -24.713  0.00  0.00     0.176 C 
ATOM     20  H4  LYS d   1     -43.749  28.144 -25.452  0.00  0.00     0.099 H 
BRANCH  19  21
ATOM     21  N   LYS d   1     -44.459  27.169 -23.694  0.00  0.00    -0.067 N 
ATOM     22  H1  LYS d   1     -44.545  26.275 -24.151  0.00  0.00     0.275 HD
ATOM     23  H2  LYS d   1     -45.199  27.273 -23.018  0.00  0.00     0.275 HD
ATOM     24  H3  LYS d   1     -43.567  27.223 -23.227  0.00  0.00     0.275 HD
ENDBRANCH  19  21
BRANCH  19  25
ATOM     25  CB  LYS d   1     -45.900  28.211 -25.417  0.00  0.00    -0.030 C 
ATOM     26  H5  LYS d   1     -46.695  28.237 -24.657  0.00  0.00     0.036 H 
ATOM     27  H6  LYS d   1     -45.964  27.270 -25.983  0.00  0.00     0.036 H 
BRANCH  25  28
ATOM     28  CG  LYS d   1     -46.112  29.372 -26.381  0.00  0.00    -0.061 C 
ATOM     29  H7  LYS d   1     -45.194  29.522 -26.968  0.00  0.00     0.033 H 
ATOM     30  H8  LYS d   1     -46.330  30.282 -25.803  0.00  0.00     0.033 H 
BRANCH  28  31
ATOM     31  CD  LYS d   1     -47.269  29.099 -27.331  0.00  0.00    -0.043 C 
ATOM     32  H9  LYS d   1     -47.413  29.975 -27.980  0.00  0.00     0.035 H 
ATOM     33  H10 LYS d   1     -48.182  28.924 -26.743  0.00  0.00     0.035 H 
BRANCH  31  34
ATOM     34  CE  LYS d   1     -47.000  27.887 -28.193  0.00  0.00     0.080 C 
ATOM     35  H11 LYS d   1     -47.176  26.977 -27.601  0.00  0.00     0.075 H 
ATOM     36  H12 LYS d   1     -45.953  27.909 -28.530  0.00  0.00     0.075 H 
BRANCH  34  37
ATOM     37  NZ  LYS d   1     -47.897  27.878 -29.384  0.00  0.00    -0.079 N 
ATOM     38  H13 LYS d   1     -47.702  27.064 -29.945  0.00  0.00     0.274 HD
ATOM     39  H14 LYS d   1     -47.737  28.709 -29.931  0.00  0.00     0.274 HD
ATOM     40  H15 LYS d   1     -48.858  27.855 -29.081  0.00  0.00     0.274 HD
ENDBRANCH  34  37
ENDBRANCH  31  34
ENDBRANCH  28  31
ENDBRANCH  25  28
ENDBRANCH  19  25
ENDBRANCH  16  19
ENDBRANCH  13  15
BRANCH  13  41
ATOM     41  CB  LEU d   1     -46.447  31.505 -21.619  0.00  0.00    -0.035 C 
ATOM     42  H18 LEU d   1     -47.017  30.722 -21.097  0.00  0.00     0.037 H 
ATOM     43  H19 LEU d   1     -46.985  31.805 -22.530  0.00  0.00     0.037 H 
BRANCH  41  44
ATOM     44  CG  LEU d   1     -46.358  32.731 -20.690  0.00  0.00    -0.059 C 
ATOM     45  H20 LEU d   1     -45.874  32.408 -19.756  0.00  0.00     0.038 H 
BRANCH  44  46
ATOM     46  CD1 LEU d   1     -45.500  33.815 -21.314  0.00  0.00    -0.073 C 
ATOM     47  H21 LEU d   1     -45.450  34.679 -20.635  0.00  0.00     0.028 H 
ATOM     48  H22 LEU d   1     -45.942  34.126 -22.272  0.00  0.00     0.028 H 
ATOM     49  H23 LEU d   1     -44.486  33.426 -21.487  0.00  0.00     0.028 H 
ENDBRANCH  44  46
BRANCH  44  50
ATOM     50  CD2 LEU d   1     -47.754  33.296 -20.328  0.00  0.00    -0.073 C 
ATOM     51  H24 LEU d   1     -48.366  32.501 -19.877  0.00  0.00     0.028 H 
ATOM     52  H25 LEU d   1     -48.247  33.666 -21.239  0.00  0.00     0.028 H 
ATOM     53  H26 LEU d   1     -47.640  34.123 -19.611  0.00  0.00     0.028 H 
ENDBRANCH  44  50
ENDBRANCH  41  44
ENDBRANCH  13  41
ENDBRANCH  10  13
ENDBRANCH   7   9
BRANCH   7  54
ATOM     54  CB  TYR d   1     -40.761  30.376 -20.059  0.00  0.00    -0.014 C 
ATOM     55  H29 TYR d   1     -40.103  30.433 -19.180  0.00  0.00     0.043 H 
ATOM     56  H30 TYR d   1     -40.495  31.174 -20.768  0.00  0.00     0.043 H 
BRANCH  54  57
ATOM     57  CG  TYR d   1     -40.562  29.048 -20.727  0.00  0.00    -0.056 A 
ATOM     58  CD1 TYR d   1     -40.340  27.910 -19.973  0.00  0.00    -0.074 A 
ATOM     59  CE1 TYR d   1     -40.156  26.679 -20.576  0.00  0.00    -0.051 A 
ATOM     60  H31 TYR d   1     -40.310  27.984 -18.892  0.00  0.00     0.084 H 
ATOM     61  CZ  TYR d   1     -40.213  26.585 -21.949  0.00  0.00     0.065 A 
ATOM     62  H33 TYR d   1     -39.969  25.797 -19.974  0.00  0.00     0.087 H 
ATOM     63  CE2 TYR d   1     -40.432  27.708 -22.717  0.00  0.00    -0.051 A 
ATOM     64  CD2 TYR d   1     -40.609  28.926 -22.108  0.00  0.00    -0.074 A 
ATOM     65  H34 TYR d   1     -40.464  27.630 -23.798  0.00  0.00     0.087 H 
ATOM     66  H32 TYR d   1     -40.788  29.806 -22.716  0.00  0.00     0.084 H 
BRANCH  61  67
ATOM     67  OH  TYR d   1     -40.024  25.356 -22.548  0.00  0.00    -0.361 OA
ATOM     68  H35 TYR d   1     -39.888  24.696 -21.878  0.00  0.00     0.217 HD
ENDBRANCH  61  67
ENDBRANCH  54  57
ENDBRANCH   7  54
ENDBRANCH   4   7
ENDBRANCH   1   3
BRANCH   1  69
ATOM     69  C   ALC d   1     -40.866  32.446 -15.519  0.00  0.00     0.241 C 
ATOM     70  O   ALC d   1     -40.000  31.584 -15.456  0.00  0.00    -0.271 OA
ATOM     71  N   LEU d   1     -40.790  33.522 -14.819  0.00  0.00    -0.346 N 
ATOM     72  H51 LEU d   1     -41.654  33.991 -14.636  0.00  0.00     0.163 HD
BRANCH  71  73
ATOM     73  CA  LEU d   1     -39.565  34.152 -14.249  0.00  0.00     0.090 C 
ATOM     74  H52 LEU d   1     -38.696  33.552 -14.557  0.00  0.00     0.087 H 
BRANCH  73  75
ATOM     75  C   LEU d   1     -39.597  34.216 -12.726  0.00  0.00     0.243 C 
ATOM     76  O   LEU d   1     -40.575  34.648 -12.122  0.00  0.00    -0.271 OA
ATOM     77  N   PRO d   1     -38.497  33.845 -12.093  0.00  0.00    -0.337 N 
ATOM     78  CA  PRO d   1     -38.537  34.010 -10.647  0.00  0.00     0.091 C 
ATOM     79  CD  PRO d   1     -37.161  33.465 -12.589  0.00  0.00    -0.001 C 
ATOM     80  CB  PRO d   1     -37.295  33.248 -10.182  0.00  0.00    -0.036 C 
ATOM     81  H62 PRO d   1     -39.452  33.551 -10.245  0.00  0.00     0.087 H 
ATOM     82  CG  PRO d   1     -36.330  33.350 -11.313  0.00  0.00    -0.048 C 
ATOM     83  H63 PRO d   1     -37.541  32.195  -9.979  0.00  0.00     0.036 H 
ATOM     84  H64 PRO d   1     -36.877  33.709  -9.275  0.00  0.00     0.036 H 
ATOM     85  H65 PRO d   1     -35.696  32.452 -11.353  0.00  0.00     0.035 H 
ATOM     86  H66 PRO d   1     -35.696  34.241 -11.192  0.00  0.00     0.035 H 
ATOM     87  H67 PRO d   1     -36.754  34.239 -13.256  0.00  0.00     0.064 H 
ATOM     88  H68 PRO d   1     -37.198  32.504 -13.123  0.00  0.00     0.064 H 
BRANCH  78  89
ATOM     89  C   PRO d   1     -38.468  35.453 -10.162  0.00  0.00     0.241 C 
ATOM     90  O   PRO d   1     -37.974  36.346 -10.835  0.00  0.00    -0.271 OA
ATOM     91  N   ARG d   1     -38.970  35.631  -8.955  0.00  0.00    -0.346 N 
ATOM     92  H69 ARG d   1     -39.476  34.880  -8.532  0.00  0.00     0.163 HD
BRANCH  91  93
ATOM     93  CA  ARG d   1     -38.817  36.889  -8.203  0.00  0.00     0.089 C 
ATOM     94  H70 ARG d   1     -39.082  37.721  -8.871  0.00  0.00     0.087 H 
BRANCH  93  95
ATOM     95  C   ARG d   1     -37.375  37.067  -7.749  0.00  0.00     0.243 C 
ATOM     96  O   ARG d   1     -36.628  36.084  -7.603  0.00  0.00    -0.271 OA
ATOM     97  N   PRO d   1     -36.967  38.328  -7.526  0.00  0.00    -0.337 N 
ATOM     98  CA  PRO d   1     -35.609  38.506  -7.043  0.00  0.00     0.091 C 
ATOM     99  CD  PRO d   1     -37.615  39.601  -7.874  0.00  0.00    -0.001 C 
ATOM    100  CB  PRO d   1     -35.333  40.005  -7.241  0.00  0.00    -0.036 C 
ATOM    101  H82 PRO d   1     -34.913  37.903  -7.645  0.00  0.00     0.087 H 
ATOM    102  CG  PRO d   1     -36.464  40.525  -8.091  0.00  0.00    -0.048 C 
ATOM    103  H83 PRO d   1     -34.371  40.152  -7.753  0.00  0.00     0.036 H 
ATOM    104  H84 PRO d   1     -35.315  40.522  -6.270  0.00  0.00     0.036 H 
ATOM    105  H85 PRO d   1     -36.173  40.527  -9.152  0.00  0.00     0.035 H 
ATOM    106  H86 PRO d   1     -36.733  41.546  -7.783  0.00  0.00     0.035 H 
ATOM    107  H87 PRO d   1     -38.255  39.955  -7.052  0.00  0.00     0.064 H 
ATOM    108  H88 PRO d   1     -38.217  39.499  -8.789  0.00  0.00     0.064 H 
BRANCH  98 109
ATOM    109  C   PRO d   1     -35.448  38.130  -5.597  0.00  0.00     0.241 C 
ATOM    110  O   PRO d   1     -36.392  38.190  -4.800  0.00  0.00    -0.271 OA
ATOM    111  N   THR d   1     -34.225  37.702  -5.329  0.00  0.00    -0.346 N 
ATOM    112  H89 THR d   1     -33.601  37.580  -6.101  0.00  0.00     0.163 HD
BRANCH 111 113
ATOM    113  CA  THR d   1     -33.711  37.393  -3.994  0.00  0.00     0.087 C 
ATOM    114  H90 THR d   1     -32.618  37.293  -4.074  0.00  0.00     0.087 H 
BRANCH 113 115
ATOM    115  C   THR d   1     -34.274  36.085  -3.491  0.00  0.00     0.112 C 
ATOM    116  O   THR d   1     -33.655  35.042  -3.686  0.00  0.00    -0.305 OA
ATOM    117  H91 THR d   1     -35.224  36.067  -2.958  0.00  0.00     0.146 H 
ENDBRANCH 113 115
BRANCH 113 118
ATOM    118  CB  THR d   1     -34.012  38.492  -2.961  0.00  0.00     0.058 C 
ATOM    119  H92 THR d   1     -35.072  38.439  -2.674  0.00  0.00     0.086 H 
BRANCH 118 120
ATOM    120  OG1 THR d   1     -33.734  39.787  -3.519  0.00  0.00    -0.393 OA
ATOM    121  H93 THR d   1     -33.924  40.457  -2.872  0.00  0.00     0.210 HD
ENDBRANCH 118 120
BRANCH 118 122
ATOM    122  CG2 THR d   1     -33.141  38.282  -1.729  0.00  0.00    -0.050 C 
ATOM    123  H94 THR d   1     -33.356  39.068  -0.990  0.00  0.00     0.031 H 
ATOM    124  H95 THR d   1     -32.081  38.330  -2.017  0.00  0.00     0.031 H 
ATOM    125  H96 THR d   1     -33.358  37.297  -1.290  0.00  0.00     0.031 H 
ENDBRANCH 118 122
ENDBRANCH 113 118
ENDBRANCH 111 113
ENDBRANCH  98 109
ENDBRANCH  93  95
BRANCH  93 126
ATOM    126  CB  ARG d   1     -39.736  36.941  -6.976  0.00  0.00    -0.036 C 
ATOM    127  H71 ARG d   1     -40.767  36.746  -7.307  0.00  0.00     0.036 H 
ATOM    128  H72 ARG d   1     -39.675  37.949  -6.541  0.00  0.00     0.036 H 
BRANCH 126 129
ATOM    129  CG  ARG d   1     -39.381  35.926  -5.889  0.00  0.00    -0.048 C 
ATOM    130  H73 ARG d   1     -38.342  36.098  -5.573  0.00  0.00     0.035 H 
ATOM    131  H74 ARG d   1     -39.474  34.914  -6.309  0.00  0.00     0.035 H 
BRANCH 129 132
ATOM    132  CD  ARG d   1     -40.285  36.030  -4.666  0.00  0.00     0.009 C 
ATOM    133  H75 ARG d   1     -40.475  35.020  -4.273  0.00  0.00     0.064 H 
ATOM    134  H76 ARG d   1     -41.237  36.494  -4.961  0.00  0.00     0.064 H 
BRANCH 132 135
ATOM    135  NE  ARG d   1     -39.663  36.840  -3.621  0.00  0.00    -0.227 N 
ATOM    136  CZ  ARG d   1     -38.548  36.502  -2.969  0.00  0.00     0.665 C 
ATOM    137  NH1 ARG d   1     -37.919  35.360  -3.251  0.00  0.00    -0.235 N 
ATOM    138  NH2 ARG d   1     -38.054  37.314  -2.038  0.00  0.00    -0.235 N 
ATOM    139  H78 ARG d   1     -37.059  35.107  -2.743  0.00  0.00     0.174 HD
ATOM    140  H79 ARG d   1     -38.293  34.732  -3.976  0.00  0.00     0.174 HD
ATOM    141  H80 ARG d   1     -38.536  38.197  -1.817  0.00  0.00     0.174 HD
ATOM    142  H81 ARG d   1     -37.190  37.060  -1.539  0.00  0.00     0.174 HD
ATOM    143  H77 ARG d   1     -40.115  37.731  -3.371  0.00  0.00     0.177 HD
ENDBRANCH 132 135
ENDBRANCH 129 132
ENDBRANCH 126 129
ENDBRANCH  93 126
ENDBRANCH  91  93
ENDBRANCH  78  89
ENDBRANCH  73  75
BRANCH  73 144
ATOM    144  CB  LEU d   1     -39.404  35.569 -14.781  0.00  0.00    -0.035 C 
ATOM    145  H53 LEU d   1     -38.623  36.064 -14.185  0.00  0.00     0.037 H 
ATOM    146  H54 LEU d   1     -40.361  36.091 -14.638  0.00  0.00     0.037 H 
BRANCH 144 147
ATOM    147  CG  LEU d   1     -39.019  35.700 -16.249  0.00  0.00    -0.059 C 
ATOM    148  H55 LEU d   1     -39.778  35.191 -16.861  0.00  0.00     0.038 H 
BRANCH 147 149
ATOM    149  CD1 LEU d   1     -38.983  37.179 -16.649  0.00  0.00    -0.073 C 
ATOM    150  H56 LEU d   1     -38.704  37.265 -17.710  0.00  0.00     0.028 H 
ATOM    151  H57 LEU d   1     -38.242  37.708 -16.031  0.00  0.00     0.028 H 
ATOM    152  H58 LEU d   1     -39.976  37.625 -16.493  0.00  0.00     0.028 H 
ENDBRANCH 147 149
BRANCH 147 153
ATOM    153  CD2 LEU d   1     -37.691  35.042 -16.491  0.00  0.00    -0.073 C 
ATOM    154  H59 LEU d   1     -37.747  33.984 -16.195  0.00  0.00     0.028 H 
ATOM    155  H60 LEU d   1     -36.917  35.548 -15.896  0.00  0.00     0.028 H 
ATOM    156  H61 LEU d   1     -37.437  35.111 -17.559  0.00  0.00     0.028 H 
ENDBRANCH 147 153
ENDBRANCH 144 147
ENDBRANCH  73 144
ENDBRANCH  71  73
ENDBRANCH   1  69
BRANCH   1 157
ATOM    157  CB  ALC d   1     -43.104  31.445 -15.158  0.00  0.00    -0.035 C 
ATOM    158  H38 ALC d   1     -43.356  32.188 -14.388  0.00  0.00     0.037 H 
ATOM    159  H39 ALC d   1     -42.582  30.597 -14.692  0.00  0.00     0.037 H 
BRANCH 157 160
ATOM    160  CG  ALC d   1     -44.391  30.941 -15.799  0.00  0.00    -0.052 C 
ATOM    161  CD2 ALC d   1     -45.262  30.408 -14.690  0.00  0.00    -0.062 C 
ATOM    162  CE2 ALC d   1     -46.476  29.767 -15.312  0.00  0.00    -0.065 C 
ATOM    163  H41 ALC d   1     -45.572  31.232 -14.031  0.00  0.00     0.033 H 
ATOM    164  H42 ALC d   1     -44.705  29.661 -14.105  0.00  0.00     0.033 H 
ATOM    165  CZ  ALC d   1     -47.296  30.885 -15.936  0.00  0.00    -0.065 C 
ATOM    166  H43 ALC d   1     -47.067  29.249 -14.542  0.00  0.00     0.033 H 
ATOM    167  H44 ALC d   1     -46.169  29.047 -16.085  0.00  0.00     0.033 H 
ATOM    168  CE1 ALC d   1     -46.439  31.581 -16.982  0.00  0.00    -0.065 C 
ATOM    169  H45 ALC d   1     -47.593  31.605 -15.160  0.00  0.00     0.033 H 
ATOM    170  H46 ALC d   1     -48.195  30.466 -16.411  0.00  0.00     0.033 H 
ATOM    171  CD1 ALC d   1     -45.176  32.104 -16.329  0.00  0.00    -0.062 C 
ATOM    172  H47 ALC d   1     -47.001  32.420 -17.418  0.00  0.00     0.033 H 
ATOM    173  H48 ALC d   1     -46.173  30.866 -17.774  0.00  0.00     0.033 H 
ATOM    174  H49 ALC d   1     -44.574  32.649 -17.071  0.00  0.00     0.033 H 
ATOM    175  H50 ALC d   1     -45.440  32.780 -15.502  0.00  0.00     0.033 H 
ATOM    176  H40 ALC d   1     -44.186  30.190 -16.576  0.00  0.00     0.040 H 
ENDBRANCH 157 160
ENDBRANCH   1 157
TORSDOF 41
