REMARK  6 active torsions:
REMARK  status: ('A' for Active; 'I' for Inactive)
REMARK    1  A    between atoms: C8_3  and  O7_4 
REMARK    2  A    between atoms: O7_4  and  C4_5 
REMARK    3  A    between atoms: C10_16  and  O14_18 
REMARK    4  A    between atoms: O14_18  and  C15_19 
REMARK    5  A    between atoms: C15_19  and  C16_20 
REMARK    6  A    between atoms: C23_25  and  N25_26 
ROOT
ATOM      1  C4  R8E d   1      10.894  12.512  18.492  0.00  0.00     0.079 A 
ATOM      2  C3  R8E d   1      10.459  11.694  19.559  0.00  0.00    -0.030 A 
ATOM      3  C2  R8E d   1      10.101  12.237  20.792  0.00  0.00     0.049 A 
ATOM      4  C26 R8E d   1       9.768  11.491  21.784  0.00  0.00     0.099 C 
ATOM      5  N27 R8E d   1       9.483  10.850  22.638  0.00  0.00    -0.191 NA
ATOM      6  C5  R8E d   1      10.942  13.914  18.647  0.00  0.00    -0.029 A 
ATOM      7  C6  R8E d   1      10.581  14.439  19.922  0.00  0.00     0.038 A 
ATOM      8 CL28 R8E d   1      10.609  16.184  20.297  0.00  0.00    -0.084 Cl
ATOM      9  C1  R8E d   1      10.175  13.645  20.995  0.00  0.00    -0.042 A 
ATOM     10  H1  R8E d   1      10.402  10.621  19.416  0.00  0.00     0.090 H 
ATOM     11  H2  R8E d   1      11.240  14.563  17.832  0.00  0.00     0.090 H 
ATOM     12  H3  R8E d   1       9.924  14.086  21.953  0.00  0.00     0.088 H 
ENDROOT
BRANCH   1  13
ATOM     13  O7  R8E d   1      11.234  11.904  17.267  0.00  0.00    -0.309 OA
BRANCH  13  14
ATOM     14  C8  R8E d   1      10.543  12.252  16.162  0.00  0.00     0.100 A 
ATOM     15  C13 R8E d   1      11.325  12.369  15.118  0.00  0.00     0.068 A 
ATOM     16 CL29 R8E d   1      13.019  11.983  15.496  0.00  0.00    -0.081 Cl
ATOM     17  C12 R8E d   1      10.890  12.772  13.897  0.00  0.00    -0.057 A 
ATOM     18  C11 R8E d   1       9.555  13.051  13.865  0.00  0.00    -0.049 A 
ATOM     19  H4  R8E d   1      11.539  12.863  13.033  0.00  0.00     0.086 H 
ATOM     20  C10 R8E d   1       8.731  12.936  14.905  0.00  0.00     0.071 A 
ATOM     21  H5  R8E d   1       9.135  13.391  12.925  0.00  0.00     0.087 H 
ATOM     22  C9  R8E d   1       9.178  12.506  16.097  0.00  0.00    -0.016 A 
ATOM     23  H6  R8E d   1       8.521  12.367  16.948  0.00  0.00     0.092 H 
BRANCH  20  24
ATOM     24  O14 R8E d   1       7.421  13.270  14.769  0.00  0.00    -0.345 OA
BRANCH  24  25
ATOM     25  C15 R8E d   1       6.656  13.121  13.615  0.00  0.00     0.066 C 
ATOM     26  H7  R8E d   1       7.153  13.552  12.733  0.00  0.00     0.084 H 
ATOM     27  H8  R8E d   1       5.655  13.565  13.725  0.00  0.00     0.084 H 
BRANCH  25  28
ATOM     28  C16 R8E d   1       6.602  11.626  13.553  0.00  0.00     0.066 A 
ATOM     29  N20 R8E d   1       6.855  10.904  12.450  0.00  0.00    -0.277 N 
ATOM     30  N19 R8E d   1       6.718   9.556  12.837  0.00  0.00    -0.153 NA
ATOM     31  H9  R8E d   1       7.099  11.261  11.515  0.00  0.00     0.189 HD
ATOM     32  C18 R8E d   1       6.382   9.385  14.085  0.00  0.00     0.183 A 
ATOM     33  N24 R8E d   1       6.150   8.288  14.801  0.00  0.00    -0.210 NA
ATOM     34  C17 R8E d   1       6.277  10.630  14.662  0.00  0.00     0.040 A 
ATOM     35  C23 R8E d   1       5.806   8.349  16.108  0.00  0.00     0.123 A 
ATOM     36  C22 R8E d   1       5.676   9.564  16.765  0.00  0.00    -0.038 A 
ATOM     37  C21 R8E d   1       5.927  10.739  16.025  0.00  0.00    -0.064 A 
ATOM     38  H12 R8E d   1       5.392   9.609  17.810  0.00  0.00     0.089 H 
ATOM     39  H13 R8E d   1       5.852  11.712  16.497  0.00  0.00     0.085 H 
BRANCH  35  40
ATOM     40  N25 R8E d   1       5.601   7.053  16.792  0.00  0.00    -0.384 N 
ATOM     41  H10 R8E d   1       5.338   7.032  17.788  0.00  0.00     0.157 HD
ATOM     42  H11 R8E d   1       5.722   6.172  16.273  0.00  0.00     0.157 HD
ENDBRANCH  35  40
ENDBRANCH  25  28
ENDBRANCH  24  25
ENDBRANCH  20  24
ENDBRANCH  13  14
ENDBRANCH   1  13
TORSDOF 6
