REMARK  6 active torsions:
REMARK  status: ('A' for Active; 'I' for Inactive)
REMARK    1  A    between atoms: C8_3  and  O7_4 
REMARK    2  A    between atoms: O7_4  and  C4_5 
REMARK    3  A    between atoms: C10_16  and  O14_18 
REMARK    4  A    between atoms: O14_18  and  C15_19 
REMARK    5  A    between atoms: C15_19  and  C16_20 
REMARK    6  A    between atoms: C23_25  and  N25_26 
ROOT
ATOM      1  C4  R8E d   1      10.809  12.497  18.610  0.00  0.00     0.079 A 
ATOM      2  C3  R8E d   1      10.522  11.679  19.661  0.00  0.00    -0.030 A 
ATOM      3  C2  R8E d   1      10.198  12.247  20.909  0.00  0.00     0.049 A 
ATOM      4  C26 R8E d   1       9.995  11.425  21.782  0.00  0.00     0.099 C 
ATOM      5  N27 R8E d   1       9.816  10.689  22.561  0.00  0.00    -0.191 NA
ATOM      6  C5  R8E d   1      10.816  13.813  18.823  0.00  0.00    -0.029 A 
ATOM      7  C6  R8E d   1      10.512  14.377  20.056  0.00  0.00     0.038 A 
ATOM      8 CL28 R8E d   1      10.563  16.134  19.971  0.00  0.00    -0.084 Cl
ATOM      9  C1  R8E d   1      10.179  13.643  21.186  0.00  0.00    -0.042 A 
ATOM     10  H1  R8E d   1      10.543  10.602  19.538  0.00  0.00     0.090 H 
ATOM     11  H2  R8E d   1      11.069  14.471  18.000  0.00  0.00     0.090 H 
ATOM     12  H3  R8E d   1       9.937  14.075  22.150  0.00  0.00     0.088 H 
ENDROOT
BRANCH   1  13
ATOM     13  O7  R8E d   1      11.097  12.034  17.362  0.00  0.00    -0.309 OA
BRANCH  13  14
ATOM     14  C8  R8E d   1      10.492  12.403  16.124  0.00  0.00     0.100 A 
ATOM     15  C13 R8E d   1      11.328  12.473  15.058  0.00  0.00     0.068 A 
ATOM     16 CL29 R8E d   1      13.010  12.085  15.470  0.00  0.00    -0.081 Cl
ATOM     17  C12 R8E d   1      10.910  12.805  13.761  0.00  0.00    -0.057 A 
ATOM     18  C11 R8E d   1       9.559  13.070  13.582  0.00  0.00    -0.049 A 
ATOM     19  H4  R8E d   1      11.611  12.853  12.935  0.00  0.00     0.086 H 
ATOM     20  C10 R8E d   1       8.663  12.997  14.639  0.00  0.00     0.071 A 
ATOM     21  H5  R8E d   1       9.197  13.339  12.597  0.00  0.00     0.087 H 
ATOM     22  C9  R8E d   1       9.127  12.653  15.912  0.00  0.00    -0.016 A 
ATOM     23  H6  R8E d   1       8.430  12.579  16.739  0.00  0.00     0.092 H 
BRANCH  20  24
ATOM     24  O14 R8E d   1       7.317  13.247  14.489  0.00  0.00    -0.345 OA
BRANCH  24  25
ATOM     25  C15 R8E d   1       6.550  12.861  13.419  0.00  0.00     0.066 C 
ATOM     26  H7  R8E d   1       6.993  13.216  12.477  0.00  0.00     0.084 H 
ATOM     27  H8  R8E d   1       5.527  13.254  13.514  0.00  0.00     0.084 H 
BRANCH  25  28
ATOM     28  C16 R8E d   1       6.546  11.360  13.468  0.00  0.00     0.066 A 
ATOM     29  N20 R8E d   1       6.827  10.497  12.450  0.00  0.00    -0.277 N 
ATOM     30  N19 R8E d   1       6.664   9.196  12.907  0.00  0.00    -0.153 NA
ATOM     31  H9  R8E d   1       7.113  10.766  11.498  0.00  0.00     0.189 HD
ATOM     32  C18 R8E d   1       6.299   9.213  14.175  0.00  0.00     0.183 A 
ATOM     33  N24 R8E d   1       6.048   8.227  15.005  0.00  0.00    -0.210 NA
ATOM     34  C17 R8E d   1       6.214  10.502  14.627  0.00  0.00     0.040 A 
ATOM     35  C23 R8E d   1       5.713   8.467  16.264  0.00  0.00     0.123 A 
ATOM     36  C22 R8E d   1       5.654   9.739  16.822  0.00  0.00    -0.038 A 
ATOM     37  C21 R8E d   1       5.861  10.810  15.948  0.00  0.00    -0.064 A 
ATOM     38  H12 R8E d   1       5.458   9.892  17.877  0.00  0.00     0.089 H 
ATOM     39  H13 R8E d   1       5.753  11.837  16.278  0.00  0.00     0.085 H 
BRANCH  35  40
ATOM     40  N25 R8E d   1       5.453   7.280  17.060  0.00  0.00    -0.384 N 
ATOM     41  H10 R8E d   1       5.186   7.372  18.050  0.00  0.00     0.157 HD
ATOM     42  H11 R8E d   1       5.536   6.346  16.634  0.00  0.00     0.157 HD
ENDBRANCH  35  40
ENDBRANCH  25  28
ENDBRANCH  24  25
ENDBRANCH  20  24
ENDBRANCH  13  14
ENDBRANCH   1  13
TORSDOF 6
