REMARK  6 active torsions:
REMARK  status: ('A' for Active; 'I' for Inactive)
REMARK    1  A    between atoms: C8_3  and  O7_4 
REMARK    2  A    between atoms: O7_4  and  C4_5 
REMARK    3  A    between atoms: C2_7  and  C25_8 
REMARK    4  A    between atoms: C10_16  and  O14_18 
REMARK    5  A    between atoms: O14_18  and  C15_19 
REMARK    6  A    between atoms: C15_19  and  C16_20 
ROOT
ATOM      1 CL28 R8D d   1      12.395  12.100  15.407  0.00  0.00    -0.081 Cl
ATOM      2  C13 R8D d   1      10.695  12.536  14.957  0.00  0.00     0.068 A 
ATOM      3  C8  R8D d   1       9.805  12.370  15.950  0.00  0.00     0.100 A 
ATOM      4  C12 R8D d   1      10.294  12.993  13.719  0.00  0.00    -0.057 A 
ATOM      5  C11 R8D d   1       8.941  13.247  13.532  0.00  0.00    -0.049 A 
ATOM      6  C10 R8D d   1       8.030  13.015  14.545  0.00  0.00     0.071 A 
ATOM      7  C9  R8D d   1       8.434  12.572  15.838  0.00  0.00    -0.016 A 
ATOM      8  H6  R8D d   1      11.010  13.149  12.920  0.00  0.00     0.086 H 
ATOM      9  H7  R8D d   1       8.595  13.632  12.579  0.00  0.00     0.087 H 
ATOM     10  H8  R8D d   1       7.740  12.409  16.654  0.00  0.00     0.092 H 
ENDROOT
BRANCH   6  11
ATOM     11  O14 R8D d   1       6.728  13.233  14.165  0.00  0.00    -0.345 OA
BRANCH  11  12
ATOM     12  C15 R8D d   1       5.759  12.208  14.453  0.00  0.00     0.066 C 
ATOM     13  H9  R8D d   1       4.795  12.541  14.041  0.00  0.00     0.084 H 
ATOM     14  H10 R8D d   1       5.682  12.126  15.547  0.00  0.00     0.084 H 
BRANCH  12  15
ATOM     15  C16 R8D d   1       6.024  10.844  13.921  0.00  0.00     0.066 A 
ATOM     16  N20 R8D d   1       6.571  10.563  12.710  0.00  0.00    -0.277 N 
ATOM     17  N19 R8D d   1       6.702   9.142  12.573  0.00  0.00    -0.154 NA
ATOM     18  H11 R8D d   1       6.847  11.259  12.003  0.00  0.00     0.189 HD
ATOM     19  C18 R8D d   1       6.237   8.483  13.703  0.00  0.00     0.181 A 
ATOM     20  N24 R8D d   1       6.128   7.122  14.106  0.00  0.00    -0.239 NA
ATOM     21  C17 R8D d   1       5.794   9.489  14.589  0.00  0.00     0.040 A 
ATOM     22  C23 R8D d   1       5.608   6.715  15.317  0.00  0.00     0.005 A 
ATOM     23  C22 R8D d   1       5.151   7.686  16.198  0.00  0.00    -0.065 A 
ATOM     24  H12 R8D d   1       5.557   5.663  15.575  0.00  0.00     0.114 H 
ATOM     25  C21 R8D d   1       5.270   9.072  15.842  0.00  0.00    -0.066 A 
ATOM     26  H13 R8D d   1       4.709   7.401  17.145  0.00  0.00     0.085 H 
ATOM     27  H14 R8D d   1       4.949   9.825  16.553  0.00  0.00     0.085 H 
ENDBRANCH  12  15
ENDBRANCH  11  12
ENDBRANCH   6  11
BRANCH   3  28
ATOM     28  O7  R8D d   1      10.503  11.953  17.004  0.00  0.00    -0.309 OA
BRANCH  28  29
ATOM     29  C4  R8D d   1      10.459  12.419  18.226  0.00  0.00     0.078 A 
ATOM     30  C3  R8D d   1      10.189  11.512  19.232  0.00  0.00    -0.039 A 
ATOM     31  C2  R8D d   1      10.092  11.846  20.563  0.00  0.00    -0.015 A 
ATOM     32  H1  R8D d   1      10.045  10.474  18.956  0.00  0.00     0.089 H 
ATOM     33  C1  R8D d   1      10.286  13.181  20.855  0.00  0.00    -0.051 A 
ATOM     34  C6  R8D d   1      10.561  13.971  19.772  0.00  0.00     0.037 A 
ATOM     35  H5  R8D d   1      10.225  13.573  21.864  0.00  0.00     0.087 H 
ATOM     36  C5  R8D d   1      10.669  13.690  18.469  0.00  0.00    -0.029 A 
ATOM     37 CL27 R8D d   1      10.785  15.582  20.041  0.00  0.00    -0.084 Cl
ATOM     38  H4  R8D d   1      10.902  14.424  17.706  0.00  0.00     0.090 H 
BRANCH  31  39
ATOM     39  C25 R8D d   1       9.884  10.953  21.491  0.00  0.00     0.004 C 
ATOM     40  N26 R8D d   1       9.693  10.110  22.369  0.00  0.00    -0.311 NA
ATOM     41  H3  R8D d   1       8.777   9.706  22.489  0.00  0.00     0.186 HD
ATOM     42  H2  R8D d   1       8.795  10.953  21.491  0.00  0.00     0.115 H 
ENDBRANCH  31  39
ENDBRANCH  28  29
ENDBRANCH   3  28
TORSDOF 6
