REMARK WARNING: 32 MAX_TORS EXCEEDED!!!
REMARK  53 active torsions:
REMARK  status: ('A' for Active; 'I' for Inactive)
REMARK    1  A    between atoms: N_1  and  CA_2 
REMARK    2  A    between atoms: CA_2  and  C_3 
REMARK    3  A    between atoms: CA_2  and  CB_5 
REMARK       I    between atoms: C_3  and  N_9 
REMARK    4  A    between atoms: CB_5  and  CG1_6 
REMARK    5  A    between atoms: CB_5  and  CG2_7 
REMARK    6  A    between atoms: CG1_6  and  CD1_8 
REMARK    7  A    between atoms: N_9  and  CA_10 
REMARK    8  A    between atoms: CA_10  and  C_11 
REMARK    9  A    between atoms: CA_10  and  CB_13 
REMARK       I    between atoms: C_11  and  N_16 
REMARK   10  A    between atoms: CB_13  and  OG1_14 
REMARK   11  A    between atoms: CB_13  and  CG2_15 
REMARK   12  A    between atoms: N_16  and  CA_17 
REMARK   13  A    between atoms: CA_17  and  C_18 
REMARK   14  A    between atoms: CA_17  and  CB_20 
REMARK       I    between atoms: C_18  and  N_27 
REMARK   15  A    between atoms: CB_20  and  CG_21 
REMARK   16  A    between atoms: N_27  and  CA_28 
REMARK   17  A    between atoms: CA_28  and  C_29 
REMARK   18  A    between atoms: CA_28  and  CB_31 
REMARK       I    between atoms: C_29  and  N_36 
REMARK   19  A    between atoms: CB_31  and  CG_32 
REMARK   20  A    between atoms: CG_32  and  CD_33 
REMARK   21  A    between atoms: N_36  and  CA_37 
REMARK   22  A    between atoms: CA_37  and  C_38 
REMARK   23  A    between atoms: CA_37  and  CB_40 
REMARK       I    between atoms: C_38  and  N_44 
REMARK   24  A    between atoms: CB_40  and  CG_41 
REMARK   25  A    between atoms: N_44  and  CA_45 
REMARK   26  A    between atoms: CA_45  and  C_46 
REMARK   27  A    between atoms: CA_45  and  CB_48 
REMARK       I    between atoms: C_46  and  N_52 
REMARK   28  A    between atoms: CB_48  and  CG_49 
REMARK   29  A    between atoms: CG_49  and  CD1_50 
REMARK   30  A    between atoms: CG_49  and  CD2_51 
REMARK   31  A    between atoms: N_52  and  CA_53 
REMARK   32  A    between atoms: CA_53  and  C_54 
REMARK   33  A    between atoms: CA_53  and  CB_56 
REMARK       I    between atoms: C_54  and  N_60 
REMARK   34  A    between atoms: CB_56  and  CG_57 
REMARK   35  A    between atoms: CG_57  and  CD1_58 
REMARK   36  A    between atoms: CG_57  and  CD2_59 
REMARK   37  A    between atoms: N_60  and  CA_61 
REMARK   38  A    between atoms: CA_61  and  C_62 
REMARK   39  A    between atoms: CA_61  and  CB_64 
REMARK       I    between atoms: C_62  and  N_68 
REMARK   40  A    between atoms: CB_64  and  CG_65 
REMARK   41  A    between atoms: N_68  and  CA_69 
REMARK   42  A    between atoms: CA_69  and  C_70 
REMARK   43  A    between atoms: CA_69  and  CB_72 
REMARK       I    between atoms: C_70  and  N_80 
REMARK   44  A    between atoms: CB_72  and  CG_73 
REMARK   45  A    between atoms: CZ_78  and  OH_79 
REMARK   46  A    between atoms: N_80  and  CA_81 
REMARK   47  A    between atoms: CA_81  and  C_82 
REMARK   48  A    between atoms: CA_81  and  CB_84 
REMARK       I    between atoms: C_82  and  N_92 
REMARK   49  A    between atoms: CB_84  and  CG_85 
REMARK   50  A    between atoms: CZ_90  and  OH_91 
REMARK   51  A    between atoms: N_92  and  CA_93 
REMARK   52  A    between atoms: CA_93  and  C_94 
REMARK       I    between atoms: C_94  and  N_96 
REMARK   53  A    between atoms: CA_97  and  C_98 
ROOT
ATOM      1  CA  LEU d   1     -23.695   1.744 -16.977  0.00  0.00     0.089 C 
ATOM      2  H41 LEU d   1     -23.485   0.940 -16.256  0.00  0.00     0.087 H 
ENDROOT
BRANCH   1   3
ATOM      3  N   LEU d   1     -23.426   1.223 -18.324  0.00  0.00    -0.346 N 
ATOM      4  C   ASP d   1     -23.971   0.070 -18.725  0.00  0.00     0.241 C 
ATOM      5  O   ASP d   1     -24.685  -0.625 -17.996  0.00  0.00    -0.271 OA
ATOM      6  H40 LEU d   1     -22.831   1.734 -18.945  0.00  0.00     0.163 HD
BRANCH   4   7
ATOM      7  CA  ASP d   1     -23.696  -0.376 -20.162  0.00  0.00     0.098 C 
ATOM      8  H37 ASP d   1     -24.478  -1.088 -20.466  0.00  0.00     0.088 H 
BRANCH   7   9
ATOM      9  N   ASP d   1     -23.743   0.774 -21.085  0.00  0.00    -0.346 N 
ATOM     10  C   GLU d   1     -24.861   1.477 -21.274  0.00  0.00     0.241 C 
ATOM     11  O   GLU d   1     -25.935   1.161 -20.768  0.00  0.00    -0.271 OA
ATOM     12  H36 ASP d   1     -22.915   1.033 -21.582  0.00  0.00     0.163 HD
BRANCH  10  13
ATOM     13  CA  GLU d   1     -24.773   2.722 -22.159  0.00  0.00     0.090 C 
ATOM     14  H31 GLU d   1     -25.565   3.408 -21.824  0.00  0.00     0.087 H 
BRANCH  13  15
ATOM     15  N   GLU d   1     -23.499   3.446 -22.038  0.00  0.00    -0.346 N 
ATOM     16  C   PHE d   1     -23.053   3.875 -20.854  0.00  0.00     0.241 C 
ATOM     17  O   PHE d   1     -23.709   3.786 -19.807  0.00  0.00    -0.271 OA
ATOM     18  H30 GLU d   1     -22.955   3.621 -22.859  0.00  0.00     0.163 HD
BRANCH  16  19
ATOM     19  CA  PHE d   1     -21.648   4.481 -20.826  0.00  0.00     0.093 C 
ATOM     20  H22 PHE d   1     -21.268   4.403 -19.797  0.00  0.00     0.088 H 
BRANCH  19  21
ATOM     21  N   PHE d   1     -20.747   3.739 -21.694  0.00  0.00    -0.346 N 
ATOM     22  C   THR d   1     -20.458   2.474 -21.420  0.00  0.00     0.243 C 
ATOM     23  O   THR d   1     -20.912   1.890 -20.431  0.00  0.00    -0.271 OA
ATOM     24  H21 PHE d   1     -20.346   4.182 -22.496  0.00  0.00     0.163 HD
BRANCH  22  25
ATOM     25  CA  THR d   1     -19.538   1.762 -22.405  0.00  0.00     0.113 C 
ATOM     26  H15 THR d   1     -18.628   2.362 -22.555  0.00  0.00     0.091 H 
BRANCH  25  27
ATOM     27  N   THR d   1     -19.150   0.440 -21.911  0.00  0.00    -0.344 N 
ATOM     28  C   ILE d   1     -17.897   0.136 -21.576  0.00  0.00     0.249 C 
ATOM     29  O   ILE d   1     -16.963   0.947 -21.575  0.00  0.00    -0.271 OA
ATOM     30  H14 THR d   1     -19.855  -0.264 -21.821  0.00  0.00     0.163 HD
BRANCH  28  31
ATOM     31  CA  ILE d   1     -17.634  -1.313 -21.187  0.00  0.00     0.179 C 
ATOM     32  H4  ILE d   1     -18.127  -1.962 -21.925  0.00  0.00     0.099 H 
BRANCH  31  33
ATOM     33  N   ILE d   1     -16.167  -1.567 -21.258  0.00  0.00    -0.066 N 
ATOM     34  H1  ILE d   1     -15.830  -1.333 -22.178  0.00  0.00     0.275 HD
ATOM     35  H2  ILE d   1     -15.985  -2.541 -21.071  0.00  0.00     0.275 HD
ATOM     36  H3  ILE d   1     -15.694  -0.999 -20.572  0.00  0.00     0.275 HD
ENDBRANCH  31  33
BRANCH  31  37
ATOM     37  CB  ILE d   1     -18.240  -1.651 -19.790  0.00  0.00    -0.022 C 
ATOM     38  H5  ILE d   1     -19.335  -1.638 -19.895  0.00  0.00     0.043 H 
BRANCH  37  39
ATOM     39  CG1 ILE d   1     -17.873  -0.596 -18.749  0.00  0.00    -0.063 C 
ATOM     40  H6  ILE d   1     -17.842   0.384 -19.248  0.00  0.00     0.033 H 
ATOM     41  H7  ILE d   1     -16.876  -0.837 -18.351  0.00  0.00     0.033 H 
BRANCH  39  42
ATOM     42  CD1 ILE d   1     -18.833  -0.505 -17.591  0.00  0.00    -0.076 C 
ATOM     43  H11 ILE d   1     -18.494   0.275 -16.894  0.00  0.00     0.027 H 
ATOM     44  H12 ILE d   1     -18.870  -1.472 -17.069  0.00  0.00     0.027 H 
ATOM     45  H13 ILE d   1     -19.836  -0.252 -17.965  0.00  0.00     0.027 H 
ENDBRANCH  39  42
ENDBRANCH  37  39
BRANCH  37  46
ATOM     46  CG2 ILE d   1     -17.838  -3.078 -19.335  0.00  0.00    -0.070 C 
ATOM     47  H8  ILE d   1     -18.120  -3.804 -20.112  0.00  0.00     0.028 H 
ATOM     48  H9  ILE d   1     -18.358  -3.324 -18.398  0.00  0.00     0.028 H 
ATOM     49  H10 ILE d   1     -16.751  -3.119 -19.173  0.00  0.00     0.028 H 
ENDBRANCH  37  46
ENDBRANCH  31  37
ENDBRANCH  28  31
ENDBRANCH  25  27
BRANCH  25  50
ATOM     50  CB  THR d   1     -20.303   1.649 -23.734  0.00  0.00     0.060 C 
ATOM     51  H16 THR d   1     -20.624   2.653 -24.048  0.00  0.00     0.086 H 
BRANCH  50  52
ATOM     52  OG1 THR d   1     -21.460   0.821 -23.544  0.00  0.00    -0.393 OA
ATOM     53  H17 THR d   1     -21.186  -0.043 -23.259  0.00  0.00     0.210 HD
ENDBRANCH  50  52
BRANCH  50  54
ATOM     54  CG2 THR d   1     -19.418   1.049 -24.827  0.00  0.00    -0.050 C 
ATOM     55  H18 THR d   1     -19.989   0.980 -25.765  0.00  0.00     0.031 H 
ATOM     56  H19 THR d   1     -19.090   0.044 -24.523  0.00  0.00     0.031 H 
ATOM     57  H20 THR d   1     -18.538   1.691 -24.980  0.00  0.00     0.031 H 
ENDBRANCH  50  54
ENDBRANCH  25  50
ENDBRANCH  22  25
ENDBRANCH  19  21
BRANCH  19  58
ATOM     58  CB  PHE d   1     -21.672   5.964 -21.205  0.00  0.00    -0.014 C 
ATOM     59  H23 PHE d   1     -22.076   6.056 -22.224  0.00  0.00     0.043 H 
ATOM     60  H24 PHE d   1     -20.640   6.345 -21.184  0.00  0.00     0.043 H 
BRANCH  58  61
ATOM     61  CG  PHE d   1     -22.511   6.811 -20.281  0.00  0.00    -0.056 A 
ATOM     62  CD1 PHE d   1     -22.340   6.762 -18.895  0.00  0.00    -0.077 A 
ATOM     63  CE1 PHE d   1     -23.133   7.550 -18.047  0.00  0.00    -0.082 A 
ATOM     64  H25 PHE d   1     -21.587   6.108 -18.470  0.00  0.00     0.084 H 
ATOM     65  CZ  PHE d   1     -24.073   8.398 -18.599  0.00  0.00    -0.083 A 
ATOM     66  H27 PHE d   1     -23.009   7.494 -16.971  0.00  0.00     0.083 H 
ATOM     67  CE2 PHE d   1     -24.242   8.458 -19.970  0.00  0.00    -0.082 A 
ATOM     68  H29 PHE d   1     -24.682   9.020 -17.953  0.00  0.00     0.083 H 
ATOM     69  CD2 PHE d   1     -23.460   7.668 -20.808  0.00  0.00    -0.077 A 
ATOM     70  H28 PHE d   1     -24.986   9.123 -20.394  0.00  0.00     0.083 H 
ATOM     71  H26 PHE d   1     -23.596   7.725 -21.882  0.00  0.00     0.084 H 
ENDBRANCH  58  61
ENDBRANCH  19  58
ENDBRANCH  16  19
ENDBRANCH  13  15
BRANCH  13  72
ATOM     72  CB  GLU d   1     -25.054   2.374 -23.615  0.00  0.00    -0.029 C 
ATOM     73  H32 GLU d   1     -25.888   1.658 -23.659  0.00  0.00     0.037 H 
ATOM     74  H33 GLU d   1     -24.155   1.918 -24.056  0.00  0.00     0.037 H 
BRANCH  72  75
ATOM     75  CG  GLU d   1     -25.418   3.601 -24.402  0.00  0.00     0.018 C 
ATOM     76  H34 GLU d   1     -24.578   4.309 -24.342  0.00  0.00     0.049 H 
ATOM     77  H35 GLU d   1     -26.310   4.051 -23.943  0.00  0.00     0.049 H 
BRANCH  75  78
ATOM     78  CD  GLU d   1     -25.720   3.344 -25.878  0.00  0.00     0.172 C 
ATOM     79  OE1 GLU d   1     -26.121   2.222 -26.253  0.00  0.00    -0.648 OA
ATOM     80  OE2 GLU d   1     -25.582   4.305 -26.669  0.00  0.00    -0.648 OA
ENDBRANCH  75  78
ENDBRANCH  72  75
ENDBRANCH  13  72
ENDBRANCH  10  13
ENDBRANCH   7   9
BRANCH   7  81
ATOM     81  CB  ASP d   1     -22.352  -1.093 -20.199  0.00  0.00     0.043 C 
ATOM     82  H38 ASP d   1     -22.353  -1.881 -19.432  0.00  0.00     0.052 H 
ATOM     83  H39 ASP d   1     -21.559  -0.364 -19.975  0.00  0.00     0.052 H 
BRANCH  81  84
ATOM     84  CG  ASP d   1     -22.059  -1.728 -21.545  0.00  0.00     0.175 C 
ATOM     85  OD1 ASP d   1     -23.012  -2.125 -22.249  0.00  0.00    -0.648 OA
ATOM     86  OD2 ASP d   1     -20.873  -1.856 -21.889  0.00  0.00    -0.648 OA
ENDBRANCH  81  84
ENDBRANCH   7  81
ENDBRANCH   4   7
ENDBRANCH   1   3
BRANCH   1  87
ATOM     87  C   LEU d   1     -25.156   2.130 -16.843  0.00  0.00     0.241 C 
ATOM     88  O   LEU d   1     -25.780   1.823 -15.832  0.00  0.00    -0.271 OA
ATOM     89  N   LEU d   1     -25.698   2.769 -17.875  0.00  0.00    -0.346 N 
ATOM     90  H51 LEU d   1     -25.134   2.988 -18.671  0.00  0.00     0.163 HD
BRANCH  89  91
ATOM     91  CA  LEU d   1     -27.107   3.156 -17.861  0.00  0.00     0.089 C 
ATOM     92  H52 LEU d   1     -27.265   3.802 -16.985  0.00  0.00     0.087 H 
BRANCH  91  93
ATOM     93  C   LEU d   1     -28.024   1.943 -17.708  0.00  0.00     0.241 C 
ATOM     94  O   LEU d   1     -29.007   1.994 -16.941  0.00  0.00    -0.271 OA
ATOM     95  N   ASP d   1     -27.704   0.863 -18.422  0.00  0.00    -0.346 N 
ATOM     96  H62 ASP d   1     -26.909   0.899 -19.027  0.00  0.00     0.163 HD
BRANCH  95  97
ATOM     97  CA  ASP d   1     -28.490  -0.384 -18.345  0.00  0.00     0.098 C 
ATOM     98  H63 ASP d   1     -29.547  -0.140 -18.524  0.00  0.00     0.088 H 
BRANCH  97  99
ATOM     99  C   ASP d   1     -28.356  -1.018 -16.961  0.00  0.00     0.241 C 
ATOM    100  O   ASP d   1     -29.317  -1.555 -16.397  0.00  0.00    -0.271 OA
ATOM    101  N   TYR d   1     -27.140  -0.977 -16.419  0.00  0.00    -0.346 N 
ATOM    102  H66 TYR d   1     -26.415  -0.463 -16.878  0.00  0.00     0.163 HD
BRANCH 101 103
ATOM    103  CA  TYR d   1     -26.847  -1.667 -15.170  0.00  0.00     0.093 C 
ATOM    104  H67 TYR d   1     -27.175  -2.714 -15.251  0.00  0.00     0.088 H 
BRANCH 103 105
ATOM    105  C   TYR d   1     -27.593  -1.006 -14.013  0.00  0.00     0.241 C 
ATOM    106  O   TYR d   1     -28.215  -1.691 -13.179  0.00  0.00    -0.271 OA
ATOM    107  N   TYR d   1     -27.556   0.319 -13.973  0.00  0.00    -0.346 N 
ATOM    108  H75 TYR d   1     -27.127   0.824 -14.722  0.00  0.00     0.163 HD
BRANCH 107 109
ATOM    109  CA  TYR d   1     -28.138   1.053 -12.842  0.00  0.00     0.093 C 
ATOM    110  H76 TYR d   1     -28.186   0.354 -11.994  0.00  0.00     0.088 H 
BRANCH 109 111
ATOM    111  C   TYR d   1     -29.556   1.563 -13.084  0.00  0.00     0.241 C 
ATOM    112  O   TYR d   1     -30.235   1.999 -12.139  0.00  0.00    -0.271 OA
ATOM    113  N   GLY d   1     -29.986   1.512 -14.345  0.00  0.00    -0.351 N 
ATOM    114  H84 GLY d   1     -29.391   1.096 -15.032  0.00  0.00     0.163 HD
BRANCH 113 115
ATOM    115  CA  GLY d   1     -31.291   2.036 -14.778  0.00  0.00     0.069 C 
ATOM    116  H85 GLY d   1     -31.184   2.429 -15.800  0.00  0.00     0.078 H 
ATOM    117  H86 GLY d   1     -31.578   2.853 -14.099  0.00  0.00     0.078 H 
BRANCH 115 118
ATOM    118  C   GLY d   1     -32.404   1.001 -14.778  0.00  0.00     0.238 C 
ATOM    119  O   GLY d   1     -32.368   0.065 -13.967  0.00  0.00    -0.272 OA
ATOM    120  N   PRO d   1     -33.392   1.124 -15.702  0.00  0.00    -0.336 N 
ATOM    121  CA  PRO d   1     -33.554   1.896 -16.955  0.00  0.00     0.098 C 
ATOM    122  CD  PRO d   1     -34.621   0.362 -15.407  0.00  0.00    -0.001 C 
ATOM    123  CB  PRO d   1     -35.053   2.202 -16.966  0.00  0.00    -0.035 C 
ATOM    124  H87 PRO d   1     -33.295   1.242 -17.801  0.00  0.00     0.089 H 
ATOM    125  CG  PRO d   1     -35.668   0.993 -16.324  0.00  0.00    -0.048 C 
ATOM    126  H88 PRO d   1     -35.420   2.329 -17.995  0.00  0.00     0.036 H 
ATOM    127  H89 PRO d   1     -35.272   3.109 -16.384  0.00  0.00     0.036 H 
ATOM    128  H90 PRO d   1     -35.970   0.272 -17.098  0.00  0.00     0.035 H 
ATOM    129  H91 PRO d   1     -36.549   1.290 -15.736  0.00  0.00     0.035 H 
ATOM    130  H92 PRO d   1     -34.907   0.473 -14.351  0.00  0.00     0.064 H 
ATOM    131  H93 PRO d   1     -34.487  -0.705 -15.641  0.00  0.00     0.064 H 
BRANCH 121 132
ATOM    132  C   PRO d   1     -32.746   3.188 -17.125  0.00  0.00     0.196 C 
ATOM    133  O   PRO d   1     -31.938   3.305 -18.065  0.00  0.00    -0.646 OA
ATOM    134  OXT PRO d   1     -32.893   4.153 -16.361  0.00  0.00    -0.646 OA
ENDBRANCH 121 132
ENDBRANCH 115 118
ENDBRANCH 113 115
ENDBRANCH 109 111
BRANCH 109 135
ATOM    135  CB  TYR d   1     -27.226   2.216 -12.443  0.00  0.00    -0.014 C 
ATOM    136  H77 TYR d   1     -27.756   2.837 -11.706  0.00  0.00     0.043 H 
ATOM    137  H78 TYR d   1     -27.013   2.814 -13.341  0.00  0.00     0.043 H 
BRANCH 135 138
ATOM    138  CG  TYR d   1     -25.918   1.777 -11.842  0.00  0.00    -0.056 A 
ATOM    139  CD1 TYR d   1     -24.717   1.979 -12.528  0.00  0.00    -0.074 A 
ATOM    140  CE1 TYR d   1     -23.506   1.566 -11.986  0.00  0.00    -0.051 A 
ATOM    141  H79 TYR d   1     -24.730   2.465 -13.497  0.00  0.00     0.084 H 
ATOM    142  CZ  TYR d   1     -23.469   0.958 -10.750  0.00  0.00     0.065 A 
ATOM    143  H81 TYR d   1     -22.586   1.723 -12.538  0.00  0.00     0.087 H 
ATOM    144  CE2 TYR d   1     -24.647   0.733 -10.039  0.00  0.00    -0.051 A 
ATOM    145  CD2 TYR d   1     -25.867   1.145 -10.592  0.00  0.00    -0.074 A 
ATOM    146  H82 TYR d   1     -24.620   0.246  -9.071  0.00  0.00     0.087 H 
ATOM    147  H80 TYR d   1     -26.786   0.972 -10.044  0.00  0.00     0.084 H 
BRANCH 142 148
ATOM    148  OH  TYR d   1     -22.245   0.564 -10.241  0.00  0.00    -0.361 OA
ATOM    149  H83 TYR d   1     -22.247  -0.377 -10.107  0.00  0.00     0.217 HD
ENDBRANCH 142 148
ENDBRANCH 135 138
ENDBRANCH 109 135
ENDBRANCH 107 109
ENDBRANCH 103 105
BRANCH 103 150
ATOM    150  CB  TYR d   1     -25.339  -1.635 -14.928  0.00  0.00    -0.014 C 
ATOM    151  H68 TYR d   1     -25.050  -0.595 -14.717  0.00  0.00     0.043 H 
ATOM    152  H69 TYR d   1     -24.839  -1.976 -15.847  0.00  0.00     0.043 H 
BRANCH 150 153
ATOM    153  CG  TYR d   1     -24.855  -2.496 -13.785  0.00  0.00    -0.056 A 
ATOM    154  CD1 TYR d   1     -24.643  -3.863 -13.957  0.00  0.00    -0.074 A 
ATOM    155  CE1 TYR d   1     -24.168  -4.650 -12.903  0.00  0.00    -0.051 A 
ATOM    156  H70 TYR d   1     -24.849  -4.321 -14.918  0.00  0.00     0.084 H 
ATOM    157  CZ  TYR d   1     -23.879  -4.069 -11.669  0.00  0.00     0.065 A 
ATOM    158  H72 TYR d   1     -24.024  -5.715 -13.046  0.00  0.00     0.087 H 
ATOM    159  CE2 TYR d   1     -24.067  -2.715 -11.490  0.00  0.00    -0.051 A 
ATOM    160  CD2 TYR d   1     -24.540  -1.936 -12.549  0.00  0.00    -0.074 A 
ATOM    161  H73 TYR d   1     -23.849  -2.257 -10.532  0.00  0.00     0.087 H 
ATOM    162  H71 TYR d   1     -24.665  -0.869 -12.405  0.00  0.00     0.084 H 
BRANCH 157 163
ATOM    163  OH  TYR d   1     -23.415  -4.855 -10.611  0.00  0.00    -0.361 OA
ATOM    164  H74 TYR d   1     -23.341  -5.758 -10.898  0.00  0.00     0.217 HD
ENDBRANCH 157 163
ENDBRANCH 150 153
ENDBRANCH 103 150
ENDBRANCH 101 103
ENDBRANCH  97  99
BRANCH  97 165
ATOM    165  CB  ASP d   1     -28.032  -1.399 -19.402  0.00  0.00     0.043 C 
ATOM    166  H64 ASP d   1     -28.460  -2.381 -19.151  0.00  0.00     0.052 H 
ATOM    167  H65 ASP d   1     -26.934  -1.460 -19.375  0.00  0.00     0.052 H 
BRANCH 165 168
ATOM    168  CG  ASP d   1     -28.462  -1.031 -20.822  0.00  0.00     0.175 C 
ATOM    169  OD1 ASP d   1     -29.251  -0.084 -21.021  0.00  0.00    -0.648 OA
ATOM    170  OD2 ASP d   1     -27.974  -1.705 -21.756  0.00  0.00    -0.648 OA
ENDBRANCH 165 168
ENDBRANCH  97 165
ENDBRANCH  95  97
ENDBRANCH  91  93
BRANCH  91 171
ATOM    171  CB  LEU d   1     -27.461   3.977 -19.114  0.00  0.00    -0.035 C 
ATOM    172  H53 LEU d   1     -28.553   4.110 -19.131  0.00  0.00     0.037 H 
ATOM    173  H54 LEU d   1     -27.148   3.397 -19.995  0.00  0.00     0.037 H 
BRANCH 171 174
ATOM    174  CG  LEU d   1     -26.822   5.359 -19.214  0.00  0.00    -0.059 C 
ATOM    175  H55 LEU d   1     -25.753   5.262 -18.974  0.00  0.00     0.038 H 
BRANCH 174 176
ATOM    176  CD1 LEU d   1     -26.949   5.891 -20.640  0.00  0.00    -0.073 C 
ATOM    177  H56 LEU d   1     -26.486   6.887 -20.702  0.00  0.00     0.028 H 
ATOM    178  H57 LEU d   1     -28.013   5.964 -20.911  0.00  0.00     0.028 H 
ATOM    179  H58 LEU d   1     -26.440   5.206 -21.334  0.00  0.00     0.028 H 
ENDBRANCH 174 176
BRANCH 174 180
ATOM    180  CD2 LEU d   1     -27.452   6.342 -18.205  0.00  0.00    -0.073 C 
ATOM    181  H59 LEU d   1     -27.349   5.939 -17.187  0.00  0.00     0.028 H 
ATOM    182  H60 LEU d   1     -28.518   6.476 -18.440  0.00  0.00     0.028 H 
ATOM    183  H61 LEU d   1     -26.938   7.312 -18.269  0.00  0.00     0.028 H 
ENDBRANCH 174 180
ENDBRANCH 171 174
ENDBRANCH  91 171
ENDBRANCH  89  91
ENDBRANCH   1  87
BRANCH   1 184
ATOM    184  CB  LEU d   1     -22.788   2.940 -16.627  0.00  0.00    -0.035 C 
ATOM    185  H42 LEU d   1     -23.066   3.302 -15.626  0.00  0.00     0.037 H 
ATOM    186  H43 LEU d   1     -22.965   3.735 -17.367  0.00  0.00     0.037 H 
BRANCH 184 187
ATOM    187  CG  LEU d   1     -21.287   2.614 -16.621  0.00  0.00    -0.059 C 
ATOM    188  H44 LEU d   1     -21.028   2.189 -17.602  0.00  0.00     0.038 H 
BRANCH 187 189
ATOM    189  CD1 LEU d   1     -20.452   3.887 -16.422  0.00  0.00    -0.073 C 
ATOM    190  H45 LEU d   1     -19.383   3.628 -16.421  0.00  0.00     0.028 H 
ATOM    191  H46 LEU d   1     -20.717   4.353 -15.461  0.00  0.00     0.028 H 
ATOM    192  H47 LEU d   1     -20.658   4.592 -17.241  0.00  0.00     0.028 H 
ENDBRANCH 187 189
BRANCH 187 193
ATOM    193  CD2 LEU d   1     -20.954   1.555 -15.541  0.00  0.00    -0.073 C 
ATOM    194  H48 LEU d   1     -21.566   0.656 -15.708  0.00  0.00     0.028 H 
ATOM    195  H49 LEU d   1     -21.172   1.967 -14.544  0.00  0.00     0.028 H 
ATOM    196  H50 LEU d   1     -19.888   1.290 -15.604  0.00  0.00     0.028 H 
ENDBRANCH 187 193
ENDBRANCH 184 187
ENDBRANCH   1 184
TORSDOF 53
