REMARK WARNING: 32 MAX_TORS EXCEEDED!!!
REMARK  52 active torsions:
REMARK  status: ('A' for Active; 'I' for Inactive)
REMARK    1  A    between atoms: N_1  and  CA_2 
REMARK    2  A    between atoms: CA_2  and  C_3 
REMARK    3  A    between atoms: CA_2  and  CB_5 
REMARK       I    between atoms: C_3  and  N_9 
REMARK    4  A    between atoms: CB_5  and  CG1_6 
REMARK    5  A    between atoms: CB_5  and  CG2_7 
REMARK    6  A    between atoms: CG1_6  and  CD1_8 
REMARK    7  A    between atoms: N_9  and  CA_10 
REMARK    8  A    between atoms: CA_10  and  C_11 
REMARK    9  A    between atoms: CA_10  and  CB_13 
REMARK       I    between atoms: C_11  and  N_16 
REMARK   10  A    between atoms: CB_13  and  OG1_14 
REMARK   11  A    between atoms: CB_13  and  CG2_15 
REMARK   12  A    between atoms: N_16  and  CA_17 
REMARK   13  A    between atoms: CA_17  and  C_18 
REMARK   14  A    between atoms: CA_17  and  CB_20 
REMARK       I    between atoms: C_18  and  N_27 
REMARK   15  A    between atoms: CB_20  and  CG_21 
REMARK   16  A    between atoms: N_27  and  CA_28 
REMARK   17  A    between atoms: CA_28  and  C_29 
REMARK   18  A    between atoms: CA_28  and  CB_31 
REMARK       I    between atoms: C_29  and  N_36 
REMARK   19  A    between atoms: CB_31  and  CG_32 
REMARK   20  A    between atoms: CG_32  and  CD_33 
REMARK   21  A    between atoms: N_36  and  CA_37 
REMARK   22  A    between atoms: CA_37  and  C_38 
REMARK   23  A    between atoms: CA_37  and  CB_40 
REMARK       I    between atoms: C_38  and  N_44 
REMARK   24  A    between atoms: CB_40  and  CG_41 
REMARK   25  A    between atoms: N_44  and  CA_45 
REMARK   26  A    between atoms: CA_45  and  C_46 
REMARK   27  A    between atoms: CA_45  and  CB_48 
REMARK       I    between atoms: C_46  and  N_52 
REMARK   28  A    between atoms: CB_48  and  CG_49 
REMARK   29  A    between atoms: CG_49  and  CD1_50 
REMARK   30  A    between atoms: CG_49  and  CD2_51 
REMARK   31  A    between atoms: N_52  and  CA_53 
REMARK   32  A    between atoms: CA_53  and  C_54 
REMARK   33  A    between atoms: CA_53  and  CB_56 
REMARK       I    between atoms: C_54  and  N_60 
REMARK   34  A    between atoms: CB_56  and  CG_57 
REMARK   35  A    between atoms: CG_57  and  CD1_58 
REMARK   36  A    between atoms: CG_57  and  CD2_59 
REMARK   37  A    between atoms: N_60  and  CA_61 
REMARK   38  A    between atoms: CA_61  and  C_62 
REMARK   39  A    between atoms: CA_61  and  CB_64 
REMARK       I    between atoms: C_62  and  N_68 
REMARK   40  A    between atoms: CB_64  and  CG_65 
REMARK   41  A    between atoms: N_68  and  CA_69 
REMARK   42  A    between atoms: CA_69  and  C_70 
REMARK   43  A    between atoms: CA_69  and  CB_72 
REMARK       I    between atoms: C_70  and  N_80 
REMARK   44  A    between atoms: CB_72  and  CG_73 
REMARK   45  A    between atoms: CZ_78  and  OH_79 
REMARK   46  A    between atoms: N_80  and  CA_81 
REMARK   47  A    between atoms: CA_81  and  C_82 
REMARK   48  A    between atoms: CA_81  and  CB_84 
REMARK       I    between atoms: C_82  and  N_92 
REMARK   49  A    between atoms: CB_84  and  CG_85 
REMARK   50  A    between atoms: CZ_90  and  OH_91 
REMARK   51  A    between atoms: N_92  and  CA_93 
REMARK   52  A    between atoms: CA_93  and  C_94 
ROOT
ATOM      1  CA  LEU d   1      -2.169  19.603  39.660  0.00  0.00     0.089 C 
ATOM      2  H41 LEU d   1      -1.968  20.397  38.926  0.00  0.00     0.087 H 
ENDROOT
BRANCH   1   3
ATOM      3  N   LEU d   1      -1.904  20.141  41.004  0.00  0.00    -0.346 N 
ATOM      4  C   ASP d   1      -2.482  21.275  41.398  0.00  0.00     0.241 C 
ATOM      5  O   ASP d   1      -3.217  21.939  40.664  0.00  0.00    -0.271 OA
ATOM      6  H40 LEU d   1      -1.288  19.654  41.623  0.00  0.00     0.163 HD
BRANCH   4   7
ATOM      7  CA  ASP d   1      -2.190  21.734  42.826  0.00  0.00     0.098 C 
ATOM      8  H37 ASP d   1      -2.986  22.418  43.155  0.00  0.00     0.088 H 
BRANCH   7   9
ATOM      9  N   ASP d   1      -2.173  20.560  43.725  0.00  0.00    -0.346 N 
ATOM     10  C   GLU d   1      -3.250  19.814  43.956  0.00  0.00     0.241 C 
ATOM     11  O   GLU d   1      -4.352  20.092  43.516  0.00  0.00    -0.271 OA
ATOM     12  H36 ASP d   1      -1.316  20.317  44.178  0.00  0.00     0.163 HD
BRANCH  10  13
ATOM     13  CA  GLU d   1      -3.065  18.569  44.824  0.00  0.00     0.090 C 
ATOM     14  H31 GLU d   1      -3.872  17.867  44.568  0.00  0.00     0.087 H 
BRANCH  13  15
ATOM     15  N   GLU d   1      -1.793  17.887  44.590  0.00  0.00    -0.346 N 
ATOM     16  C   PHE d   1      -1.433  17.475  43.382  0.00  0.00     0.241 C 
ATOM     17  O   PHE d   1      -2.155  17.571  42.404  0.00  0.00    -0.271 OA
ATOM     18  H30 GLU d   1      -1.178  17.727  45.362  0.00  0.00     0.163 HD
BRANCH  16  19
ATOM     19  CA  PHE d   1      -0.030  16.861  43.271  0.00  0.00     0.093 C 
ATOM     20  H22 PHE d   1       0.327  16.965  42.236  0.00  0.00     0.088 H 
BRANCH  19  21
ATOM     21  N   PHE d   1       0.871  17.584  44.163  0.00  0.00    -0.346 N 
ATOM     22  C   THR d   1       1.136  18.875  43.977  0.00  0.00     0.243 C 
ATOM     23  O   THR d   1       0.666  19.523  43.032  0.00  0.00    -0.271 OA
ATOM     24  H21 PHE d   1       1.297  17.101  44.928  0.00  0.00     0.163 HD
BRANCH  22  25
ATOM     25  CA  THR d   1       2.067  19.531  45.005  0.00  0.00     0.113 C 
ATOM     26  H15 THR d   1       2.977  18.925  45.124  0.00  0.00     0.091 H 
BRANCH  25  27
ATOM     27  N   THR d   1       2.437  20.868  44.564  0.00  0.00    -0.344 N 
ATOM     28  C   ILE d   1       3.691  21.192  44.261  0.00  0.00     0.249 C 
ATOM     29  O   ILE d   1       4.638  20.393  44.255  0.00  0.00    -0.271 OA
ATOM     30  H14 THR d   1       1.725  21.566  44.486  0.00  0.00     0.163 HD
BRANCH  28  31
ATOM     31  CA  ILE d   1       3.910  22.649  43.902  0.00  0.00     0.179 C 
ATOM     32  H4  ILE d   1       3.421  23.271  44.667  0.00  0.00     0.099 H 
BRANCH  31  33
ATOM     33  N   ILE d   1       5.374  22.958  43.943  0.00  0.00    -0.066 N 
ATOM     34  H1  ILE d   1       5.741  22.727  44.853  0.00  0.00     0.275 HD
ATOM     35  H2  ILE d   1       5.515  23.940  43.763  0.00  0.00     0.275 HD
ATOM     36  H3  ILE d   1       5.852  22.415  43.241  0.00  0.00     0.275 HD
ENDBRANCH  31  33
BRANCH  31  37
ATOM     37  CB  ILE d   1       3.222  22.964  42.538  0.00  0.00    -0.022 C 
ATOM     38  H5  ILE d   1       2.149  22.753  42.656  0.00  0.00     0.043 H 
BRANCH  37  39
ATOM     39  CG1 ILE d   1       3.737  22.062  41.422  0.00  0.00    -0.063 C 
ATOM     40  H6  ILE d   1       4.038  21.102  41.866  0.00  0.00     0.033 H 
ATOM     41  H7  ILE d   1       4.613  22.545  40.964  0.00  0.00     0.033 H 
BRANCH  39  42
ATOM     42  CD1 ILE d   1       2.707  21.780  40.314  0.00  0.00    -0.076 C 
ATOM     43  H11 ILE d   1       3.157  21.126  39.553  0.00  0.00     0.027 H 
ATOM     44  H12 ILE d   1       2.401  22.728  39.848  0.00  0.00     0.027 H 
ATOM     45  H13 ILE d   1       1.827  21.285  40.749  0.00  0.00     0.027 H 
ENDBRANCH  39  42
ENDBRANCH  37  39
BRANCH  37  46
ATOM     46  CG2 ILE d   1       3.359  24.448  42.186  0.00  0.00    -0.070 C 
ATOM     47  H8  ILE d   1       2.976  25.059  43.017  0.00  0.00     0.028 H 
ATOM     48  H9  ILE d   1       2.780  24.664  41.276  0.00  0.00     0.028 H 
ATOM     49  H10 ILE d   1       4.418  24.687  42.013  0.00  0.00     0.028 H 
ENDBRANCH  37  46
ENDBRANCH  31  37
ENDBRANCH  28  31
ENDBRANCH  25  27
BRANCH  25  50
ATOM     50  CB  THR d   1       1.310  19.595  46.337  0.00  0.00     0.060 C 
ATOM     51  H16 THR d   1       0.973  18.582  46.603  0.00  0.00     0.086 H 
BRANCH  50  52
ATOM     52  OG1 THR d   1       0.162  20.455  46.196  0.00  0.00    -0.393 OA
ATOM     53  H17 THR d   1       0.449  21.327  45.952  0.00  0.00     0.210 HD
ENDBRANCH  50  52
BRANCH  50  54
ATOM     54  CG2 THR d   1       2.206  20.129  47.457  0.00  0.00    -0.050 C 
ATOM     55  H18 THR d   1       1.636  20.163  48.397  0.00  0.00     0.031 H 
ATOM     56  H19 THR d   1       2.550  21.142  47.200  0.00  0.00     0.031 H 
ATOM     57  H20 THR d   1       3.075  19.466  47.579  0.00  0.00     0.031 H 
ENDBRANCH  50  54
ENDBRANCH  25  50
ENDBRANCH  22  25
ENDBRANCH  19  21
BRANCH  19  58
ATOM     58  CB  PHE d   1      -0.056  15.378  43.636  0.00  0.00    -0.014 C 
ATOM     59  H23 PHE d   1      -0.409  15.283  44.673  0.00  0.00     0.043 H 
ATOM     60  H24 PHE d   1       0.968  14.985  43.559  0.00  0.00     0.043 H 
BRANCH  58  61
ATOM     61  CG  PHE d   1      -0.942  14.555  42.761  0.00  0.00    -0.056 A 
ATOM     62  CD1 PHE d   1      -0.800  14.583  41.380  0.00  0.00    -0.077 A 
ATOM     63  CE1 PHE d   1      -1.632  13.817  40.561  0.00  0.00    -0.082 A 
ATOM     64  H25 PHE d   1      -0.035  15.207  40.933  0.00  0.00     0.084 H 
ATOM     65  CZ  PHE d   1      -2.604  13.014  41.127  0.00  0.00    -0.083 A 
ATOM     66  H27 PHE d   1      -1.516  13.852  39.484  0.00  0.00     0.083 H 
ATOM     67  CE2 PHE d   1      -2.746  12.971  42.490  0.00  0.00    -0.082 A 
ATOM     68  H29 PHE d   1      -3.253  12.419  40.494  0.00  0.00     0.083 H 
ATOM     69  CD2 PHE d   1      -1.924  13.746  43.315  0.00  0.00    -0.077 A 
ATOM     70  H28 PHE d   1      -3.501  12.331  42.932  0.00  0.00     0.083 H 
ATOM     71  H26 PHE d   1      -2.055  13.714  44.391  0.00  0.00     0.084 H 
ENDBRANCH  58  61
ENDBRANCH  19  58
ENDBRANCH  16  19
ENDBRANCH  13  15
BRANCH  13  72
ATOM     72  CB  GLU d   1      -3.190  18.917  46.308  0.00  0.00    -0.029 C 
ATOM     73  H32 GLU d   1      -4.090  19.531  46.459  0.00  0.00     0.037 H 
ATOM     74  H33 GLU d   1      -2.301  19.485  46.620  0.00  0.00     0.037 H 
BRANCH  72  75
ATOM     75  CG  GLU d   1      -3.299  17.658  47.156  0.00  0.00     0.018 C 
ATOM     76  H34 GLU d   1      -2.435  17.012  46.941  0.00  0.00     0.049 H 
ATOM     77  H35 GLU d   1      -4.227  17.131  46.888  0.00  0.00     0.049 H 
BRANCH  75  78
ATOM     78  CD  GLU d   1      -3.323  17.960  48.652  0.00  0.00     0.172 C 
ATOM     79  OE1 GLU d   1      -4.263  18.660  49.103  0.00  0.00    -0.648 OA
ATOM     80  OE2 GLU d   1      -2.406  17.501  49.368  0.00  0.00    -0.648 OA
ENDBRANCH  75  78
ENDBRANCH  72  75
ENDBRANCH  13  72
ENDBRANCH  10  13
ENDBRANCH   7   9
BRANCH   7  81
ATOM     81  CB  ASP d   1      -0.861  22.482  42.853  0.00  0.00     0.043 C 
ATOM     82  H38 ASP d   1      -0.905  23.303  42.122  0.00  0.00     0.052 H 
ATOM     83  H39 ASP d   1      -0.059  21.784  42.573  0.00  0.00     0.052 H 
BRANCH  81  84
ATOM     84  CG  ASP d   1      -0.541  23.067  44.224  0.00  0.00     0.175 C 
ATOM     85  OD1 ASP d   1      -1.474  23.453  44.936  0.00  0.00    -0.648 OA
ATOM     86  OD2 ASP d   1       0.649  23.142  44.564  0.00  0.00    -0.648 OA
ENDBRANCH  81  84
ENDBRANCH   7  81
ENDBRANCH   4   7
ENDBRANCH   1   3
BRANCH   1  87
ATOM     87  C   LEU d   1      -3.629  19.208  39.551  0.00  0.00     0.241 C 
ATOM     88  O   LEU d   1      -4.297  19.556  38.564  0.00  0.00    -0.271 OA
ATOM     89  N   LEU d   1      -4.135  18.518  40.568  0.00  0.00    -0.346 N 
ATOM     90  H51 LEU d   1      -3.550  18.273  41.341  0.00  0.00     0.163 HD
BRANCH  89  91
ATOM     91  CA  LEU d   1      -5.557  18.110  40.565  0.00  0.00     0.089 C 
ATOM     92  H52 LEU d   1      -5.718  17.472  39.683  0.00  0.00     0.087 H 
BRANCH  91  93
ATOM     93  C   LEU d   1      -6.499  19.303  40.450  0.00  0.00     0.241 C 
ATOM     94  O   LEU d   1      -7.522  19.243  39.720  0.00  0.00    -0.271 OA
ATOM     95  N   ASP d   1      -6.166  20.371  41.167  0.00  0.00    -0.346 N 
ATOM     96  H62 ASP d   1      -5.347  20.331  41.739  0.00  0.00     0.163 HD
BRANCH  95  97
ATOM     97  CA  ASP d   1      -6.954  21.602  41.149  0.00  0.00     0.098 C 
ATOM     98  H63 ASP d   1      -8.003  21.346  41.360  0.00  0.00     0.088 H 
BRANCH  97  99
ATOM     99  C   ASP d   1      -6.878  22.263  39.781  0.00  0.00     0.241 C 
ATOM    100  O   ASP d   1      -7.867  22.816  39.297  0.00  0.00    -0.271 OA
ATOM    101  N   TYR d   1      -5.698  22.219  39.158  0.00  0.00    -0.346 N 
ATOM    102  H66 TYR d   1      -4.959  21.670  39.549  0.00  0.00     0.163 HD
BRANCH 101 103
ATOM    103  CA  TYR d   1      -5.460  22.958  37.912  0.00  0.00     0.093 C 
ATOM    104  H67 TYR d   1      -5.790  24.000  38.031  0.00  0.00     0.088 H 
BRANCH 103 105
ATOM    105  C   TYR d   1      -6.229  22.301  36.779  0.00  0.00     0.241 C 
ATOM    106  O   TYR d   1      -6.916  22.973  36.000  0.00  0.00    -0.271 OA
ATOM    107  N   TYR d   1      -6.089  20.988  36.681  0.00  0.00    -0.346 N 
ATOM    108  H75 TYR d   1      -5.574  20.501  37.386  0.00  0.00     0.163 HD
BRANCH 107 109
ATOM    109  CA  TYR d   1      -6.664  20.229  35.574  0.00  0.00     0.093 C 
ATOM    110  H76 TYR d   1      -6.710  20.906  34.708  0.00  0.00     0.088 H 
BRANCH 109 111
ATOM    111  C   TYR d   1      -8.087  19.746  35.835  0.00  0.00     0.241 C 
ATOM    112  O   TYR d   1      -8.818  19.448  34.886  0.00  0.00    -0.271 OA
ATOM    113  N   GLY d   1      -8.469  19.673  37.111  0.00  0.00    -0.353 N 
ATOM    114  H84 GLY d   1      -7.801  19.901  37.820  0.00  0.00     0.162 HD
BRANCH 113 115
ATOM    115  CA  GLY d   1      -9.821  19.275  37.528  0.00  0.00     0.043 C 
ATOM    116  H85 GLY d   1      -9.773  18.908  38.564  0.00  0.00     0.074 H 
ATOM    117  H86 GLY d   1     -10.166  18.466  36.868  0.00  0.00     0.074 H 
BRANCH 115 118
ATOM    118  C   GLY d   1     -10.830  20.410  37.466  0.00  0.00     0.105 C 
ATOM    119  O   GLY d   1     -10.652  21.343  36.673  0.00  0.00    -0.305 OA
ATOM    120  H87 GLY d   1     -11.704  20.402  38.115  0.00  0.00     0.145 H 
ENDBRANCH 115 118
ENDBRANCH 113 115
ENDBRANCH 109 111
BRANCH 109 121
ATOM    121  CB  TYR d   1      -5.748  19.059  35.199  0.00  0.00    -0.014 C 
ATOM    122  H77 TYR d   1      -6.279  18.411  34.486  0.00  0.00     0.043 H 
ATOM    123  H78 TYR d   1      -5.515  18.488  36.110  0.00  0.00     0.043 H 
BRANCH 121 124
ATOM    124  CG  TYR d   1      -4.448  19.514  34.566  0.00  0.00    -0.056 A 
ATOM    125  CD1 TYR d   1      -3.227  19.335  35.222  0.00  0.00    -0.074 A 
ATOM    126  CE1 TYR d   1      -2.043  19.775  34.662  0.00  0.00    -0.051 A 
ATOM    127  H79 TYR d   1      -3.208  18.842  36.187  0.00  0.00     0.084 H 
ATOM    128  CZ  TYR d   1      -2.042  20.370  33.415  0.00  0.00     0.065 A 
ATOM    129  H81 TYR d   1      -1.112  19.653  35.203  0.00  0.00     0.087 H 
ATOM    130  CE2 TYR d   1      -3.251  20.584  32.739  0.00  0.00    -0.051 A 
ATOM    131  CD2 TYR d   1      -4.437  20.143  33.318  0.00  0.00    -0.074 A 
ATOM    132  H82 TYR d   1      -3.262  21.086  31.778  0.00  0.00     0.087 H 
ATOM    133  H80 TYR d   1      -5.372  20.290  32.790  0.00  0.00     0.084 H 
BRANCH 128 134
ATOM    134  OH  TYR d   1      -0.840  20.792  32.877  0.00  0.00    -0.361 OA
ATOM    135  H83 TYR d   1      -0.862  21.734  32.756  0.00  0.00     0.217 HD
ENDBRANCH 128 134
ENDBRANCH 121 124
ENDBRANCH 109 121
ENDBRANCH 107 109
ENDBRANCH 103 105
BRANCH 103 136
ATOM    136  CB  TYR d   1      -3.967  22.922  37.575  0.00  0.00    -0.014 C 
ATOM    137  H68 TYR d   1      -3.693  21.878  37.361  0.00  0.00     0.043 H 
ATOM    138  H69 TYR d   1      -3.412  23.274  38.457  0.00  0.00     0.043 H 
BRANCH 136 139
ATOM    139  CG  TYR d   1      -3.543  23.771  36.385  0.00  0.00    -0.056 A 
ATOM    140  CD1 TYR d   1      -3.438  25.159  36.490  0.00  0.00    -0.074 A 
ATOM    141  CE1 TYR d   1      -3.033  25.935  35.412  0.00  0.00    -0.051 A 
ATOM    142  H70 TYR d   1      -3.677  25.640  37.431  0.00  0.00     0.084 H 
ATOM    143  CZ  TYR d   1      -2.692  25.325  34.211  0.00  0.00     0.065 A 
ATOM    144  H72 TYR d   1      -2.983  27.014  35.507  0.00  0.00     0.087 H 
ATOM    145  CE2 TYR d   1      -2.769  23.950  34.085  0.00  0.00    -0.051 A 
ATOM    146  CD2 TYR d   1      -3.195  23.179  35.171  0.00  0.00    -0.074 A 
ATOM    147  H73 TYR d   1      -2.501  23.473  33.150  0.00  0.00     0.087 H 
ATOM    148  H71 TYR d   1      -3.256  22.102  35.068  0.00  0.00     0.084 H 
BRANCH 143 149
ATOM    149  OH  TYR d   1      -2.289  26.117  33.146  0.00  0.00    -0.361 OA
ATOM    150  H74 TYR d   1      -2.295  27.029  33.411  0.00  0.00     0.217 HD
ENDBRANCH 143 149
ENDBRANCH 136 139
ENDBRANCH 103 136
ENDBRANCH 101 103
ENDBRANCH  97  99
BRANCH  97 151
ATOM    151  CB  ASP d   1      -6.469  22.585  42.215  0.00  0.00     0.043 C 
ATOM    152  H64 ASP d   1      -6.884  23.578  41.989  0.00  0.00     0.052 H 
ATOM    153  H65 ASP d   1      -5.371  22.629  42.175  0.00  0.00     0.052 H 
BRANCH 151 154
ATOM    154  CG  ASP d   1      -6.889  22.195  43.638  0.00  0.00     0.175 C 
ATOM    155  OD1 ASP d   1      -7.720  21.278  43.836  0.00  0.00    -0.648 OA
ATOM    156  OD2 ASP d   1      -6.359  22.835  44.572  0.00  0.00    -0.648 OA
ENDBRANCH 151 154
ENDBRANCH  97 151
ENDBRANCH  95  97
ENDBRANCH  91  93
BRANCH  91 157
ATOM    157  CB  LEU d   1      -5.889  17.279  41.817  0.00  0.00    -0.035 C 
ATOM    158  H53 LEU d   1      -6.982  17.166  41.868  0.00  0.00     0.037 H 
ATOM    159  H54 LEU d   1      -5.536  17.837  42.697  0.00  0.00     0.037 H 
BRANCH 157 160
ATOM    160  CG  LEU d   1      -5.269  15.880  41.868  0.00  0.00    -0.059 C 
ATOM    161  H55 LEU d   1      -4.199  15.977  41.630  0.00  0.00     0.038 H 
BRANCH 160 162
ATOM    162  CD1 LEU d   1      -5.388  15.302  43.277  0.00  0.00    -0.073 C 
ATOM    163  H56 LEU d   1      -4.939  14.298  43.300  0.00  0.00     0.028 H 
ATOM    164  H57 LEU d   1      -6.449  15.236  43.558  0.00  0.00     0.028 H 
ATOM    165  H58 LEU d   1      -4.861  15.956  43.987  0.00  0.00     0.028 H 
ENDBRANCH 160 162
BRANCH 160 166
ATOM    166  CD2 LEU d   1      -5.888  14.947  40.835  0.00  0.00    -0.073 C 
ATOM    167  H59 LEU d   1      -5.787  15.390  39.833  0.00  0.00     0.028 H 
ATOM    168  H60 LEU d   1      -6.954  14.801  41.065  0.00  0.00     0.028 H 
ATOM    169  H61 LEU d   1      -5.371  13.977  40.861  0.00  0.00     0.028 H 
ENDBRANCH 160 166
ENDBRANCH 157 160
ENDBRANCH  91 157
ENDBRANCH  89  91
ENDBRANCH   1  87
BRANCH   1 170
ATOM    170  CB  LEU d   1      -1.261  18.418  39.334  0.00  0.00    -0.035 C 
ATOM    171  H42 LEU d   1      -1.587  17.991  38.374  0.00  0.00     0.037 H 
ATOM    172  H43 LEU d   1      -1.380  17.667  40.129  0.00  0.00     0.037 H 
BRANCH 170 173
ATOM    173  CG  LEU d   1       0.237  18.763  39.221  0.00  0.00    -0.059 C 
ATOM    174  H44 LEU d   1       0.549  19.269  40.147  0.00  0.00     0.038 H 
BRANCH 173 175
ATOM    175  CD1 LEU d   1       1.059  17.506  39.051  0.00  0.00    -0.073 C 
ATOM    176  H45 LEU d   1       2.123  17.772  38.972  0.00  0.00     0.028 H 
ATOM    177  H46 LEU d   1       0.743  16.982  38.137  0.00  0.00     0.028 H 
ATOM    178  H47 LEU d   1       0.908  16.849  39.920  0.00  0.00     0.028 H 
ENDBRANCH 173 175
BRANCH 173 179
ATOM    179  CD2 LEU d   1       0.496  19.700  38.036  0.00  0.00    -0.073 C 
ATOM    180  H48 LEU d   1      -0.101  20.616  38.156  0.00  0.00     0.028 H 
ATOM    181  H49 LEU d   1       0.210  19.196  37.101  0.00  0.00     0.028 H 
ATOM    182  H50 LEU d   1       1.564  19.960  38.001  0.00  0.00     0.028 H 
ENDBRANCH 173 179
ENDBRANCH 170 173
ENDBRANCH   1 170
TORSDOF 52
