REMARK WARNING: 32 MAX_TORS EXCEEDED!!!
REMARK  53 active torsions:
REMARK  status: ('A' for Active; 'I' for Inactive)
REMARK    1  A    between atoms: N_1  and  CA_2 
REMARK    2  A    between atoms: CA_2  and  C_3 
REMARK    3  A    between atoms: CA_2  and  CB_5 
REMARK       I    between atoms: C_3  and  N_9 
REMARK    4  A    between atoms: CB_5  and  CG1_6 
REMARK    5  A    between atoms: CB_5  and  CG2_7 
REMARK    6  A    between atoms: CG1_6  and  CD1_8 
REMARK    7  A    between atoms: N_9  and  CA_10 
REMARK    8  A    between atoms: CA_10  and  C_11 
REMARK    9  A    between atoms: CA_10  and  CB_13 
REMARK       I    between atoms: C_11  and  N_16 
REMARK   10  A    between atoms: CB_13  and  OG1_14 
REMARK   11  A    between atoms: CB_13  and  CG2_15 
REMARK   12  A    between atoms: N_16  and  CA_17 
REMARK   13  A    between atoms: CA_17  and  C_18 
REMARK   14  A    between atoms: CA_17  and  CB_20 
REMARK       I    between atoms: C_18  and  N_27 
REMARK   15  A    between atoms: CB_20  and  CG_21 
REMARK   16  A    between atoms: N_27  and  CA_28 
REMARK   17  A    between atoms: CA_28  and  C_29 
REMARK   18  A    between atoms: CA_28  and  CB_31 
REMARK       I    between atoms: C_29  and  N_36 
REMARK   19  A    between atoms: CB_31  and  CG_32 
REMARK   20  A    between atoms: CG_32  and  CD_33 
REMARK   21  A    between atoms: N_36  and  CA_37 
REMARK   22  A    between atoms: CA_37  and  C_38 
REMARK   23  A    between atoms: CA_37  and  CB_40 
REMARK       I    between atoms: C_38  and  N_44 
REMARK   24  A    between atoms: CB_40  and  CG_41 
REMARK   25  A    between atoms: N_44  and  CA_45 
REMARK   26  A    between atoms: CA_45  and  C_46 
REMARK   27  A    between atoms: CA_45  and  CB_48 
REMARK       I    between atoms: C_46  and  N_52 
REMARK   28  A    between atoms: CB_48  and  CG_49 
REMARK   29  A    between atoms: CG_49  and  CD1_50 
REMARK   30  A    between atoms: CG_49  and  CD2_51 
REMARK   31  A    between atoms: N_52  and  CA_53 
REMARK   32  A    between atoms: CA_53  and  C_54 
REMARK   33  A    between atoms: CA_53  and  CB_56 
REMARK       I    between atoms: C_54  and  N_60 
REMARK   34  A    between atoms: CB_56  and  CG_57 
REMARK   35  A    between atoms: CG_57  and  CD1_58 
REMARK   36  A    between atoms: CG_57  and  CD2_59 
REMARK   37  A    between atoms: N_60  and  CA_61 
REMARK   38  A    between atoms: CA_61  and  C_62 
REMARK   39  A    between atoms: CA_61  and  CB_64 
REMARK       I    between atoms: C_62  and  N_68 
REMARK   40  A    between atoms: CB_64  and  CG_65 
REMARK   41  A    between atoms: N_68  and  CA_69 
REMARK   42  A    between atoms: CA_69  and  C_70 
REMARK   43  A    between atoms: CA_69  and  CB_72 
REMARK       I    between atoms: C_70  and  N_80 
REMARK   44  A    between atoms: CB_72  and  CG_73 
REMARK   45  A    between atoms: CZ_78  and  OH_79 
REMARK   46  A    between atoms: N_80  and  CA_81 
REMARK   47  A    between atoms: CA_81  and  C_82 
REMARK   48  A    between atoms: CA_81  and  CB_84 
REMARK       I    between atoms: C_82  and  N_92 
REMARK   49  A    between atoms: CB_84  and  CG_85 
REMARK   50  A    between atoms: CZ_90  and  OH_91 
REMARK   51  A    between atoms: N_92  and  CA_93 
REMARK   52  A    between atoms: CA_93  and  C_94 
REMARK       I    between atoms: C_94  and  N_96 
REMARK   53  A    between atoms: CA_97  and  C_98 
ROOT
ATOM      1  CA  LEU d   1      35.862  -8.266  15.367  0.00  0.00     0.089 C 
ATOM      2  H41 LEU d   1      36.612  -8.227  14.563  0.00  0.00     0.087 H 
ENDROOT
BRANCH   1   3
ATOM      3  N   LEU d   1      36.553  -8.035  16.634  0.00  0.00    -0.346 N 
ATOM      4  C   ASP d   1      37.364  -6.996  16.806  0.00  0.00     0.241 C 
ATOM      5  O   ASP d   1      37.610  -6.188  15.916  0.00  0.00    -0.271 OA
ATOM      6  H40 LEU d   1      36.412  -8.674  17.390  0.00  0.00     0.163 HD
BRANCH   4   7
ATOM      7  CA  ASP d   1      37.975  -6.829  18.191  0.00  0.00     0.098 C 
ATOM      8  H37 ASP d   1      38.231  -5.769  18.334  0.00  0.00     0.088 H 
BRANCH   7   9
ATOM      9  N   ASP d   1      37.009  -7.209  19.211  0.00  0.00    -0.346 N 
ATOM     10  C   GLU d   1      35.908  -6.494  19.421  0.00  0.00     0.241 C 
ATOM     11  O   GLU d   1      35.686  -5.423  18.859  0.00  0.00    -0.271 OA
ATOM     12  H36 ASP d   1      37.177  -8.024  19.765  0.00  0.00     0.163 HD
BRANCH  10  13
ATOM     13  CA  GLU d   1      34.902  -7.076  20.407  0.00  0.00     0.090 C 
ATOM     14  H31 GLU d   1      33.896  -6.874  20.011  0.00  0.00     0.087 H 
BRANCH  13  15
ATOM     15  N   GLU d   1      35.041  -8.522  20.544  0.00  0.00    -0.346 N 
ATOM     16  C   PHE d   1      34.656  -9.340  19.571  0.00  0.00     0.241 C 
ATOM     17  O   PHE d   1      34.147  -8.935  18.527  0.00  0.00    -0.271 OA
ATOM     18  H30 GLU d   1      35.432  -8.902  21.382  0.00  0.00     0.163 HD
BRANCH  16  19
ATOM     19  CA  PHE d   1      34.891 -10.827  19.800  0.00  0.00     0.093 C 
ATOM     20  H22 PHE d   1      35.136 -11.293  18.834  0.00  0.00     0.088 H 
BRANCH  19  21
ATOM     21  N   PHE d   1      36.012 -11.024  20.706  0.00  0.00    -0.346 N 
ATOM     22  C   THR d   1      37.266 -10.881  20.297  0.00  0.00     0.243 C 
ATOM     23  O   THR d   1      37.564 -10.624  19.132  0.00  0.00    -0.271 OA
ATOM     24  H21 PHE d   1      35.834 -11.273  21.658  0.00  0.00     0.163 HD
BRANCH  22  25
ATOM     25  CA  THR d   1      38.336 -11.051  21.364  0.00  0.00     0.113 C 
ATOM     26  H15 THR d   1      38.175 -12.019  21.861  0.00  0.00     0.091 H 
BRANCH  25  27
ATOM     27  N   THR d   1      39.683 -11.058  20.803  0.00  0.00    -0.344 N 
ATOM     28  C   ILE d   1      40.204 -12.148  20.250  0.00  0.00     0.249 C 
ATOM     29  O   ILE d   1      39.553 -13.180  20.073  0.00  0.00    -0.271 OA
ATOM     30  H14 THR d   1      40.228 -10.220  20.836  0.00  0.00     0.163 HD
BRANCH  28  31
ATOM     31  CA  ILE d   1      41.687 -12.066  19.862  0.00  0.00     0.179 C 
ATOM     32  H4  ILE d   1      42.070 -11.110  20.248  0.00  0.00     0.099 H 
BRANCH  31  33
ATOM     33  N   ILE d   1      42.460 -13.159  20.522  0.00  0.00    -0.066 N 
ATOM     34  H1  ILE d   1      42.290 -13.138  21.515  0.00  0.00     0.275 HD
ATOM     35  H2  ILE d   1      43.444 -13.028  20.346  0.00  0.00     0.275 HD
ATOM     36  H3  ILE d   1      42.168 -14.049  20.150  0.00  0.00     0.275 HD
ENDBRANCH  31  33
BRANCH  31  37
ATOM     37  CB  ILE d   1      41.919 -12.059  18.317  0.00  0.00    -0.022 C 
ATOM     38  H5  ILE d   1      43.006 -12.082  18.149  0.00  0.00     0.043 H 
BRANCH  37  39
ATOM     39  CG1 ILE d   1      41.388 -10.774  17.674  0.00  0.00    -0.063 C 
ATOM     40  H6  ILE d   1      42.138 -10.415  16.953  0.00  0.00     0.033 H 
ATOM     41  H7  ILE d   1      41.252 -10.024  18.467  0.00  0.00     0.033 H 
BRANCH  39  42
ATOM     42  CD1 ILE d   1      40.074 -10.936  16.947  0.00  0.00    -0.076 C 
ATOM     43  H11 ILE d   1      39.770  -9.969  16.519  0.00  0.00     0.027 H 
ATOM     44  H12 ILE d   1      39.305 -11.283  17.653  0.00  0.00     0.027 H 
ATOM     45  H13 ILE d   1      40.190 -11.674  16.140  0.00  0.00     0.027 H 
ENDBRANCH  39  42
ENDBRANCH  37  39
BRANCH  37  46
ATOM     46  CG2 ILE d   1      41.335 -13.301  17.663  0.00  0.00    -0.070 C 
ATOM     47  H8  ILE d   1      41.741 -14.198  18.153  0.00  0.00     0.028 H 
ATOM     48  H9  ILE d   1      41.602 -13.313  16.596  0.00  0.00     0.028 H 
ATOM     49  H10 ILE d   1      40.240 -13.290  17.767  0.00  0.00     0.028 H 
ENDBRANCH  37  46
ENDBRANCH  31  37
ENDBRANCH  28  31
ENDBRANCH  25  27
BRANCH  25  50
ATOM     50  CB  THR d   1      38.173  -9.933  22.411  0.00  0.00     0.060 C 
ATOM     51  H16 THR d   1      37.210 -10.064  22.927  0.00  0.00     0.086 H 
BRANCH  50  52
ATOM     52  OG1 THR d   1      38.191  -8.657  21.758  0.00  0.00    -0.393 OA
ATOM     53  H17 THR d   1      39.018  -8.547  21.303  0.00  0.00     0.210 HD
ENDBRANCH  50  52
BRANCH  50  54
ATOM     54  CG2 THR d   1      39.297  -9.986  23.437  0.00  0.00    -0.050 C 
ATOM     55  H18 THR d   1      39.160  -9.180  24.173  0.00  0.00     0.031 H 
ATOM     56  H19 THR d   1      40.264  -9.858  22.929  0.00  0.00     0.031 H 
ATOM     57  H20 THR d   1      39.279 -10.959  23.951  0.00  0.00     0.031 H 
ENDBRANCH  50  54
ENDBRANCH  25  50
ENDBRANCH  22  25
ENDBRANCH  19  21
BRANCH  19  58
ATOM     58  CB  PHE d   1      33.636 -11.498  20.355  0.00  0.00    -0.014 C 
ATOM     59  H23 PHE d   1      33.509 -11.182  21.401  0.00  0.00     0.043 H 
ATOM     60  H24 PHE d   1      33.781 -12.588  20.316  0.00  0.00     0.043 H 
BRANCH  58  61
ATOM     61  CG  PHE d   1      32.381 -11.163  19.607  0.00  0.00    -0.056 A 
ATOM     62  CD1 PHE d   1      32.253 -11.467  18.264  0.00  0.00    -0.077 A 
ATOM     63  CE1 PHE d   1      31.089 -11.163  17.577  0.00  0.00    -0.082 A 
ATOM     64  H25 PHE d   1      33.073 -11.948  17.743  0.00  0.00     0.084 H 
ATOM     65  CZ  PHE d   1      30.037 -10.563  18.236  0.00  0.00    -0.083 A 
ATOM     66  H27 PHE d   1      31.005 -11.397  16.522  0.00  0.00     0.083 H 
ATOM     67  CE2 PHE d   1      30.149 -10.266  19.579  0.00  0.00    -0.082 A 
ATOM     68  H29 PHE d   1      29.125 -10.325  17.701  0.00  0.00     0.083 H 
ATOM     69  CD2 PHE d   1      31.315 -10.566  20.257  0.00  0.00    -0.077 A 
ATOM     70  H28 PHE d   1      29.323  -9.798  20.102  0.00  0.00     0.083 H 
ATOM     71  H26 PHE d   1      31.396 -10.331  21.312  0.00  0.00     0.084 H 
ENDBRANCH  58  61
ENDBRANCH  19  58
ENDBRANCH  16  19
ENDBRANCH  13  15
BRANCH  13  72
ATOM     72  CB  GLU d   1      35.013  -6.397  21.770  0.00  0.00    -0.029 C 
ATOM     73  H32 GLU d   1      35.236  -5.331  21.616  0.00  0.00     0.037 H 
ATOM     74  H33 GLU d   1      35.834  -6.866  22.332  0.00  0.00     0.037 H 
BRANCH  72  75
ATOM     75  CG  GLU d   1      33.736  -6.515  22.583  0.00  0.00     0.018 C 
ATOM     76  H34 GLU d   1      33.148  -7.358  22.192  0.00  0.00     0.049 H 
ATOM     77  H35 GLU d   1      33.161  -5.584  22.470  0.00  0.00     0.049 H 
BRANCH  75  78
ATOM     78  CD  GLU d   1      33.993  -6.749  24.063  0.00  0.00     0.172 C 
ATOM     79  OE1 GLU d   1      33.297  -6.115  24.890  0.00  0.00    -0.648 OA
ATOM     80  OE2 GLU d   1      34.883  -7.570  24.397  0.00  0.00    -0.648 OA
ENDBRANCH  75  78
ENDBRANCH  72  75
ENDBRANCH  13  72
ENDBRANCH  10  13
ENDBRANCH   7   9
BRANCH   7  81
ATOM     81  CB  ASP d   1      39.256  -7.652  18.313  0.00  0.00     0.043 C 
ATOM     82  H38 ASP d   1      39.928  -7.384  17.484  0.00  0.00     0.052 H 
ATOM     83  H39 ASP d   1      38.997  -8.719  18.246  0.00  0.00     0.052 H 
BRANCH  81  84
ATOM     84  CG  ASP d   1      39.981  -7.409  19.624  0.00  0.00     0.175 C 
ATOM     85  OD1 ASP d   1      40.983  -8.107  19.902  0.00  0.00    -0.648 OA
ATOM     86  OD2 ASP d   1      39.538  -6.519  20.382  0.00  0.00    -0.648 OA
ENDBRANCH  81  84
ENDBRANCH   7  81
ENDBRANCH   4   7
ENDBRANCH   1   3
BRANCH   1  87
ATOM     87  C   LEU d   1      34.807  -7.203  15.081  0.00  0.00     0.241 C 
ATOM     88  O   LEU d   1      34.542  -6.878  13.927  0.00  0.00    -0.271 OA
ATOM     89  N   LEU d   1      34.205  -6.668  16.136  0.00  0.00    -0.346 N 
ATOM     90  H51 LEU d   1      34.464  -6.969  17.054  0.00  0.00     0.163 HD
BRANCH  89  91
ATOM     91  CA  LEU d   1      33.175  -5.652  15.982  0.00  0.00     0.089 C 
ATOM     92  H52 LEU d   1      32.597  -5.899  15.079  0.00  0.00     0.087 H 
BRANCH  91  93
ATOM     93  C   LEU d   1      33.770  -4.260  15.781  0.00  0.00     0.241 C 
ATOM     94  O   LEU d   1      33.152  -3.405  15.148  0.00  0.00    -0.271 OA
ATOM     95  N   ASP d   1      34.965  -4.034  16.320  0.00  0.00    -0.346 N 
ATOM     96  H62 ASP d   1      35.354  -4.706  16.950  0.00  0.00     0.163 HD
BRANCH  95  97
ATOM     97  CA  ASP d   1      35.718  -2.824  16.010  0.00  0.00     0.098 C 
ATOM     98  H63 ASP d   1      35.100  -1.942  16.236  0.00  0.00     0.088 H 
BRANCH  97  99
ATOM     99  C   ASP d   1      36.078  -2.837  14.534  0.00  0.00     0.241 C 
ATOM    100  O   ASP d   1      36.097  -1.801  13.871  0.00  0.00    -0.271 OA
ATOM    101  N   TYR d   1      36.361  -4.030  14.028  0.00  0.00    -0.346 N 
ATOM    102  H66 TYR d   1      36.218  -4.843  14.592  0.00  0.00     0.163 HD
BRANCH 101 103
ATOM    103  CA  TYR d   1      36.871  -4.188  12.682  0.00  0.00     0.093 C 
ATOM    104  H67 TYR d   1      37.503  -3.318  12.451  0.00  0.00     0.088 H 
BRANCH 103 105
ATOM    105  C   TYR d   1      35.747  -4.238  11.651  0.00  0.00     0.241 C 
ATOM    106  O   TYR d   1      35.879  -3.696  10.561  0.00  0.00    -0.271 OA
ATOM    107  N   TYR d   1      34.639  -4.885  11.990  0.00  0.00    -0.346 N 
ATOM    108  H75 TYR d   1      34.547  -5.267  12.910  0.00  0.00     0.163 HD
BRANCH 107 109
ATOM    109  CA  TYR d   1      33.553  -5.042  11.024  0.00  0.00     0.093 C 
ATOM    110  H76 TYR d   1      33.936  -4.675  10.060  0.00  0.00     0.088 H 
BRANCH 109 111
ATOM    111  C   TYR d   1      32.315  -4.202  11.342  0.00  0.00     0.241 C 
ATOM    112  O   TYR d   1      31.513  -3.919  10.452  0.00  0.00    -0.271 OA
ATOM    113  N   GLY d   1      32.166  -3.809  12.605  0.00  0.00    -0.351 N 
ATOM    114  H84 GLY d   1      32.769  -4.186  13.308  0.00  0.00     0.163 HD
BRANCH 113 115
ATOM    115  CA  GLY d   1      31.140  -2.837  12.990  0.00  0.00     0.069 C 
ATOM    116  H85 GLY d   1      30.932  -2.212  12.109  0.00  0.00     0.078 H 
ATOM    117  H86 GLY d   1      31.562  -2.213  13.791  0.00  0.00     0.078 H 
BRANCH 115 118
ATOM    118  C   GLY d   1      29.808  -3.377  13.489  0.00  0.00     0.238 C 
ATOM    119  O   GLY d   1      29.769  -4.262  14.352  0.00  0.00    -0.272 OA
ATOM    120  N   PRO d   1      28.700  -2.846  12.939  0.00  0.00    -0.336 N 
ATOM    121  CA  PRO d   1      27.341  -3.114  13.416  0.00  0.00     0.098 C 
ATOM    122  CD  PRO d   1      28.708  -2.044  11.699  0.00  0.00    -0.001 C 
ATOM    123  CB  PRO d   1      26.492  -2.112  12.626  0.00  0.00    -0.035 C 
ATOM    124  H87 PRO d   1      27.273  -2.918  14.496  0.00  0.00     0.089 H 
ATOM    125  CG  PRO d   1      27.245  -1.903  11.352  0.00  0.00    -0.048 C 
ATOM    126  H88 PRO d   1      26.393  -1.166  13.178  0.00  0.00     0.036 H 
ATOM    127  H89 PRO d   1      25.493  -2.524  12.423  0.00  0.00     0.036 H 
ATOM    128  H90 PRO d   1      27.044  -0.899  10.950  0.00  0.00     0.035 H 
ATOM    129  H91 PRO d   1      26.955  -2.660  10.609  0.00  0.00     0.035 H 
ATOM    130  H92 PRO d   1      29.252  -2.566  10.898  0.00  0.00     0.064 H 
ATOM    131  H93 PRO d   1      29.166  -1.059  11.872  0.00  0.00     0.064 H 
BRANCH 121 132
ATOM    132  C   PRO d   1      26.866  -4.547  13.143  0.00  0.00     0.196 C 
ATOM    133  O   PRO d   1      25.700  -4.880  13.382  0.00  0.00    -0.646 OA
ATOM    134  OXT PRO d   1      27.626  -5.407  12.683  0.00  0.00    -0.646 OA
ENDBRANCH 121 132
ENDBRANCH 115 118
ENDBRANCH 113 115
ENDBRANCH 109 111
BRANCH 109 135
ATOM    135  CB  TYR d   1      33.205  -6.516  10.831  0.00  0.00    -0.014 C 
ATOM    136  H77 TYR d   1      32.292  -6.587  10.221  0.00  0.00     0.043 H 
ATOM    137  H78 TYR d   1      33.023  -6.968  11.817  0.00  0.00     0.043 H 
BRANCH 135 138
ATOM    138  CG  TYR d   1      34.310  -7.282  10.142  0.00  0.00    -0.056 A 
ATOM    139  CD1 TYR d   1      35.261  -7.977  10.874  0.00  0.00    -0.074 A 
ATOM    140  CE1 TYR d   1      36.279  -8.674  10.245  0.00  0.00    -0.051 A 
ATOM    141  H79 TYR d   1      35.207  -7.975  11.957  0.00  0.00     0.084 H 
ATOM    142  CZ  TYR d   1      36.359  -8.670   8.869  0.00  0.00     0.065 A 
ATOM    143  H81 TYR d   1      37.009  -9.220  10.832  0.00  0.00     0.087 H 
ATOM    144  CE2 TYR d   1      35.431  -7.978   8.123  0.00  0.00    -0.051 A 
ATOM    145  CD2 TYR d   1      34.417  -7.288   8.760  0.00  0.00    -0.074 A 
ATOM    146  H82 TYR d   1      35.496  -7.974   7.041  0.00  0.00     0.087 H 
ATOM    147  H80 TYR d   1      33.692  -6.741   8.168  0.00  0.00     0.084 H 
BRANCH 142 148
ATOM    148  OH  TYR d   1      37.370  -9.358   8.237  0.00  0.00    -0.361 OA
ATOM    149  H83 TYR d   1      37.920  -9.778   8.887  0.00  0.00     0.217 HD
ENDBRANCH 142 148
ENDBRANCH 135 138
ENDBRANCH 109 135
ENDBRANCH 107 109
ENDBRANCH 103 105
BRANCH 103 150
ATOM    150  CB  TYR d   1      37.736  -5.446  12.602  0.00  0.00    -0.014 C 
ATOM    151  H68 TYR d   1      37.070  -6.320  12.547  0.00  0.00     0.043 H 
ATOM    152  H69 TYR d   1      38.343  -5.505  13.517  0.00  0.00     0.043 H 
BRANCH 150 153
ATOM    153  CG  TYR d   1      38.664  -5.484  11.416  0.00  0.00    -0.056 A 
ATOM    154  CD1 TYR d   1      39.961  -5.005  11.510  0.00  0.00    -0.074 A 
ATOM    155  CE1 TYR d   1      40.814  -5.039  10.422  0.00  0.00    -0.051 A 
ATOM    156  H70 TYR d   1      40.312  -4.597  12.451  0.00  0.00     0.084 H 
ATOM    157  CZ  TYR d   1      40.367  -5.558   9.222  0.00  0.00     0.065 A 
ATOM    158  H72 TYR d   1      41.826  -4.661  10.510  0.00  0.00     0.087 H 
ATOM    159  CE2 TYR d   1      39.083  -6.041   9.108  0.00  0.00    -0.051 A 
ATOM    160  CD2 TYR d   1      38.243  -6.002  10.200  0.00  0.00    -0.074 A 
ATOM    161  H73 TYR d   1      38.735  -6.449   8.166  0.00  0.00     0.087 H 
ATOM    162  H71 TYR d   1      37.233  -6.384  10.107  0.00  0.00     0.084 H 
BRANCH 157 163
ATOM    163  OH  TYR d   1      41.204  -5.594   8.132  0.00  0.00    -0.361 OA
ATOM    164  H74 TYR d   1      42.048  -5.228   8.370  0.00  0.00     0.217 HD
ENDBRANCH 157 163
ENDBRANCH 150 153
ENDBRANCH 103 150
ENDBRANCH 101 103
ENDBRANCH  97  99
BRANCH  97 165
ATOM    165  CB  ASP d   1      37.010  -2.762  16.826  0.00  0.00     0.043 C 
ATOM    166  H64 ASP d   1      37.672  -2.006  16.378  0.00  0.00     0.052 H 
ATOM    167  H65 ASP d   1      37.498  -3.747  16.787  0.00  0.00     0.052 H 
BRANCH 165 168
ATOM    168  CG  ASP d   1      36.773  -2.398  18.276  0.00  0.00     0.175 C 
ATOM    169  OD1 ASP d   1      35.617  -2.082  18.631  0.00  0.00    -0.648 OA
ATOM    170  OD2 ASP d   1      37.746  -2.429  19.061  0.00  0.00    -0.648 OA
ENDBRANCH 165 168
ENDBRANCH  97 165
ENDBRANCH  95  97
ENDBRANCH  91  93
BRANCH  91 171
ATOM    171  CB  LEU d   1      32.215  -5.671  17.171  0.00  0.00    -0.035 C 
ATOM    172  H53 LEU d   1      31.508  -4.837  17.051  0.00  0.00     0.037 H 
ATOM    173  H54 LEU d   1      32.805  -5.523  18.087  0.00  0.00     0.037 H 
BRANCH 171 174
ATOM    174  CG  LEU d   1      31.403  -6.961  17.333  0.00  0.00    -0.059 C 
ATOM    175  H55 LEU d   1      32.107  -7.794  17.474  0.00  0.00     0.038 H 
BRANCH 174 176
ATOM    176  CD1 LEU d   1      30.519  -6.872  18.565  0.00  0.00    -0.073 C 
ATOM    177  H56 LEU d   1      29.942  -7.803  18.670  0.00  0.00     0.028 H 
ATOM    178  H57 LEU d   1      29.828  -6.022  18.460  0.00  0.00     0.028 H 
ATOM    179  H58 LEU d   1      31.146  -6.727  19.457  0.00  0.00     0.028 H 
ENDBRANCH 174 176
BRANCH 174 180
ATOM    180  CD2 LEU d   1      30.574  -7.251  16.086  0.00  0.00    -0.073 C 
ATOM    181  H59 LEU d   1      31.237  -7.310  15.210  0.00  0.00     0.028 H 
ATOM    182  H60 LEU d   1      29.841  -6.444  15.937  0.00  0.00     0.028 H 
ATOM    183  H61 LEU d   1      30.046  -8.208  16.211  0.00  0.00     0.028 H 
ENDBRANCH 174 180
ENDBRANCH 171 174
ENDBRANCH  91 171
ENDBRANCH  89  91
ENDBRANCH   1  87
BRANCH   1 184
ATOM    184  CB  LEU d   1      35.208  -9.648  15.348  0.00  0.00    -0.035 C 
ATOM    185  H42 LEU d   1      34.424  -9.631  14.577  0.00  0.00     0.037 H 
ATOM    186  H43 LEU d   1      34.749  -9.809  16.334  0.00  0.00     0.037 H 
BRANCH 184 187
ATOM    187  CG  LEU d   1      36.105 -10.847  15.061  0.00  0.00    -0.059 C 
ATOM    188  H44 LEU d   1      36.879 -10.906  15.840  0.00  0.00     0.038 H 
BRANCH 187 189
ATOM    189  CD1 LEU d   1      35.288 -12.116  15.089  0.00  0.00    -0.073 C 
ATOM    190  H45 LEU d   1      35.941 -12.977  14.881  0.00  0.00     0.028 H 
ATOM    191  H46 LEU d   1      34.499 -12.061  14.324  0.00  0.00     0.028 H 
ATOM    192  H47 LEU d   1      34.829 -12.235  16.082  0.00  0.00     0.028 H 
ENDBRANCH 187 189
BRANCH 187 193
ATOM    193  CD2 LEU d   1      36.778 -10.685  13.720  0.00  0.00    -0.073 C 
ATOM    194  H48 LEU d   1      37.368  -9.757  13.716  0.00  0.00     0.028 H 
ATOM    195  H49 LEU d   1      36.014 -10.637  12.930  0.00  0.00     0.028 H 
ATOM    196  H50 LEU d   1      37.442 -11.543  13.537  0.00  0.00     0.028 H 
ENDBRANCH 187 193
ENDBRANCH 184 187
ENDBRANCH   1 184
TORSDOF 53
