REMARK WARNING: 32 MAX_TORS EXCEEDED!!!
REMARK  53 active torsions:
REMARK  status: ('A' for Active; 'I' for Inactive)
REMARK    1  A    between atoms: N_1  and  CA_2 
REMARK    2  A    between atoms: CA_2  and  C_3 
REMARK    3  A    between atoms: CA_2  and  CB_5 
REMARK       I    between atoms: C_3  and  N_9 
REMARK    4  A    between atoms: CB_5  and  CG1_6 
REMARK    5  A    between atoms: CB_5  and  CG2_7 
REMARK    6  A    between atoms: CG1_6  and  CD1_8 
REMARK    7  A    between atoms: N_9  and  CA_10 
REMARK    8  A    between atoms: CA_10  and  C_11 
REMARK    9  A    between atoms: CA_10  and  CB_13 
REMARK       I    between atoms: C_11  and  N_16 
REMARK   10  A    between atoms: CB_13  and  OG1_14 
REMARK   11  A    between atoms: CB_13  and  CG2_15 
REMARK   12  A    between atoms: N_16  and  CA_17 
REMARK   13  A    between atoms: CA_17  and  C_18 
REMARK   14  A    between atoms: CA_17  and  CB_20 
REMARK       I    between atoms: C_18  and  N_27 
REMARK   15  A    between atoms: CB_20  and  CG_21 
REMARK   16  A    between atoms: N_27  and  CA_28 
REMARK   17  A    between atoms: CA_28  and  C_29 
REMARK   18  A    between atoms: CA_28  and  CB_31 
REMARK       I    between atoms: C_29  and  N_36 
REMARK   19  A    between atoms: CB_31  and  CG_32 
REMARK   20  A    between atoms: CG_32  and  CD_33 
REMARK   21  A    between atoms: N_36  and  CA_37 
REMARK   22  A    between atoms: CA_37  and  C_38 
REMARK   23  A    between atoms: CA_37  and  CB_40 
REMARK       I    between atoms: C_38  and  N_44 
REMARK   24  A    between atoms: CB_40  and  CG_41 
REMARK   25  A    between atoms: N_44  and  CA_45 
REMARK   26  A    between atoms: CA_45  and  C_46 
REMARK   27  A    between atoms: CA_45  and  CB_48 
REMARK       I    between atoms: C_46  and  N_52 
REMARK   28  A    between atoms: CB_48  and  CG_49 
REMARK   29  A    between atoms: CG_49  and  CD1_50 
REMARK   30  A    between atoms: CG_49  and  CD2_51 
REMARK   31  A    between atoms: N_52  and  CA_53 
REMARK   32  A    between atoms: CA_53  and  C_54 
REMARK   33  A    between atoms: CA_53  and  CB_56 
REMARK       I    between atoms: C_54  and  N_60 
REMARK   34  A    between atoms: CB_56  and  CG_57 
REMARK   35  A    between atoms: CG_57  and  CD1_58 
REMARK   36  A    between atoms: CG_57  and  CD2_59 
REMARK   37  A    between atoms: N_60  and  CA_61 
REMARK   38  A    between atoms: CA_61  and  C_62 
REMARK   39  A    between atoms: CA_61  and  CB_64 
REMARK       I    between atoms: C_62  and  N_68 
REMARK   40  A    between atoms: CB_64  and  CG_65 
REMARK   41  A    between atoms: N_68  and  CA_69 
REMARK   42  A    between atoms: CA_69  and  C_70 
REMARK   43  A    between atoms: CA_69  and  CB_72 
REMARK       I    between atoms: C_70  and  N_80 
REMARK   44  A    between atoms: CB_72  and  CG_73 
REMARK   45  A    between atoms: CZ_78  and  OH_79 
REMARK   46  A    between atoms: N_80  and  CA_81 
REMARK   47  A    between atoms: CA_81  and  C_82 
REMARK   48  A    between atoms: CA_81  and  CB_84 
REMARK       I    between atoms: C_82  and  N_92 
REMARK   49  A    between atoms: CB_84  and  CG_85 
REMARK   50  A    between atoms: CZ_90  and  OH_91 
REMARK   51  A    between atoms: N_92  and  CA_93 
REMARK   52  A    between atoms: CA_93  and  C_94 
REMARK       I    between atoms: C_94  and  N_96 
REMARK   53  A    between atoms: CA_97  and  C_98 
ROOT
ATOM      1  CA  LEU d   1      10.558 -12.531   2.384  0.00  0.00     0.089 C 
ATOM      2  H41 LEU d   1       9.908 -13.149   3.020  0.00  0.00     0.087 H 
ENDROOT
BRANCH   1   3
ATOM      3  N   LEU d   1      11.925 -12.707   2.872  0.00  0.00    -0.346 N 
ATOM      4  C   ASP d   1      12.436 -13.925   3.053  0.00  0.00     0.241 C 
ATOM      5  O   ASP d   1      11.779 -14.957   2.896  0.00  0.00    -0.271 OA
ATOM      6  H40 LEU d   1      12.484 -11.903   3.073  0.00  0.00     0.163 HD
BRANCH   4   7
ATOM      7  CA  ASP d   1      13.891 -13.995   3.507  0.00  0.00     0.098 C 
ATOM      8  H37 ASP d   1      14.277 -14.997   3.271  0.00  0.00     0.088 H 
BRANCH   7   9
ATOM      9  N   ASP d   1      14.716 -13.017   2.797  0.00  0.00    -0.346 N 
ATOM     10  C   GLU d   1      14.825 -13.052   1.468  0.00  0.00     0.241 C 
ATOM     11  O   GLU d   1      14.310 -13.940   0.773  0.00  0.00    -0.271 OA
ATOM     12  H36 ASP d   1      15.204 -12.314   3.314  0.00  0.00     0.163 HD
BRANCH  10  13
ATOM     13  CA  GLU d   1      15.585 -11.899   0.807  0.00  0.00     0.090 C 
ATOM     14  H31 GLU d   1      15.201 -11.807  -0.220  0.00  0.00     0.087 H 
BRANCH  13  15
ATOM     15  N   GLU d   1      15.317 -10.639   1.490  0.00  0.00    -0.346 N 
ATOM     16  C   PHE d   1      14.088 -10.138   1.509  0.00  0.00     0.241 C 
ATOM     17  O   PHE d   1      13.145 -10.691   0.940  0.00  0.00    -0.271 OA
ATOM     18  H30 GLU d   1      16.061 -10.151   1.946  0.00  0.00     0.163 HD
BRANCH  16  19
ATOM     19  CA  PHE d   1      13.887  -8.838   2.297  0.00  0.00     0.093 C 
ATOM     20  H22 PHE d   1      12.835  -8.787   2.616  0.00  0.00     0.088 H 
BRANCH  19  21
ATOM     21  N   PHE d   1      14.727  -8.838   3.479  0.00  0.00    -0.346 N 
ATOM     22  C   THR d   1      14.536  -9.706   4.461  0.00  0.00     0.243 C 
ATOM     23  O   THR d   1      13.593 -10.514   4.479  0.00  0.00    -0.271 OA
ATOM     24  H21 PHE d   1      15.466  -8.169   3.554  0.00  0.00     0.163 HD
BRANCH  22  25
ATOM     25  CA  THR d   1      15.554  -9.642   5.591  0.00  0.00     0.113 C 
ATOM     26  H15 THR d   1      15.598  -8.620   5.995  0.00  0.00     0.091 H 
BRANCH  25  27
ATOM     27  N   THR d   1      15.184 -10.558   6.648  0.00  0.00    -0.344 N 
ATOM     28  C   ILE d   1      14.797 -10.162   7.853  0.00  0.00     0.249 C 
ATOM     29  O   ILE d   1      14.678  -8.982   8.185  0.00  0.00    -0.271 OA
ATOM     30  H14 THR d   1      15.222 -11.540   6.460  0.00  0.00     0.163 HD
BRANCH  28  31
ATOM     31  CA  ILE d   1      14.477 -11.296   8.811  0.00  0.00     0.179 C 
ATOM     32  H4  ILE d   1      15.300 -12.023   8.746  0.00  0.00     0.099 H 
BRANCH  31  33
ATOM     33  N   ILE d   1      14.414 -10.855  10.240  0.00  0.00    -0.066 N 
ATOM     34  H1  ILE d   1      15.277 -10.399  10.489  0.00  0.00     0.275 HD
ATOM     35  H2  ILE d   1      14.275 -11.658  10.834  0.00  0.00     0.275 HD
ATOM     36  H3  ILE d   1      13.647 -10.212  10.360  0.00  0.00     0.275 HD
ENDBRANCH  31  33
BRANCH  31  37
ATOM     37  CB  ILE d   1      13.187 -12.016   8.323  0.00  0.00    -0.022 C 
ATOM     38  H5  ILE d   1      13.320 -12.248   7.256  0.00  0.00     0.043 H 
BRANCH  37  39
ATOM     39  CG1 ILE d   1      11.964 -11.094   8.431  0.00  0.00    -0.063 C 
ATOM     40  H6  ILE d   1      12.232 -10.115   8.007  0.00  0.00     0.033 H 
ATOM     41  H7  ILE d   1      11.715 -10.976   9.496  0.00  0.00     0.033 H 
BRANCH  39  42
ATOM     42  CD1 ILE d   1      10.735 -11.600   7.711  0.00  0.00    -0.076 C 
ATOM     43  H11 ILE d   1       9.912 -10.881   7.841  0.00  0.00     0.027 H 
ATOM     44  H12 ILE d   1      10.440 -12.574   8.129  0.00  0.00     0.027 H 
ATOM     45  H13 ILE d   1      10.958 -11.713   6.640  0.00  0.00     0.027 H 
ENDBRANCH  39  42
ENDBRANCH  37  39
BRANCH  37  46
ATOM     46  CG2 ILE d   1      13.011 -13.345   9.052  0.00  0.00    -0.070 C 
ATOM     47  H8  ILE d   1      13.921 -13.952   8.933  0.00  0.00     0.028 H 
ATOM     48  H9  ILE d   1      12.152 -13.885   8.627  0.00  0.00     0.028 H 
ATOM     49  H10 ILE d   1      12.834 -13.156  10.121  0.00  0.00     0.028 H 
ENDBRANCH  37  46
ENDBRANCH  31  37
ENDBRANCH  28  31
ENDBRANCH  25  27
BRANCH  25  50
ATOM     50  CB  THR d   1      16.919 -10.031   5.010  0.00  0.00     0.060 C 
ATOM     51  H16 THR d   1      17.231  -9.266   4.283  0.00  0.00     0.086 H 
BRANCH  50  52
ATOM     52  OG1 THR d   1      16.793 -11.294   4.344  0.00  0.00    -0.393 OA
ATOM     53  H17 THR d   1      17.634 -11.544   3.980  0.00  0.00     0.210 HD
ENDBRANCH  50  52
BRANCH  50  54
ATOM     54  CG2 THR d   1      17.973 -10.128   6.104  0.00  0.00    -0.050 C 
ATOM     55  H18 THR d   1      18.939 -10.408   5.659  0.00  0.00     0.031 H 
ATOM     56  H19 THR d   1      17.672 -10.892   6.836  0.00  0.00     0.031 H 
ATOM     57  H20 THR d   1      18.070  -9.155   6.607  0.00  0.00     0.031 H 
ENDBRANCH  50  54
ENDBRANCH  25  50
ENDBRANCH  22  25
ENDBRANCH  19  21
BRANCH  19  58
ATOM     58  CB  PHE d   1      14.187  -7.608   1.435  0.00  0.00    -0.014 C 
ATOM     59  H23 PHE d   1      15.252  -7.630   1.160  0.00  0.00     0.043 H 
ATOM     60  H24 PHE d   1      13.982  -6.708   2.034  0.00  0.00     0.043 H 
BRANCH  58  61
ATOM     61  CG  PHE d   1      13.379  -7.531   0.179  0.00  0.00    -0.056 A 
ATOM     62  CD1 PHE d   1      11.994  -7.397   0.222  0.00  0.00    -0.077 A 
ATOM     63  CE1 PHE d   1      11.241  -7.328  -0.954  0.00  0.00    -0.082 A 
ATOM     64  H25 PHE d   1      11.492  -7.345   1.181  0.00  0.00     0.084 H 
ATOM     65  CZ  PHE d   1      11.879  -7.381  -2.179  0.00  0.00    -0.083 A 
ATOM     66  H27 PHE d   1      10.162  -7.233  -0.905  0.00  0.00     0.083 H 
ATOM     67  CE2 PHE d   1      13.262  -7.509  -2.225  0.00  0.00    -0.082 A 
ATOM     68  H29 PHE d   1      11.305  -7.323  -3.097  0.00  0.00     0.083 H 
ATOM     69  CD2 PHE d   1      14.000  -7.586  -1.053  0.00  0.00    -0.077 A 
ATOM     70  H28 PHE d   1      13.767  -7.549  -3.183  0.00  0.00     0.083 H 
ATOM     71  H26 PHE d   1      15.078  -7.691  -1.105  0.00  0.00     0.084 H 
ENDBRANCH  58  61
ENDBRANCH  19  58
ENDBRANCH  16  19
ENDBRANCH  13  15
BRANCH  13  72
ATOM     72  CB  GLU d   1      17.087 -12.150   0.702  0.00  0.00    -0.029 C 
ATOM     73  H32 GLU d   1      17.250 -13.171   0.326  0.00  0.00     0.037 H 
ATOM     74  H33 GLU d   1      17.534 -12.052   1.702  0.00  0.00     0.037 H 
BRANCH  72  75
ATOM     75  CG  GLU d   1      17.770 -11.163  -0.241  0.00  0.00     0.018 C 
ATOM     76  H34 GLU d   1      17.509 -10.142   0.073  0.00  0.00     0.049 H 
ATOM     77  H35 GLU d   1      17.398 -11.339  -1.261  0.00  0.00     0.049 H 
BRANCH  75  78
ATOM     78  CD  GLU d   1      19.278 -11.293  -0.250  0.00  0.00     0.172 C 
ATOM     79  OE1 GLU d   1      19.834 -11.665  -1.303  0.00  0.00    -0.648 OA
ATOM     80  OE2 GLU d   1      19.905 -11.036   0.797  0.00  0.00    -0.648 OA
ENDBRANCH  75  78
ENDBRANCH  72  75
ENDBRANCH  13  72
ENDBRANCH  10  13
ENDBRANCH   7   9
BRANCH   7  81
ATOM     81  CB  ASP d   1      13.967 -13.799   5.025  0.00  0.00     0.043 C 
ATOM     82  H38 ASP d   1      13.244 -14.476   5.503  0.00  0.00     0.052 H 
ATOM     83  H39 ASP d   1      13.703 -12.757   5.258  0.00  0.00     0.052 H 
BRANCH  81  84
ATOM     84  CG  ASP d   1      15.346 -14.087   5.588  0.00  0.00     0.175 C 
ATOM     85  OD1 ASP d   1      16.026 -15.003   5.081  0.00  0.00    -0.648 OA
ATOM     86  OD2 ASP d   1      15.736 -13.404   6.558  0.00  0.00    -0.648 OA
ENDBRANCH  81  84
ENDBRANCH   7  81
ENDBRANCH   4   7
ENDBRANCH   1   3
BRANCH   1  87
ATOM     87  C   LEU d   1      10.378 -13.018   0.947  0.00  0.00     0.241 C 
ATOM     88  O   LEU d   1       9.380 -13.671   0.628  0.00  0.00    -0.271 OA
ATOM     89  N   LEU d   1      11.360 -12.714   0.102  0.00  0.00    -0.346 N 
ATOM     90  H51 LEU d   1      12.098 -12.109   0.402  0.00  0.00     0.163 HD
BRANCH  89  91
ATOM     91  CA  LEU d   1      11.376 -13.251  -1.258  0.00  0.00     0.089 C 
ATOM     92  H52 LEU d   1      10.495 -12.864  -1.792  0.00  0.00     0.087 H 
BRANCH  91  93
ATOM     93  C   LEU d   1      11.299 -14.782  -1.239  0.00  0.00     0.241 C 
ATOM     94  O   LEU d   1      10.541 -15.379  -2.007  0.00  0.00    -0.271 OA
ATOM     95  N   ASP d   1      12.080 -15.406  -0.352  0.00  0.00    -0.346 N 
ATOM     96  H62 ASP d   1      12.670 -14.858   0.241  0.00  0.00     0.163 HD
BRANCH  95  97
ATOM     97  CA  ASP d   1      12.103 -16.867  -0.217  0.00  0.00     0.098 C 
ATOM     98  H63 ASP d   1      12.306 -17.293  -1.211  0.00  0.00     0.088 H 
BRANCH  97  99
ATOM     99  C   ASP d   1      10.781 -17.430   0.285  0.00  0.00     0.241 C 
ATOM    100  O   ASP d   1      10.392 -18.536  -0.092  0.00  0.00    -0.271 OA
ATOM    101  N   TYR d   1      10.111 -16.679   1.158  0.00  0.00    -0.346 N 
ATOM    102  H66 TYR d   1      10.476 -15.776   1.386  0.00  0.00     0.163 HD
BRANCH 101 103
ATOM    103  CA  TYR d   1       8.869 -17.109   1.799  0.00  0.00     0.093 C 
ATOM    104  H67 TYR d   1       8.990 -18.154   2.122  0.00  0.00     0.088 H 
BRANCH 103 105
ATOM    105  C   TYR d   1       7.681 -17.044   0.838  0.00  0.00     0.241 C 
ATOM    106  O   TYR d   1       6.872 -17.975   0.759  0.00  0.00    -0.271 OA
ATOM    107  N   TYR d   1       7.583 -15.926   0.125  0.00  0.00    -0.346 N 
ATOM    108  H75 TYR d   1       8.327 -15.260   0.174  0.00  0.00     0.163 HD
BRANCH 107 109
ATOM    109  CA  TYR d   1       6.441 -15.633  -0.721  0.00  0.00     0.093 C 
ATOM    110  H76 TYR d   1       5.573 -16.173  -0.314  0.00  0.00     0.088 H 
BRANCH 109 111
ATOM    111  C   TYR d   1       6.616 -16.043  -2.169  0.00  0.00     0.241 C 
ATOM    112  O   TYR d   1       5.630 -16.367  -2.833  0.00  0.00    -0.271 OA
ATOM    113  N   GLY d   1       7.846 -15.987  -2.669  0.00  0.00    -0.351 N 
ATOM    114  H84 GLY d   1       8.629 -15.906  -2.052  0.00  0.00     0.163 HD
BRANCH 113 115
ATOM    115  CA  GLY d   1       8.062 -16.043  -4.106  0.00  0.00     0.069 C 
ATOM    116  H85 GLY d   1       7.472 -16.870  -4.527  0.00  0.00     0.078 H 
ATOM    117  H86 GLY d   1       9.130 -16.217  -4.303  0.00  0.00     0.078 H 
BRANCH 115 118
ATOM    118  C   GLY d   1       7.640 -14.746  -4.766  0.00  0.00     0.238 C 
ATOM    119  O   GLY d   1       7.257 -13.780  -4.087  0.00  0.00    -0.272 OA
ATOM    120  N   PRO d   1       7.736 -14.692  -6.098  0.00  0.00    -0.336 N 
ATOM    121  CA  PRO d   1       7.402 -13.470  -6.838  0.00  0.00     0.098 C 
ATOM    122  CD  PRO d   1       8.215 -15.767  -6.984  0.00  0.00    -0.001 C 
ATOM    123  CB  PRO d   1       7.792 -13.805  -8.279  0.00  0.00    -0.035 C 
ATOM    124  H87 PRO d   1       7.991 -12.623  -6.456  0.00  0.00     0.089 H 
ATOM    125  CG  PRO d   1       8.670 -15.011  -8.194  0.00  0.00    -0.048 C 
ATOM    126  H88 PRO d   1       8.338 -12.965  -8.733  0.00  0.00     0.036 H 
ATOM    127  H89 PRO d   1       6.896 -14.025  -8.877  0.00  0.00     0.036 H 
ATOM    128  H90 PRO d   1       9.723 -14.711  -8.084  0.00  0.00     0.035 H 
ATOM    129  H91 PRO d   1       8.558 -15.630  -9.096  0.00  0.00     0.035 H 
ATOM    130  H92 PRO d   1       7.404 -16.467  -7.234  0.00  0.00     0.064 H 
ATOM    131  H93 PRO d   1       9.048 -16.320  -6.524  0.00  0.00     0.064 H 
BRANCH 121 132
ATOM    132  C   PRO d   1       5.920 -13.107  -6.790  0.00  0.00     0.196 C 
ATOM    133  O   PRO d   1       5.556 -11.966  -7.103  0.00  0.00    -0.646 OA
ATOM    134  OXT PRO d   1       5.050 -13.918  -6.446  0.00  0.00    -0.646 OA
ENDBRANCH 121 132
ENDBRANCH 115 118
ENDBRANCH 113 115
ENDBRANCH 109 111
BRANCH 109 135
ATOM    135  CB  TYR d   1       6.157 -14.140  -0.692  0.00  0.00    -0.014 C 
ATOM    136  H77 TYR d   1       5.480 -13.902  -1.526  0.00  0.00     0.043 H 
ATOM    137  H78 TYR d   1       7.109 -13.606  -0.828  0.00  0.00     0.043 H 
BRANCH 135 138
ATOM    138  CG  TYR d   1       5.522 -13.652   0.583  0.00  0.00    -0.056 A 
ATOM    139  CD1 TYR d   1       6.186 -12.750   1.404  0.00  0.00    -0.074 A 
ATOM    140  CE1 TYR d   1       5.597 -12.275   2.561  0.00  0.00    -0.051 A 
ATOM    141  H79 TYR d   1       7.180 -12.414   1.134  0.00  0.00     0.084 H 
ATOM    142  CZ  TYR d   1       4.338 -12.708   2.921  0.00  0.00     0.065 A 
ATOM    143  H81 TYR d   1       6.124 -11.563   3.185  0.00  0.00     0.087 H 
ATOM    144  CE2 TYR d   1       3.645 -13.606   2.123  0.00  0.00    -0.051 A 
ATOM    145  CD2 TYR d   1       4.248 -14.078   0.961  0.00  0.00    -0.074 A 
ATOM    146  H82 TYR d   1       2.650 -13.935   2.400  0.00  0.00     0.087 H 
ATOM    147  H80 TYR d   1       3.718 -14.790   0.338  0.00  0.00     0.084 H 
BRANCH 142 148
ATOM    148  OH  TYR d   1       3.777 -12.223   4.079  0.00  0.00    -0.361 OA
ATOM    149  H83 TYR d   1       3.589 -12.946   4.665  0.00  0.00     0.217 HD
ENDBRANCH 142 148
ENDBRANCH 135 138
ENDBRANCH 109 135
ENDBRANCH 107 109
ENDBRANCH 103 105
BRANCH 103 150
ATOM    150  CB  TYR d   1       8.612 -16.239   3.040  0.00  0.00    -0.014 C 
ATOM    151  H68 TYR d   1       8.545 -15.192   2.709  0.00  0.00     0.043 H 
ATOM    152  H69 TYR d   1       9.471 -16.355   3.717  0.00  0.00     0.043 H 
BRANCH 150 153
ATOM    153  CG  TYR d   1       7.358 -16.558   3.825  0.00  0.00    -0.056 A 
ATOM    154  CD1 TYR d   1       7.380 -17.495   4.859  0.00  0.00    -0.074 A 
ATOM    155  CE1 TYR d   1       6.235 -17.776   5.599  0.00  0.00    -0.051 A 
ATOM    156  H70 TYR d   1       8.304 -18.013   5.090  0.00  0.00     0.084 H 
ATOM    157  CZ  TYR d   1       5.054 -17.125   5.302  0.00  0.00     0.065 A 
ATOM    158  H72 TYR d   1       6.270 -18.502   6.404  0.00  0.00     0.087 H 
ATOM    159  CE2 TYR d   1       5.011 -16.192   4.276  0.00  0.00    -0.051 A 
ATOM    160  CD2 TYR d   1       6.156 -15.910   3.555  0.00  0.00    -0.074 A 
ATOM    161  H73 TYR d   1       4.082 -15.686   4.040  0.00  0.00     0.087 H 
ATOM    162  H71 TYR d   1       6.117 -15.170   2.764  0.00  0.00     0.084 H 
BRANCH 157 163
ATOM    163  OH  TYR d   1       3.909 -17.399   6.017  0.00  0.00    -0.361 OA
ATOM    164  H74 TYR d   1       4.099 -18.053   6.679  0.00  0.00     0.217 HD
ENDBRANCH 157 163
ENDBRANCH 150 153
ENDBRANCH 103 150
ENDBRANCH 101 103
ENDBRANCH  97  99
BRANCH  97 165
ATOM    165  CB  ASP d   1      13.207 -17.317   0.745  0.00  0.00     0.043 C 
ATOM    166  H64 ASP d   1      13.078 -18.391   0.945  0.00  0.00     0.052 H 
ATOM    167  H65 ASP d   1      13.102 -16.754   1.684  0.00  0.00     0.052 H 
BRANCH 165 168
ATOM    168  CG  ASP d   1      14.602 -17.094   0.206  0.00  0.00     0.175 C 
ATOM    169  OD1 ASP d   1      14.763 -16.896  -1.014  0.00  0.00    -0.648 OA
ATOM    170  OD2 ASP d   1      15.541 -17.124   1.034  0.00  0.00    -0.648 OA
ENDBRANCH 165 168
ENDBRANCH  97 165
ENDBRANCH  95  97
ENDBRANCH  91  93
BRANCH  91 171
ATOM    171  CB  LEU d   1      12.629 -12.805  -2.007  0.00  0.00    -0.035 C 
ATOM    172  H53 LEU d   1      12.706 -13.423  -2.914  0.00  0.00     0.037 H 
ATOM    173  H54 LEU d   1      13.490 -13.005  -1.353  0.00  0.00     0.037 H 
BRANCH 171 174
ATOM    174  CG  LEU d   1      12.719 -11.340  -2.445  0.00  0.00    -0.059 C 
ATOM    175  H55 LEU d   1      12.464 -10.708  -1.581  0.00  0.00     0.038 H 
BRANCH 174 176
ATOM    176  CD1 LEU d   1      14.130 -11.011  -2.879  0.00  0.00    -0.073 C 
ATOM    177  H56 LEU d   1      14.181  -9.957  -3.191  0.00  0.00     0.028 H 
ATOM    178  H57 LEU d   1      14.414 -11.657  -3.723  0.00  0.00     0.028 H 
ATOM    179  H58 LEU d   1      14.820 -11.179  -2.039  0.00  0.00     0.028 H 
ENDBRANCH 174 176
BRANCH 174 180
ATOM    180  CD2 LEU d   1      11.742 -11.028  -3.564  0.00  0.00    -0.073 C 
ATOM    181  H59 LEU d   1      10.720 -11.271  -3.237  0.00  0.00     0.028 H 
ATOM    182  H60 LEU d   1      11.996 -11.628  -4.450  0.00  0.00     0.028 H 
ATOM    183  H61 LEU d   1      11.802  -9.959  -3.816  0.00  0.00     0.028 H 
ENDBRANCH 174 180
ENDBRANCH 171 174
ENDBRANCH  91 171
ENDBRANCH  89  91
ENDBRANCH   1  87
BRANCH   1 184
ATOM    184  CB  LEU d   1      10.091 -11.084   2.524  0.00  0.00    -0.035 C 
ATOM    185  H42 LEU d   1       9.094 -11.009   2.066  0.00  0.00     0.037 H 
ATOM    186  H43 LEU d   1      10.798 -10.450   1.969  0.00  0.00     0.037 H 
BRANCH 184 187
ATOM    187  CG  LEU d   1       9.990 -10.531   3.946  0.00  0.00    -0.059 C 
ATOM    188  H44 LEU d   1      10.979 -10.600   4.423  0.00  0.00     0.038 H 
BRANCH 187 189
ATOM    189  CD1 LEU d   1       9.571  -9.087   3.907  0.00  0.00    -0.073 C 
ATOM    190  H45 LEU d   1       9.501  -8.698   4.933  0.00  0.00     0.028 H 
ATOM    191  H46 LEU d   1       8.591  -9.003   3.415  0.00  0.00     0.028 H 
ATOM    192  H47 LEU d   1      10.315  -8.504   3.344  0.00  0.00     0.028 H 
ENDBRANCH 187 189
BRANCH 187 193
ATOM    193  CD2 LEU d   1       9.001 -11.344   4.760  0.00  0.00    -0.073 C 
ATOM    194  H48 LEU d   1       9.320 -12.396   4.780  0.00  0.00     0.028 H 
ATOM    195  H49 LEU d   1       8.003 -11.272   4.303  0.00  0.00     0.028 H 
ATOM    196  H50 LEU d   1       8.963 -10.953   5.787  0.00  0.00     0.028 H 
ENDBRANCH 187 193
ENDBRANCH 184 187
ENDBRANCH   1 184
TORSDOF 53
