REMARK  5 active torsions:
REMARK  status: ('A' for Active; 'I' for Inactive)
REMARK    1  A    between atoms: C18_19  and  C13_7 
REMARK    2  A    between atoms: C16_8  and  C17_18 
REMARK    3  A    between atoms: C9_15  and  C23_23 
REMARK       I    between atoms: N30_30  and  C18_19 
REMARK    4  A    between atoms: C20_20  and  N30_30 
REMARK    5  A    between atoms: C28_28  and  C29_29 
ROOT
ATOM      1  C1  A17 d   1      32.858  28.282  61.597  0.00  0.00    -0.004 A 
ATOM      2  C2  A17 d   1      31.531  28.761  61.236  0.00  0.00     0.007 A 
ATOM      3  C3  A17 d   1      30.445  27.990  61.854  0.00  0.00    -0.069 A 
ATOM      4  C4  A17 d   1      30.603  26.855  62.757  0.00  0.00    -0.071 A 
ATOM      5  C10 A17 d   1      34.077  28.936  61.169  0.00  0.00     0.034 A 
ATOM      6  C12 A17 d   1      32.272  24.093  63.726  0.00  0.00    -0.057 A 
ATOM      7  C13 A17 d   1      32.760  23.025  64.577  0.00  0.00     0.032 A 
ATOM      8  C16 A17 d   1      32.861  25.806  65.458  0.00  0.00    -0.051 A 
ATOM      9  C15 A17 d   1      33.330  24.702  66.300  0.00  0.00    -0.075 A 
ATOM     10  C5  A17 d   1      31.936  26.420  63.111  0.00  0.00    -0.025 A 
ATOM     11  C6  A17 d   1      33.014  27.160  62.497  0.00  0.00    -0.060 A 
ATOM     12  N7  A17 d   1      33.952  30.105  60.385  0.00  0.00    -0.161 NA
ATOM     13  N8  A17 d   1      32.623  30.629  60.000  0.00  0.00    -0.149 NA
ATOM     14  C9  A17 d   1      31.444  29.958  60.407  0.00  0.00     0.101 A 
ATOM     15  C11 A17 d   1      32.311  25.484  64.141  0.00  0.00    -0.019 A 
ATOM     16  C14 A17 d   1      33.305  23.296  65.896  0.00  0.00    -0.067 A 
ATOM     17  H1  A17 d   1      29.431  28.292  61.617  0.00  0.00     0.085 H 
ATOM     18  H2  A17 d   1      29.734  26.345  63.157  0.00  0.00     0.084 H 
ATOM     19  H3  A17 d   1      35.050  28.543  61.440  0.00  0.00     0.118 H 
ATOM     20  H4  A17 d   1      31.866  23.846  62.752  0.00  0.00     0.086 H 
ATOM     21  H5  A17 d   1      33.719  24.942  67.283  0.00  0.00     0.084 H 
ATOM     22  H6  A17 d   1      34.026  26.848  62.730  0.00  0.00     0.086 H 
ATOM     23  H7  A17 d   1      33.671  22.505  66.541  0.00  0.00     0.085 H 
ENDROOT
BRANCH   8  24
ATOM     24  C17 A17 d   1      33.105  27.158  65.949  0.00  0.00    -0.050 C 
ATOM     25  H8  A17 d   1      33.520  27.109  66.966  0.00  0.00     0.033 H 
ATOM     26  H9  A17 d   1      32.159  27.718  65.966  0.00  0.00     0.033 H 
ATOM     27  H10 A17 d   1      33.820  27.666  65.285  0.00  0.00     0.033 H 
ENDBRANCH   8  24
BRANCH   7  28
ATOM     28  C18 A17 d   1      32.539  21.671  63.948  0.00  0.00     0.252 C 
ATOM     29  O19 A17 d   1      32.322  21.596  62.742  0.00  0.00    -0.268 OA
ATOM     30  N30 A17 d   1      32.563  20.571  64.707  0.00  0.00    -0.352 N 
ATOM     31  H23 A17 d   1      32.721  20.732  65.681  0.00  0.00     0.163 HD
BRANCH  30  32
ATOM     32  C20 A17 d   1      32.399  19.215  64.342  0.00  0.00     0.012 A 
ATOM     33  C21 A17 d   1      33.234  18.317  65.109  0.00  0.00    -0.044 A 
ATOM     34  C22 A17 d   1      33.634  18.722  63.776  0.00  0.00    -0.044 A 
ATOM     35  H12 A17 d   1      32.905  17.284  65.295  0.00  0.00     0.036 H 
ATOM     36  H13 A17 d   1      33.783  18.690  65.986  0.00  0.00     0.036 H 
ATOM     37  H14 A17 d   1      34.487  19.403  63.641  0.00  0.00     0.036 H 
ATOM     38  H15 A17 d   1      33.609  17.996  62.950  0.00  0.00     0.036 H 
ATOM     39  H11 A17 d   1      31.393  18.953  63.982  0.00  0.00     0.072 H 
ENDBRANCH  30  32
ENDBRANCH   7  28
BRANCH  14  40
ATOM     40  C23 A17 d   1      30.192  30.498  59.893  0.00  0.00     0.001 A 
ATOM     41  C24 A17 d   1      29.829  31.834  60.352  0.00  0.00    -0.070 A 
ATOM     42  C25 A17 d   1      28.596  32.475  59.919  0.00  0.00    -0.082 A 
ATOM     43  H16 A17 d   1      30.491  32.361  61.030  0.00  0.00     0.084 H 
ATOM     44  C26 A17 d   1      27.681  31.822  59.008  0.00  0.00    -0.082 A 
ATOM     45  H17 A17 d   1      28.357  33.466  60.288  0.00  0.00     0.083 H 
ATOM     46  C27 A17 d   1      28.061  30.497  58.559  0.00  0.00    -0.076 A 
ATOM     47  H18 A17 d   1      26.763  32.297  58.680  0.00  0.00     0.083 H 
ATOM     48  C28 A17 d   1      29.281  29.816  58.975  0.00  0.00    -0.049 A 
ATOM     49  H19 A17 d   1      27.398  29.982  57.873  0.00  0.00     0.084 H 
BRANCH  48  50
ATOM     50  C29 A17 d   1      29.500  28.473  58.449  0.00  0.00    -0.050 C 
ATOM     51  H20 A17 d   1      30.449  28.077  58.839  0.00  0.00     0.033 H 
ATOM     52  H21 A17 d   1      29.542  28.512  57.350  0.00  0.00     0.033 H 
ATOM     53  H22 A17 d   1      28.674  27.818  58.761  0.00  0.00     0.033 H 
ENDBRANCH  48  50
ENDBRANCH  14  40
TORSDOF 5
