REMARK WARNING: 32 MAX_TORS EXCEEDED!!!
REMARK  40 active torsions:
REMARK  status: ('A' for Active; 'I' for Inactive)
REMARK    1  A    between atoms: N5_2  and  C5_4 
REMARK    2  A    between atoms: C3_8  and  N3_9 
REMARK    3  A    between atoms: C2_12  and  N13_13 
REMARK    4  A    between atoms: N13_13  and  C1_14 
REMARK    5  A    between atoms: C1_14  and  CB_15 
REMARK    6  A    between atoms: CB_15  and  CA_16 
REMARK    7  A    between atoms: CA_16  and  N_17 
REMARK    8  A    between atoms: CA_16  and  C_18 
REMARK       I    between atoms: C_18  and  N_20 
REMARK    9  A    between atoms: N_20  and  CA_21 
REMARK   10  A    between atoms: CA_21  and  C_22 
REMARK   11  A    between atoms: CA_21  and  CB_24 
REMARK       I    between atoms: C_22  and  N_31 
REMARK   12  A    between atoms: CB_24  and  CG_25 
REMARK   13  A    between atoms: CG_25  and  CD_26 
REMARK   14  A    between atoms: CD_26  and  NE_27 
REMARK       I    between atoms: NE_27  and  CZ_28 
REMARK       I    between atoms: CZ_28  and  NH1_29 
REMARK   15  A    between atoms: N_31  and  CA_32 
REMARK   16  A    between atoms: CA_32  and  C_33 
REMARK   17  A    between atoms: CA_32  and  CB_35 
REMARK       I    between atoms: C_33  and  N_45 
REMARK   18  A    between atoms: CB_35  and  CG_36 
REMARK   19  A    between atoms: N_45  and  CA_46 
REMARK   20  A    between atoms: CA_46  and  C_47 
REMARK   21  A    between atoms: CA_46  and  CB_49 
REMARK       I    between atoms: C_47  and  N_52 
REMARK   22  A    between atoms: CB_49  and  OG1_50 
REMARK   23  A    between atoms: CB_49  and  CG2_51 
REMARK   24  A    between atoms: N_52  and  CA_53 
REMARK   25  A    between atoms: CA_53  and  C_54 
REMARK   26  A    between atoms: CA_53  and  CB_56 
REMARK       I    between atoms: C_54  and  N_59 
REMARK   27  A    between atoms: CB_56  and  CG_57 
REMARK   28  A    between atoms: CG_57  and  ND_58 
REMARK   29  A    between atoms: N_59  and  CA_60 
REMARK   30  A    between atoms: CA_60  and  C_61 
REMARK   31  A    between atoms: CA_60  and  CB_63 
REMARK       I    between atoms: C_61  and  N_67 
REMARK   32  A    between atoms: CB_63  and  CG_64 
REMARK   33  A    between atoms: CG_64  and  SD_65 
REMARK   34  A    between atoms: SD_65  and  CE_66 
REMARK   35  A    between atoms: N_67  and  CA_68 
REMARK   36  A    between atoms: CA_68  and  C_69 
REMARK   37  A    between atoms: CA_68  and  CB_71 
REMARK       I    between atoms: C_69  and  N_75 
REMARK   38  A    between atoms: CB_71  and  CG_72 
REMARK   39  A    between atoms: CG_72  and  CD1_73 
REMARK   40  A    between atoms: CG_72  and  CD2_74 
ROOT
ATOM      1  CA  TRP d   1      -9.492  40.930 -15.616  0.00  0.00     0.093 C 
ATOM      2  H27 TRP d   1     -10.161  40.462 -16.353  0.00  0.00     0.088 H 
ENDROOT
BRANCH   1   3
ATOM      3  N   TRP d   1      -9.371  40.018 -14.491  0.00  0.00    -0.346 N 
ATOM      4  C   ARG d   1      -9.007  38.754 -14.700  0.00  0.00     0.241 C 
ATOM      5  O   ARG d   1      -8.631  38.346 -15.798  0.00  0.00    -0.271 OA
ATOM      6  H26 TRP d   1      -9.560  40.339 -13.563  0.00  0.00     0.163 HD
BRANCH   4   7
ATOM      7  CA  ARG d   1      -9.074  37.813 -13.508  0.00  0.00     0.089 C 
ATOM      8  H14 ARG d   1     -10.018  38.001 -12.975  0.00  0.00     0.087 H 
BRANCH   7   9
ATOM      9  N   ARG d   1      -9.075  36.427 -13.968  0.00  0.00    -0.346 N 
ATOM     10  C   01W d   1     -10.225  35.797 -14.139  0.00  0.00     0.249 C 
ATOM     11  O   01W d   1     -11.288  36.337 -13.946  0.00  0.00    -0.271 OA
ATOM     12  H13 ARG d   1      -8.212  35.957 -14.152  0.00  0.00     0.163 HD
BRANCH  10  13
ATOM     13  CA  01W d   1     -10.176  34.361 -14.608  0.00  0.00     0.177 C 
ATOM     14  H9  01W d   1      -9.203  33.904 -14.373  0.00  0.00     0.099 H 
BRANCH  13  15
ATOM     15  CB  01W d   1     -10.444  34.317 -16.103  0.00  0.00    -0.015 C 
ATOM     16  H7  01W d   1     -10.553  33.270 -16.422  0.00  0.00     0.039 H 
ATOM     17  H8  01W d   1     -11.372  34.866 -16.322  0.00  0.00     0.039 H 
BRANCH  15  18
ATOM     18  C1  01W d   1      -9.289  34.957 -16.862  0.00  0.00    -0.005 C 
ATOM     19  H5  01W d   1      -9.022  35.903 -16.368  0.00  0.00     0.064 H 
ATOM     20  H6  01W d   1      -8.427  34.274 -16.836  0.00  0.00     0.064 H 
BRANCH  18  21
ATOM     21  N13 01W d   1      -9.625  35.232 -18.248  0.00  0.00    -0.388 N 
ATOM     22  H4  01W d   1      -9.105  34.746 -18.992  0.00  0.00     0.159 HD
BRANCH  21  23
ATOM     23  C2  01W d   1     -10.602  36.109 -18.595  0.00  0.00     0.061 A 
ATOM     24  C7  01W d   1     -11.046  37.076 -17.697  0.00  0.00    -0.053 A 
ATOM     25  C6  01W d   1     -12.047  37.971 -18.066  0.00  0.00    -0.049 A 
ATOM     26  H2  01W d   1     -10.610  37.132 -16.706  0.00  0.00     0.087 H 
ATOM     27  C5  01W d   1     -12.614  37.903 -19.336  0.00  0.00     0.105 A 
ATOM     28  H1  01W d   1     -12.386  38.723 -17.363  0.00  0.00     0.087 H 
ATOM     29  C4  01W d   1     -12.169  36.930 -20.230  0.00  0.00    -0.017 A 
ATOM     30  C3  01W d   1     -11.162  36.041 -19.862  0.00  0.00     0.131 A 
ATOM     31  H3  01W d   1     -12.610  36.865 -21.218  0.00  0.00     0.091 H 
BRANCH  27  32
ATOM     32  N5  01W d   1     -13.641  38.802 -19.692  0.00  0.00    -0.116 N 
ATOM     33  O52 01W d   1     -14.232  38.699 -20.752  0.00  0.00    -0.532 OA
ATOM     34  O5  01W d   1     -13.962  39.687 -18.925  0.00  0.00    -0.532 OA
ENDBRANCH  27  32
BRANCH  30  35
ATOM     35  N3  01W d   1     -10.715  35.063 -20.769  0.00  0.00    -0.113 N 
ATOM     36  O32 01W d   1      -9.559  34.674 -20.734  0.00  0.00    -0.532 OA
ATOM     37  O3  01W d   1     -11.473  34.597 -21.605  0.00  0.00    -0.532 OA
ENDBRANCH  30  35
ENDBRANCH  21  23
ENDBRANCH  18  21
ENDBRANCH  15  18
ENDBRANCH  13  15
BRANCH  13  38
ATOM     38  N   01W d   1     -11.255  33.663 -13.944  0.00  0.00    -0.066 N 
ATOM     39  H10 01W d   1     -11.102  33.677 -12.948  0.00  0.00     0.275 HD
ATOM     40  H11 01W d   1     -11.286  32.708 -14.266  0.00  0.00     0.275 HD
ATOM     41  H12 01W d   1     -12.130  34.117 -14.156  0.00  0.00     0.275 HD
ENDBRANCH  13  38
ENDBRANCH  10  13
ENDBRANCH   7   9
BRANCH   7  42
ATOM     42  CB  ARG d   1      -7.920  38.060 -12.530  0.00  0.00    -0.036 C 
ATOM     43  H15 ARG d   1      -8.028  37.362 -11.686  0.00  0.00     0.036 H 
ATOM     44  H16 ARG d   1      -7.995  39.094 -12.163  0.00  0.00     0.036 H 
BRANCH  42  45
ATOM     45  CG  ARG d   1      -6.546  37.869 -13.129  0.00  0.00    -0.048 C 
ATOM     46  H17 ARG d   1      -6.309  38.736 -13.762  0.00  0.00     0.035 H 
ATOM     47  H18 ARG d   1      -6.548  36.956 -13.743  0.00  0.00     0.035 H 
BRANCH  45  48
ATOM     48  CD  ARG d   1      -5.465  37.736 -12.038  0.00  0.00     0.009 C 
ATOM     49  H19 ARG d   1      -4.476  37.794 -12.515  0.00  0.00     0.064 H 
ATOM     50  H20 ARG d   1      -5.579  36.758 -11.548  0.00  0.00     0.064 H 
BRANCH  48  51
ATOM     51  NE  ARG d   1      -5.554  38.784 -11.016  0.00  0.00    -0.227 N 
ATOM     52  CZ  ARG d   1      -6.055  38.610  -9.792  0.00  0.00     0.665 C 
ATOM     53  NH1 ARG d   1      -6.521  37.423  -9.420  0.00  0.00    -0.235 N 
ATOM     54  NH2 ARG d   1      -6.085  39.625  -8.934  0.00  0.00    -0.235 N 
ATOM     55  H22 ARG d   1      -6.907  37.295  -8.474  0.00  0.00     0.174 HD
ATOM     56  H23 ARG d   1      -6.497  36.631 -10.078  0.00  0.00     0.174 HD
ATOM     57  H24 ARG d   1      -5.725  40.548  -9.216  0.00  0.00     0.174 HD
ATOM     58  H25 ARG d   1      -6.468  39.488  -7.988  0.00  0.00     0.174 HD
ATOM     59  H21 ARG d   1      -5.205  39.721 -11.261  0.00  0.00     0.177 HD
ENDBRANCH  48  51
ENDBRANCH  45  48
ENDBRANCH  42  45
ENDBRANCH   7  42
ENDBRANCH   4   7
ENDBRANCH   1   3
BRANCH   1  60
ATOM     60  C   TRP d   1      -8.154  41.162 -16.287  0.00  0.00     0.241 C 
ATOM     61  O   TRP d   1      -8.061  41.212 -17.510  0.00  0.00    -0.271 OA
ATOM     62  N   THR d   1      -7.114  41.309 -15.476  0.00  0.00    -0.344 N 
ATOM     63  H36 THR d   1      -7.252  41.263 -14.487  0.00  0.00     0.163 HD
BRANCH  62  64
ATOM     64  CA  THR d   1      -5.780  41.535 -16.001  0.00  0.00     0.113 C 
ATOM     65  H37 THR d   1      -5.751  42.536 -16.456  0.00  0.00     0.091 H 
BRANCH  64  66
ATOM     66  C   THR d   1      -5.447  40.509 -17.078  0.00  0.00     0.243 C 
ATOM     67  O   THR d   1      -4.767  40.816 -18.045  0.00  0.00    -0.271 OA
ATOM     68  N   DAB d   1      -5.944  39.290 -16.920  0.00  0.00    -0.346 N 
ATOM     69  H43 DAB d   1      -6.508  39.084 -16.120  0.00  0.00     0.163 HD
BRANCH  68  70
ATOM     70  CA  DAB d   1      -5.669  38.223 -17.926  0.00  0.00     0.091 C 
ATOM     71  H44 DAB d   1      -4.584  38.040 -17.912  0.00  0.00     0.087 H 
BRANCH  70  72
ATOM     72  C   DAB d   1      -6.031  38.636 -19.330  0.00  0.00     0.241 C 
ATOM     73  O   DAB d   1      -5.419  38.119 -20.291  0.00  0.00    -0.271 OA
ATOM     74  N   MET d   1      -6.980  39.556 -19.481  0.00  0.00    -0.346 N 
ATOM     75  H52 MET d   1      -7.406  39.956 -18.669  0.00  0.00     0.163 HD
BRANCH  74  76
ATOM     76  CA  MET d   1      -7.416  39.998 -20.808  0.00  0.00     0.090 C 
ATOM     77  H53 MET d   1      -7.676  39.100 -21.387  0.00  0.00     0.087 H 
BRANCH  76  78
ATOM     78  C   MET d   1      -6.336  40.750 -21.574  0.00  0.00     0.241 C 
ATOM     79  O   MET d   1      -6.469  41.001 -22.774  0.00  0.00    -0.271 OA
ATOM     80  N   LEU d   1      -5.276  41.124 -20.871  0.00  0.00    -0.346 N 
ATOM     81  H61 LEU d   1      -5.250  40.940 -19.888  0.00  0.00     0.163 HD
BRANCH  80  82
ATOM     82  CA  LEU d   1      -4.148  41.798 -21.502  0.00  0.00     0.089 C 
ATOM     83  H62 LEU d   1      -4.526  42.377 -22.357  0.00  0.00     0.087 H 
BRANCH  82  84
ATOM     84  C   LEU d   1      -3.126  40.786 -22.025  0.00  0.00     0.238 C 
ATOM     85  O   LEU d   1      -2.326  41.093 -22.908  0.00  0.00    -0.271 OA
ATOM     86  N   GLY d   1      -3.166  39.575 -21.478  0.00  0.00    -0.368 N 
ATOM     87  H72 GLY d   1      -2.524  38.870 -21.778  0.00  0.00     0.159 HD
ATOM     88  H73 GLY d   1      -3.838  39.370 -20.767  0.00  0.00     0.159 HD
ENDBRANCH  82  84
BRANCH  82  89
ATOM     89  CB  LEU d   1      -3.498  42.765 -20.516  0.00  0.00    -0.035 C 
ATOM     90  H63 LEU d   1      -2.621  43.215 -21.004  0.00  0.00     0.037 H 
ATOM     91  H64 LEU d   1      -3.173  42.191 -19.636  0.00  0.00     0.037 H 
BRANCH  89  92
ATOM     92  CG  LEU d   1      -4.407  43.894 -20.038  0.00  0.00    -0.059 C 
ATOM     93  H65 LEU d   1      -5.312  43.445 -19.603  0.00  0.00     0.038 H 
BRANCH  92  94
ATOM     94  CD1 LEU d   1      -3.719  44.711 -18.957  0.00  0.00    -0.073 C 
ATOM     95  H66 LEU d   1      -4.388  45.519 -18.626  0.00  0.00     0.028 H 
ATOM     96  H67 LEU d   1      -2.792  45.145 -19.360  0.00  0.00     0.028 H 
ATOM     97  H68 LEU d   1      -3.478  44.061 -18.103  0.00  0.00     0.028 H 
ENDBRANCH  92  94
BRANCH  92  98
ATOM     98  CD2 LEU d   1      -4.835  44.782 -21.217  0.00  0.00    -0.073 C 
ATOM     99  H69 LEU d   1      -5.329  44.164 -21.981  0.00  0.00     0.028 H 
ATOM    100  H70 LEU d   1      -3.948  45.265 -21.653  0.00  0.00     0.028 H 
ATOM    101  H71 LEU d   1      -5.535  45.553 -20.861  0.00  0.00     0.028 H 
ENDBRANCH  92  98
ENDBRANCH  89  92
ENDBRANCH  82  89
ENDBRANCH  80  82
ENDBRANCH  76  78
BRANCH  76 102
ATOM    102  CB  MET d   1      -8.659  40.876 -20.702  0.00  0.00    -0.030 C 
ATOM    103  H54 MET d   1      -8.916  41.240 -21.708  0.00  0.00     0.037 H 
ATOM    104  H55 MET d   1      -8.427  41.731 -20.051  0.00  0.00     0.037 H 
BRANCH 102 105
ATOM    105  CG  MET d   1      -9.851  40.156 -20.137  0.00  0.00    -0.021 C 
ATOM    106  H56 MET d   1      -9.829  40.230 -19.040  0.00  0.00     0.049 H 
ATOM    107  H57 MET d   1      -9.806  39.098 -20.434  0.00  0.00     0.049 H 
BRANCH 105 108
ATOM    108  SD  MET d   1     -11.379  40.870 -20.741  0.00  0.00    -0.173 SA
BRANCH 108 109
ATOM    109  CE  MET d   1     -11.154  40.722 -22.513  0.00  0.00    -0.035 C 
ATOM    110  H58 MET d   1     -12.035  41.130 -23.030  0.00  0.00     0.041 H 
ATOM    111  H59 MET d   1     -11.031  39.662 -22.780  0.00  0.00     0.041 H 
ATOM    112  H60 MET d   1     -10.258  41.283 -22.817  0.00  0.00     0.041 H 
ENDBRANCH 108 109
ENDBRANCH 105 108
ENDBRANCH 102 105
ENDBRANCH  76 102
ENDBRANCH  74  76
ENDBRANCH  70  72
BRANCH  70 113
ATOM    113  CB  DAB d   1      -6.356  36.913 -17.555  0.00  0.00    -0.016 C 
ATOM    114  H45 DAB d   1      -7.445  37.047 -17.637  0.00  0.00     0.039 H 
ATOM    115  H46 DAB d   1      -6.095  36.656 -16.518  0.00  0.00     0.039 H 
BRANCH 113 116
ATOM    116  CG  DAB d   1      -5.928  35.765 -18.473  0.00  0.00     0.082 C 
ATOM    117  H47 DAB d   1      -6.194  36.018 -19.510  0.00  0.00     0.075 H 
ATOM    118  H48 DAB d   1      -6.457  34.849 -18.172  0.00  0.00     0.075 H 
BRANCH 116 119
ATOM    119  ND  DAB d   1      -4.492  35.530 -18.395  0.00  0.00    -0.079 N 
ATOM    120  H49 DAB d   1      -4.242  34.770 -19.009  0.00  0.00     0.274 HD
ATOM    121  H50 DAB d   1      -4.241  35.293 -17.448  0.00  0.00     0.274 HD
ATOM    122  H51 DAB d   1      -3.999  36.364 -18.674  0.00  0.00     0.274 HD
ENDBRANCH 116 119
ENDBRANCH 113 116
ENDBRANCH  70 113
ENDBRANCH  68  70
ENDBRANCH  64  66
BRANCH  64 123
ATOM    123  CB  THR d   1      -4.746  41.487 -14.874  0.00  0.00     0.060 C 
ATOM    124  H38 THR d   1      -4.699  40.465 -14.470  0.00  0.00     0.086 H 
BRANCH 123 125
ATOM    125  OG1 THR d   1      -5.151  42.392 -13.837  0.00  0.00    -0.393 OA
ATOM    126  H39 THR d   1      -4.515  42.369 -13.132  0.00  0.00     0.210 HD
ENDBRANCH 123 125
BRANCH 123 127
ATOM    127  CG2 THR d   1      -3.373  41.881 -15.385  0.00  0.00    -0.050 C 
ATOM    128  H40 THR d   1      -2.648  41.839 -14.559  0.00  0.00     0.031 H 
ATOM    129  H41 THR d   1      -3.411  42.904 -15.787  0.00  0.00     0.031 H 
ATOM    130  H42 THR d   1      -3.064  41.186 -16.179  0.00  0.00     0.031 H 
ENDBRANCH 123 127
ENDBRANCH  64 123
ENDBRANCH  62  64
ENDBRANCH   1  60
BRANCH   1 131
ATOM    131  CB  TRP d   1     -10.120  42.262 -15.193  0.00  0.00    -0.012 C 
ATOM    132  H28 TRP d   1      -9.352  42.873 -14.696  0.00  0.00     0.044 H 
ATOM    133  H29 TRP d   1     -10.940  42.059 -14.489  0.00  0.00     0.044 H 
BRANCH 131 134
ATOM    134  CG  TRP d   1     -10.670  43.035 -16.370  0.00  0.00    -0.028 A 
ATOM    135  CD1 TRP d   1     -11.311  42.515 -17.458  0.00  0.00    -0.015 A 
ATOM    136  NE1 TRP d   1     -11.675  43.517 -18.319  0.00  0.00    -0.365 N 
ATOM    137  H30 TRP d   1     -11.505  41.456 -17.618  0.00  0.00     0.112 H 
ATOM    138  CE2 TRP d   1     -11.279  44.717 -17.794  0.00  0.00     0.042 A 
ATOM    139  H31 TRP d   1     -12.166  43.388 -19.215  0.00  0.00     0.165 HD
ATOM    140  CD2 TRP d   1     -10.644  44.456 -16.565  0.00  0.00    -0.002 A 
ATOM    141  CZ2 TRP d   1     -11.422  46.010 -18.298  0.00  0.00    -0.056 A 
ATOM    142  CE3 TRP d   1     -10.133  45.525 -15.825  0.00  0.00    -0.070 A 
ATOM    143  CZ3 TRP d   1     -10.278  46.809 -16.328  0.00  0.00    -0.082 A 
ATOM    144  H32 TRP d   1      -9.634  45.354 -14.878  0.00  0.00     0.084 H 
ATOM    145  CH2 TRP d   1     -10.915  47.039 -17.552  0.00  0.00    -0.081 A 
ATOM    146  H34 TRP d   1      -9.891  47.649 -15.763  0.00  0.00     0.083 H 
ATOM    147  H35 TRP d   1     -11.009  48.055 -17.918  0.00  0.00     0.083 H 
ATOM    148  H33 TRP d   1     -11.916  46.193 -19.245  0.00  0.00     0.086 H 
ENDBRANCH 131 134
ENDBRANCH   1 131
TORSDOF 40
