REMARK  19 active torsions:
REMARK  status: ('A' for Active; 'I' for Inactive)
REMARK    1  A    between atoms: C18_3  and  C20_1 
REMARK    2  A    between atoms: C18_3  and  C19_2 
REMARK    3  A    between atoms: C16_5  and  C17_4 
REMARK    4  A    between atoms: C15_8  and  C16_5 
REMARK    5  A    between atoms: C13_7  and  C14_6 
REMARK    6  A    between atoms: C13_7  and  C15_8 
REMARK    7  A    between atoms: C12_9  and  C11_10 
REMARK    8  A    between atoms: C11_10  and  C9_11 
REMARK    9  A    between atoms: C9_11  and  C8_12 
REMARK   10  A    between atoms: C8_12  and  C10_13 
REMARK   11  A    between atoms: C7_14  and  C6_15 
REMARK   12  A    between atoms: C6_15  and  C5_16 
REMARK   13  A    between atoms: C5_16  and  C3_17 
REMARK   14  A    between atoms: C3_17  and  C4_18 
REMARK   15  A    between atoms: C2_19  and  C1_20 
REMARK   16  A    between atoms: C1_20  and  O1_21 
REMARK   17  A    between atoms: O1_21  and  PA_22 
REMARK   18  A    between atoms: PA_22  and  O3A_24 
REMARK   19  A    between atoms: O3A_24  and  PB_26 
ROOT
ATOM      1  C8  GRG d   1       7.604  19.570  19.618  0.00  0.00    -0.087 C 
ATOM      2  C7  GRG d   1       6.406  18.904  19.875  0.00  0.00    -0.101 C 
ATOM      3  H   GRG d   1       5.495  19.395  19.537  0.00  0.00     0.077 H 
ENDROOT
BRANCH   1   4
ATOM      4  C9  GRG d   1       7.597  20.910  18.861  0.00  0.00    -0.042 C 
ATOM      5  H   GRG d   1       8.401  20.894  18.111  0.00  0.00     0.040 H 
ATOM      6  H   GRG d   1       6.626  21.023  18.356  0.00  0.00     0.040 H 
BRANCH   4   7
ATOM      7  C11 GRG d   1       7.812  22.115  19.783  0.00  0.00    -0.046 C 
ATOM      8  H   GRG d   1       6.972  22.179  20.490  0.00  0.00     0.039 H 
ATOM      9  H   GRG d   1       8.751  21.977  20.340  0.00  0.00     0.039 H 
BRANCH   7  10
ATOM     10  C12 GRG d   1       7.886  23.306  19.055  0.00  0.00    -0.101 C 
ATOM     11  C13 GRG d   1       8.396  24.522  19.483  0.00  0.00    -0.087 C 
ATOM     12  H   GRG d   1       7.500  23.275  18.037  0.00  0.00     0.077 H 
BRANCH  11  13
ATOM     13  C14 GRG d   1       8.955  24.669  20.887  0.00  0.00    -0.055 C 
ATOM     14  H   GRG d   1       9.308  25.700  21.035  0.00  0.00     0.033 H 
ATOM     15  H   GRG d   1       9.794  23.971  21.023  0.00  0.00     0.033 H 
ATOM     16  H   GRG d   1       8.168  24.443  21.621  0.00  0.00     0.033 H 
ENDBRANCH  11  13
BRANCH  11  17
ATOM     17  C15 GRG d   1       8.392  25.743  18.535  0.00  0.00    -0.042 C 
ATOM     18  H   GRG d   1       9.398  26.189  18.536  0.00  0.00     0.040 H 
ATOM     19  H   GRG d   1       8.145  25.396  17.521  0.00  0.00     0.040 H 
BRANCH  17  20
ATOM     20  C16 GRG d   1       7.366  26.839  18.946  0.00  0.00    -0.046 C 
ATOM     21  H   GRG d   1       7.541  27.101  20.000  0.00  0.00     0.039 H 
ATOM     22  H   GRG d   1       7.533  27.725  18.316  0.00  0.00     0.039 H 
BRANCH  20  23
ATOM     23  C17 GRG d   1       6.027  26.441  18.805  0.00  0.00    -0.101 C 
ATOM     24  C18 GRG d   1       4.948  27.171  18.278  0.00  0.00    -0.091 C 
ATOM     25  H   GRG d   1       5.794  25.434  19.149  0.00  0.00     0.077 H 
BRANCH  24  26
ATOM     26  C20 GRG d   1       3.553  26.529  18.231  0.00  0.00    -0.055 C 
ATOM     27  H   GRG d   1       2.837  27.239  17.791  0.00  0.00     0.033 H 
ATOM     28  H   GRG d   1       3.233  26.271  19.252  0.00  0.00     0.033 H 
ATOM     29  H   GRG d   1       3.590  25.617  17.617  0.00  0.00     0.033 H 
ENDBRANCH  24  26
BRANCH  24  30
ATOM     30  C19 GRG d   1       5.110  28.592  17.719  0.00  0.00    -0.055 C 
ATOM     31  H   GRG d   1       6.158  28.910  17.823  0.00  0.00     0.033 H 
ATOM     32  H   GRG d   1       4.460  29.282  18.277  0.00  0.00     0.033 H 
ATOM     33  H   GRG d   1       4.828  28.602  16.656  0.00  0.00     0.033 H 
ENDBRANCH  24  30
ENDBRANCH  20  23
ENDBRANCH  17  20
ENDBRANCH  11  17
ENDBRANCH   7  10
ENDBRANCH   4   7
ENDBRANCH   1   4
BRANCH   1  34
ATOM     34  C10 GRG d   1       8.949  18.986  20.044  0.00  0.00    -0.055 C 
ATOM     35  H   GRG d   1       8.785  18.034  20.570  0.00  0.00     0.033 H 
ATOM     36  H   GRG d   1       9.459  19.692  20.715  0.00  0.00     0.033 H 
ATOM     37  H   GRG d   1       9.571  18.811  19.154  0.00  0.00     0.033 H 
ENDBRANCH   1  34
BRANCH   2  38
ATOM     38  C6  GRG d   1       6.249  17.677  20.518  0.00  0.00    -0.046 C 
ATOM     39  H   GRG d   1       7.205  17.404  20.988  0.00  0.00     0.039 H 
ATOM     40  H   GRG d   1       5.981  16.920  19.766  0.00  0.00     0.039 H 
BRANCH  38  41
ATOM     41  C5  GRG d   1       5.165  17.695  21.596  0.00  0.00    -0.042 C 
ATOM     42  H   GRG d   1       4.270  18.200  21.202  0.00  0.00     0.040 H 
ATOM     43  H   GRG d   1       5.537  18.241  22.475  0.00  0.00     0.040 H 
BRANCH  41  44
ATOM     44  C3  GRG d   1       4.797  16.260  22.009  0.00  0.00    -0.085 C 
ATOM     45  C2  GRG d   1       5.805  15.389  22.443  0.00  0.00    -0.078 C 
ATOM     46  H   GRG d   1       6.809  15.810  22.454  0.00  0.00     0.080 H 
BRANCH  44  47
ATOM     47  C4  GRG d   1       3.332  15.826  21.925  0.00  0.00    -0.055 C 
ATOM     48  H   GRG d   1       3.240  14.780  22.253  0.00  0.00     0.033 H 
ATOM     49  H   GRG d   1       2.982  15.916  20.886  0.00  0.00     0.033 H 
ATOM     50  H   GRG d   1       2.721  16.469  22.575  0.00  0.00     0.033 H 
ENDBRANCH  44  47
BRANCH  45  51
ATOM     51  C1  GRG d   1       5.711  14.062  22.863  0.00  0.00     0.047 C 
ATOM     52  H   GRG d   1       4.699  13.686  22.654  0.00  0.00     0.081 H 
ATOM     53  H   GRG d   1       5.905  14.009  23.944  0.00  0.00     0.081 H 
BRANCH  51  54
ATOM     54  O1  GRG d   1       6.676  13.247  22.165  0.00  0.00    -0.286 OA
BRANCH  54  55
ATOM     55  PA  GRG d   1       7.071  11.748  22.655  0.00  0.00     0.418 P 
ATOM     56  O1A GRG d   1       8.241  11.798  23.557  0.00  0.00    -0.624 OA
ATOM     57  O2A GRG d   1       7.096  10.874  21.467  0.00  0.00    -0.624 OA
BRANCH  55  58
ATOM     58  O3A GRG d   1       5.839  11.301  23.579  0.00  0.00    -0.173 OA
BRANCH  58  59
ATOM     59  PB  GRG d   1       4.646  10.403  22.960  0.00  0.00     0.431 P 
ATOM     60  O1B GRG d   1       3.803   9.920  24.258  0.00  0.00    -0.616 OA
ATOM     61  O2B GRG d   1       5.372   9.071  22.407  0.00  0.00    -0.616 OA
ATOM     62  O3B GRG d   1       3.871  11.155  21.928  0.00  0.00    -0.616 OA
ENDBRANCH  58  59
ENDBRANCH  55  58
ENDBRANCH  54  55
ENDBRANCH  51  54
ENDBRANCH  45  51
ENDBRANCH  41  44
ENDBRANCH  38  41
ENDBRANCH   2  38
TORSDOF 19
