REMARK  15 active torsions:
REMARK  status: ('A' for Active; 'I' for Inactive)
REMARK    1  A    between atoms: C1_1  and  O1_2 
REMARK    2  A    between atoms: C1_1  and  C2_3 
REMARK    3  A    between atoms: O1_2  and  PA_17 
REMARK    4  A    between atoms: C3_4  and  C4_5 
REMARK    5  A    between atoms: C3_4  and  C5_6 
REMARK    6  A    between atoms: C5_6  and  C6_7 
REMARK    7  A    between atoms: C6_7  and  C7_8 
REMARK    8  A    between atoms: C8_9  and  C10_10 
REMARK    9  A    between atoms: C8_9  and  C9_11 
REMARK   10  A    between atoms: C9_11  and  C11_12 
REMARK   11  A    between atoms: C11_12  and  C12_13 
REMARK   12  A    between atoms: C13_14  and  C14_15 
REMARK   13  A    between atoms: C13_14  and  C15_16 
REMARK   14  A    between atoms: PA_17  and  O3A_20 
REMARK   15  A    between atoms: O3A_20  and  PB_21 
ROOT
ATOM      1  C6  FPP d   1       7.242  22.196  19.575  0.00  0.00    -0.046 C 
ATOM      2  H   FPP d   1       7.827  22.235  20.506  0.00  0.00     0.039 H 
ATOM      3  H   FPP d   1       6.174  22.092  19.817  0.00  0.00     0.039 H 
ENDROOT
BRANCH   1   4
ATOM      4  C5  FPP d   1       7.688  20.974  18.757  0.00  0.00    -0.042 C 
ATOM      5  H   FPP d   1       7.191  20.997  17.776  0.00  0.00     0.040 H 
ATOM      6  H   FPP d   1       8.778  21.014  18.617  0.00  0.00     0.040 H 
BRANCH   4   7
ATOM      7  C3  FPP d   1       7.320  19.664  19.477  0.00  0.00    -0.085 C 
ATOM      8  C2  FPP d   1       8.299  18.684  19.674  0.00  0.00    -0.078 C 
ATOM      9  H   FPP d   1       9.296  18.912  19.300  0.00  0.00     0.080 H 
BRANCH   8  10
ATOM     10  C1  FPP d   1       8.136  17.442  20.300  0.00  0.00     0.047 C 
ATOM     11  H   FPP d   1       7.210  16.972  19.938  0.00  0.00     0.081 H 
ATOM     12  H   FPP d   1       8.994  16.798  20.056  0.00  0.00     0.081 H 
BRANCH  10  13
ATOM     13  O1  FPP d   1       8.057  17.607  21.726  0.00  0.00    -0.286 OA
BRANCH  13  14
ATOM     14  PA  FPP d   1       7.641  16.431  22.779  0.00  0.00     0.418 P 
ATOM     15  O1A FPP d   1       6.802  17.059  23.823  0.00  0.00    -0.624 OA
ATOM     16  O2A FPP d   1       8.869  15.705  23.157  0.00  0.00    -0.624 OA
BRANCH  14  17
ATOM     17  O3A FPP d   1       6.712  15.431  21.881  0.00  0.00    -0.173 OA
BRANCH  17  18
ATOM     18  PB  FPP d   1       5.782  14.213  22.460  0.00  0.00     0.431 P 
ATOM     19  O1B FPP d   1       4.392  14.292  21.942  0.00  0.00    -0.616 OA
ATOM     20  O2B FPP d   1       6.542  12.843  22.032  0.00  0.00    -0.616 OA
ATOM     21  O3B FPP d   1       5.827  14.227  24.082  0.00  0.00    -0.616 OA
ENDBRANCH  17  18
ENDBRANCH  14  17
ENDBRANCH  13  14
ENDBRANCH  10  13
ENDBRANCH   8  10
BRANCH   7  22
ATOM     22  C4  FPP d   1       5.859  19.460  19.934  0.00  0.00    -0.055 C 
ATOM     23  H   FPP d   1       5.267  20.352  19.680  0.00  0.00     0.033 H 
ATOM     24  H   FPP d   1       5.834  19.301  21.022  0.00  0.00     0.033 H 
ATOM     25  H   FPP d   1       5.435  18.582  19.425  0.00  0.00     0.033 H 
ENDBRANCH   7  22
ENDBRANCH   4   7
ENDBRANCH   1   4
BRANCH   1  26
ATOM     26  C7  FPP d   1       7.433  23.387  18.871  0.00  0.00    -0.101 C 
ATOM     27  C8  FPP d   1       7.983  24.574  19.346  0.00  0.00    -0.087 C 
ATOM     28  H   FPP d   1       7.115  23.387  17.830  0.00  0.00     0.077 H 
BRANCH  27  29
ATOM     29  C10 FPP d   1       8.436  24.694  20.802  0.00  0.00    -0.055 C 
ATOM     30  H   FPP d   1       8.839  25.702  20.979  0.00  0.00     0.033 H 
ATOM     31  H   FPP d   1       9.216  23.946  21.006  0.00  0.00     0.033 H 
ATOM     32  H   FPP d   1       7.578  24.520  21.468  0.00  0.00     0.033 H 
ENDBRANCH  27  29
BRANCH  27  33
ATOM     33  C9  FPP d   1       8.092  25.776  18.397  0.00  0.00    -0.042 C 
ATOM     34  H   FPP d   1       7.845  25.439  17.379  0.00  0.00     0.040 H 
ATOM     35  H   FPP d   1       9.128  26.144  18.420  0.00  0.00     0.040 H 
BRANCH  33  36
ATOM     36  C11 FPP d   1       7.144  26.951  18.770  0.00  0.00    -0.046 C 
ATOM     37  H   FPP d   1       7.306  27.763  18.046  0.00  0.00     0.039 H 
ATOM     38  H   FPP d   1       7.413  27.299  19.778  0.00  0.00     0.039 H 
BRANCH  36  39
ATOM     39  C12 FPP d   1       5.781  26.636  18.770  0.00  0.00    -0.101 C 
ATOM     40  C13 FPP d   1       4.718  27.410  18.263  0.00  0.00    -0.091 C 
ATOM     41  H   FPP d   1       5.509  25.680  19.214  0.00  0.00     0.077 H 
BRANCH  40  42
ATOM     42  C14 FPP d   1       4.926  28.758  17.568  0.00  0.00    -0.055 C 
ATOM     43  H   FPP d   1       3.952  29.167  17.262  0.00  0.00     0.033 H 
ATOM     44  H   FPP d   1       5.560  28.619  16.680  0.00  0.00     0.033 H 
ATOM     45  H   FPP d   1       5.416  29.457  18.262  0.00  0.00     0.033 H 
ENDBRANCH  40  42
BRANCH  40  46
ATOM     46  C15 FPP d   1       3.271  26.906  18.373  0.00  0.00    -0.055 C 
ATOM     47  H   FPP d   1       3.259  25.935  18.889  0.00  0.00     0.033 H 
ATOM     48  H   FPP d   1       2.845  26.791  17.365  0.00  0.00     0.033 H 
ATOM     49  H   FPP d   1       2.672  27.631  18.944  0.00  0.00     0.033 H 
ENDBRANCH  40  46
ENDBRANCH  36  39
ENDBRANCH  33  36
ENDBRANCH  27  33
ENDBRANCH   1  26
TORSDOF 15
