REMARK  8 active torsions:
REMARK  status: ('A' for Active; 'I' for Inactive)
REMARK    1  A    between atoms: C1_1  and  C2_2 
REMARK    2  A    between atoms: N31_31  and  C1_1 
REMARK    3  A    between atoms: C2_2  and  N3_19 
REMARK    4  A    between atoms: C10_6  and  C13_9 
REMARK    5  A    between atoms: C15_11  and  C19_13 
REMARK       I    between atoms: C19_13  and  N32_32 
REMARK    6  A    between atoms: N32_32  and  C20_14 
REMARK    7  A    between atoms: C18_24  and  C23_25 
REMARK    8  A    between atoms: C28_30  and  N31_31 
ROOT
ATOM      1  C9  P40 d   1      20.631   9.870  28.866  0.00  0.00    -0.059 A 
ATOM      2  C10 P40 d   1      20.094  11.178  29.248  0.00  0.00    -0.024 A 
ATOM      3  C11 P40 d   1      20.940  11.965  30.137  0.00  0.00    -0.070 A 
ATOM      4  C12 P40 d   1      22.238  11.455  30.575  0.00  0.00    -0.053 A 
ATOM      5  N29 P40 d   1      23.788   7.648  29.334  0.00  0.00    -0.074 NA
ATOM      6  C30 P40 d   1      22.504   8.074  28.913  0.00  0.00     0.033 A 
ATOM      7  C25 P40 d   1      21.927   9.349  29.312  0.00  0.00     0.012 A 
ATOM      8  C26 P40 d   1      22.787  10.150  30.194  0.00  0.00     0.087 A 
ATOM      9  N27 P40 d   1      24.066   9.697  30.601  0.00  0.00    -0.062 NA
ATOM     10  C28 P40 d   1      24.592   8.453  30.179  0.00  0.00     0.722 A 
ATOM     11  H9  P40 d   1      20.032   9.247  28.212  0.00  0.00     0.086 H 
ATOM     12  H10 P40 d   1      20.603  12.938  30.477  0.00  0.00     0.084 H 
ATOM     13  H11 P40 d   1      22.835  12.084  31.225  0.00  0.00     0.087 H 
ATOM     14  H19 P40 d   1      21.927   7.423  28.266  0.00  0.00     0.117 H 
ENDROOT
BRANCH   2  15
ATOM     15  C13 P40 d   1      18.873  11.823  28.809  0.00  0.00    -0.019 A 
ATOM     16  C14 P40 d   1      18.944  12.812  27.745  0.00  0.00    -0.057 A 
ATOM     17  C15 P40 d   1      17.816  13.631  27.309  0.00  0.00     0.032 A 
ATOM     18  H12 P40 d   1      19.895  12.950  27.243  0.00  0.00     0.086 H 
ATOM     19  C16 P40 d   1      16.531  13.480  27.963  0.00  0.00    -0.067 A 
ATOM     20  C17 P40 d   1      16.447  12.496  29.031  0.00  0.00    -0.075 A 
ATOM     21  H13 P40 d   1      15.672  14.073  27.670  0.00  0.00     0.085 H 
ATOM     22  C18 P40 d   1      17.575  11.684  29.449  0.00  0.00    -0.051 A 
ATOM     23  H25 P40 d   1      15.498  12.363  29.538  0.00  0.00     0.084 H 
BRANCH  17  24
ATOM     24  C19 P40 d   1      17.929  14.591  26.138  0.00  0.00     0.252 C 
ATOM     25  O24 P40 d   1      18.913  14.555  25.410  0.00  0.00    -0.268 OA
ATOM     26  N32 P40 d   1      16.963  15.473  25.894  0.00  0.00    -0.352 N 
ATOM     27  H30 P40 d   1      16.173  15.542  26.503  0.00  0.00     0.163 HD
BRANCH  26  28
ATOM     28  C20 P40 d   1      17.072  16.314  24.757  0.00  0.00     0.012 A 
ATOM     29  C21 P40 d   1      17.093  15.690  23.447  0.00  0.00    -0.044 A 
ATOM     30  C22 P40 d   1      15.937  16.462  23.856  0.00  0.00    -0.044 A 
ATOM     31  H15 P40 d   1      17.019  14.596  23.359  0.00  0.00     0.036 H 
ATOM     32  H16 P40 d   1      17.763  16.077  22.665  0.00  0.00     0.036 H 
ATOM     33  H17 P40 d   1      15.731  17.435  23.386  0.00  0.00     0.036 H 
ATOM     34  H18 P40 d   1      14.987  15.954  24.079  0.00  0.00     0.036 H 
ATOM     35  H14 P40 d   1      17.718  17.175  24.983  0.00  0.00     0.072 H 
ENDBRANCH  26  28
ENDBRANCH  17  24
BRANCH  22  36
ATOM     36  C23 P40 d   1      17.282  10.790  30.552  0.00  0.00    -0.050 C 
ATOM     37  H26 P40 d   1      18.184  10.214  30.806  0.00  0.00     0.033 H 
ATOM     38  H27 P40 d   1      16.476  10.100  30.261  0.00  0.00     0.033 H 
ATOM     39  H28 P40 d   1      16.964  11.378  31.426  0.00  0.00     0.033 H 
ENDBRANCH  22  36
ENDBRANCH   2  15
BRANCH  10  40
ATOM     40  N31 P40 d   1      25.913   8.129  30.574  0.00  0.00    -0.221 N 
ATOM     41  H29 P40 d   1      26.693   8.239  29.910  0.00  0.00     0.177 HD
BRANCH  40  42
ATOM     42  C1  P40 d   1      26.157   7.653  31.885  0.00  0.00     0.032 C 
ATOM     43  H1  P40 d   1      26.004   8.489  32.583  0.00  0.00     0.067 H 
ATOM     44  H2  P40 d   1      25.427   6.859  32.099  0.00  0.00     0.067 H 
BRANCH  42  45
ATOM     45  C2  P40 d   1      27.488   7.113  32.116  0.00  0.00     0.099 C 
ATOM     46  H3  P40 d   1      27.898   6.761  31.158  0.00  0.00     0.078 H 
ATOM     47  H4  P40 d   1      27.410   6.267  32.814  0.00  0.00     0.078 H 
BRANCH  45  48
ATOM     48  N3  P40 d   1      28.371   8.074  32.663  0.00  0.00    -0.066 N 
ATOM     49  C8  P40 d   1      29.072   8.917  31.760  0.00  0.00     0.103 C 
ATOM     50  C7  P40 d   1      29.584  10.078  32.477  0.00  0.00     0.042 C 
ATOM     51  H7  P40 d   1      29.911   8.361  31.316  0.00  0.00     0.079 H 
ATOM     52  H8  P40 d   1      28.390   9.249  30.964  0.00  0.00     0.079 H 
ATOM     53  O6  P40 d   1      30.092   9.685  33.665  0.00  0.00    -0.388 OA
ATOM     54  H5  P40 d   1      28.767  10.794  32.647  0.00  0.00     0.076 H 
ATOM     55  H6  P40 d   1      30.374  10.558  31.881  0.00  0.00     0.076 H 
ATOM     56  C5  P40 d   1      29.384   9.005  34.586  0.00  0.00     0.042 C 
ATOM     57  C4  P40 d   1      28.794   7.814  33.993  0.00  0.00     0.103 C 
ATOM     58  H23 P40 d   1      30.050   8.708  35.409  0.00  0.00     0.076 H 
ATOM     59  H24 P40 d   1      28.583   9.650  34.977  0.00  0.00     0.076 H 
ATOM     60  H21 P40 d   1      29.541   7.007  33.983  0.00  0.00     0.079 H 
ATOM     61  H22 P40 d   1      27.927   7.503  34.594  0.00  0.00     0.079 H 
ATOM     62  H20 P40 d   1      27.673   8.759  32.909  0.00  0.00     0.280 HD
ENDBRANCH  45  48
ENDBRANCH  42  45
ENDBRANCH  40  42
ENDBRANCH  10  40
TORSDOF 8
