REMARK  4 active torsions:
REMARK  status: ('A' for Active; 'I' for Inactive)
REMARK    1  A    between atoms: C12_5  and  C16_6 
REMARK    2  A    between atoms: C16_6  and  C17_7 
REMARK    3  A    between atoms: C7_13  and  C5_14 
REMARK    4  A    between atoms: C3_18  and  N20_20 
ROOT
ATOM      1  O19 553 d   1      24.299 -14.592  -9.954  0.00  0.00    -0.268 OA
ATOM      2  C15 553 d   1      23.256 -14.904 -10.535  0.00  0.00     0.253 C 
ATOM      3  N14 553 d   1      22.883 -14.408 -11.728  0.00  0.00    -0.356 N 
ATOM      4  C13 553 d   1      21.635 -14.738 -12.440  0.00  0.00     0.004 C 
ATOM      5  C12 553 d   1      20.443 -15.165 -11.556  0.00  0.00     0.005 C 
ATOM      6  C11 553 d   1      20.957 -15.975 -10.430  0.00  0.00     0.031 A 
ATOM      7  N8  553 d   1      20.314 -16.880  -9.686  0.00  0.00    -0.356 N 
ATOM      8  C10 553 d   1      22.324 -15.858  -9.890  0.00  0.00     0.057 A 
ATOM      9  C9  553 d   1      22.455 -16.735  -8.825  0.00  0.00    -0.038 A 
ATOM     10  C7  553 d   1      21.195 -17.335  -8.757  0.00  0.00     0.063 A 
ATOM     11  H1  553 d   1      23.505 -13.761 -12.169  0.00  0.00     0.162 HD
ATOM     12  H2  553 d   1      21.852 -15.563 -13.134  0.00  0.00     0.065 H 
ATOM     13  H3  553 d   1      21.329 -13.849 -13.011  0.00  0.00     0.065 H 
ATOM     14  H4  553 d   1      19.714 -15.727 -12.158  0.00  0.00     0.052 H 
ATOM     15  H9  553 d   1      19.334 -17.177  -9.796  0.00  0.00     0.166 HD
ATOM     16  H10 553 d   1      23.326 -16.913  -8.196  0.00  0.00     0.088 H 
ENDROOT
BRANCH  10  17
ATOM     17  C5  553 d   1      20.608 -18.308  -7.807  0.00  0.00     0.104 A 
ATOM     18  C6  553 d   1      21.265 -18.559  -6.590  0.00  0.00    -0.035 A 
ATOM     19  C1  553 d   1      20.658 -19.455  -5.710  0.00  0.00     0.023 A 
ATOM     20  H11 553 d   1      22.204 -18.076  -6.346  0.00  0.00     0.089 H 
ATOM     21  N2  553 d   1      19.458 -20.011  -5.999  0.00  0.00    -0.075 NA
ATOM     22  H12 553 d   1      21.155 -19.710  -4.781  0.00  0.00     0.115 H 
ATOM     23  C3  553 d   1      18.819 -19.734  -7.169  0.00  0.00     0.720 A 
ATOM     24  N4  553 d   1      19.379 -18.869  -8.054  0.00  0.00    -0.061 NA
BRANCH  23  25
ATOM     25  N20 553 d   1      17.632 -20.320  -7.486  0.00  0.00    -0.231 N 
ATOM     26  H13 553 d   1      17.168 -20.094  -8.377  0.00  0.00     0.174 HD
ATOM     27  H14 553 d   1      17.198 -20.989  -6.835  0.00  0.00     0.174 HD
ENDBRANCH  23  25
ENDBRANCH  10  17
BRANCH   5  28
ATOM     28  C16 553 d   1      19.772 -13.964 -10.868  0.00  0.00    -0.031 C 
ATOM     29  H5  553 d   1      20.358 -13.699  -9.976  0.00  0.00     0.037 H 
ATOM     30  H6  553 d   1      18.756 -14.257 -10.565  0.00  0.00     0.037 H 
BRANCH  28  31
ATOM     31  C17 553 d   1      19.675 -12.730 -11.773  0.00  0.00     0.059 C 
ATOM     32  F18 553 d   1      18.655 -12.884 -12.698  0.00  0.00    -0.255 F 
ATOM     33  H7  553 d   1      20.628 -12.596 -12.305  0.00  0.00     0.082 H 
ATOM     34  H8  553 d   1      19.472 -11.843 -11.155  0.00  0.00     0.082 H 
ENDBRANCH  28  31
ENDBRANCH   5  28
TORSDOF 4
