REMARK  7 active torsions:
REMARK  status: ('A' for Active; 'I' for Inactive)
REMARK    1  A    between atoms: C1_1  and  C15_3 
REMARK    2  A    between atoms: C1_1  and  C11_21 
REMARK    3  A    between atoms: C15_3  and  N_2 
REMARK    4  A    between atoms: C15_3  and  C14_4 
REMARK       I    between atoms: C14_4  and  N1_6 
REMARK    5  A    between atoms: C5_10  and  C7_11 
REMARK       I    between atoms: C7_11  and  N23_12 
REMARK    6  A    between atoms: N23_12  and  C24_13 
REMARK    7  A    between atoms: C24_13  and  C25_14 
ROOT
ATOM      1  C14 64U d   1      17.083 -13.679  22.506  0.00  0.00     0.251 C 
ATOM      2  O32 64U d   1      16.163 -13.003  22.990  0.00  0.00    -0.271 OA
ATOM      3  N1  64U d   1      17.775 -13.157  21.444  0.00  0.00    -0.337 N 
ATOM      4  C4  64U d   1      18.889 -13.844  20.790  0.00  0.00    -0.001 A 
ATOM      5  C3  64U d   1      19.332 -12.827  19.733  0.00  0.00    -0.048 A 
ATOM      6  C2  64U d   1      18.399 -11.626  19.777  0.00  0.00    -0.036 A 
ATOM      7  C5  64U d   1      17.429 -11.845  20.936  0.00  0.00     0.091 A 
ATOM      8  H7  64U d   1      18.558 -14.783  20.323  0.00  0.00     0.064 H 
ATOM      9  H8  64U d   1      19.700 -14.055  21.503  0.00  0.00     0.064 H 
ATOM     10  H9  64U d   1      19.290 -13.290  18.736  0.00  0.00     0.035 H 
ATOM     11  H10 64U d   1      20.361 -12.502  19.943  0.00  0.00     0.035 H 
ATOM     12  H11 64U d   1      17.843 -11.547  18.831  0.00  0.00     0.036 H 
ATOM     13  H12 64U d   1      18.978 -10.705  19.940  0.00  0.00     0.036 H 
ATOM     14  H13 64U d   1      17.595 -11.085  21.714  0.00  0.00     0.087 H 
ENDROOT
BRANCH   1  15
ATOM     15  C15 64U d   1      17.366 -15.044  23.094  0.00  0.00     0.176 C 
ATOM     16  H6  64U d   1      18.106 -15.537  22.447  0.00  0.00     0.099 H 
BRANCH  15  17
ATOM     17  C1  64U d   1      17.932 -14.939  24.534  0.00  0.00    -0.027 C 
ATOM     18  H1  64U d   1      18.144 -15.950  24.912  0.00  0.00     0.037 H 
ATOM     19  H2  64U d   1      17.185 -14.455  25.180  0.00  0.00     0.037 H 
BRANCH  17  20
ATOM     20  C11 64U d   1      19.223 -14.114  24.555  0.00  0.00    -0.052 C 
ATOM     21  C12 64U d   1      19.491 -13.748  26.037  0.00  0.00    -0.062 C 
ATOM     22  C13 64U d   1      20.800 -12.933  26.157  0.00  0.00    -0.065 C 
ATOM     23  H22 64U d   1      19.582 -14.671  26.629  0.00  0.00     0.033 H 
ATOM     24  H23 64U d   1      18.653 -13.148  26.421  0.00  0.00     0.033 H 
ATOM     25  C16 64U d   1      21.986 -13.764  25.582  0.00  0.00    -0.065 C 
ATOM     26  H24 64U d   1      20.993 -12.703  27.215  0.00  0.00     0.033 H 
ATOM     27  H25 64U d   1      20.701 -11.995  25.590  0.00  0.00     0.033 H 
ATOM     28  C17 64U d   1      21.738 -14.055  24.071  0.00  0.00    -0.065 C 
ATOM     29  H26 64U d   1      22.066 -14.715  26.129  0.00  0.00     0.033 H 
ATOM     30  H27 64U d   1      22.921 -13.195  25.696  0.00  0.00     0.033 H 
ATOM     31  C18 64U d   1      20.416 -14.877  23.926  0.00  0.00    -0.062 C 
ATOM     32  H28 64U d   1      22.580 -14.634  23.663  0.00  0.00     0.033 H 
ATOM     33  H29 64U d   1      21.645 -13.106  23.522  0.00  0.00     0.033 H 
ATOM     34  H30 64U d   1      20.213 -15.048  22.859  0.00  0.00     0.033 H 
ATOM     35  H31 64U d   1      20.535 -15.844  24.436  0.00  0.00     0.033 H 
ATOM     36  H21 64U d   1      19.068 -13.190  23.978  0.00  0.00     0.040 H 
ENDBRANCH  17  20
ENDBRANCH  15  17
BRANCH  15  37
ATOM     37  N   64U d   1      16.171 -15.918  23.208  0.00  0.00    -0.066 N 
ATOM     38  H3  64U d   1      15.749 -16.030  22.299  0.00  0.00     0.275 HD
ATOM     39  H4  64U d   1      15.506 -15.497  23.838  0.00  0.00     0.275 HD
ATOM     40  H5  64U d   1      16.447 -16.820  23.564  0.00  0.00     0.275 HD
ENDBRANCH  15  37
ENDBRANCH   1  15
BRANCH   7  41
ATOM     41  C7  64U d   1      15.981 -11.768  20.491  0.00  0.00     0.240 C 
ATOM     42  N23 64U d   1      15.367 -10.612  20.833  0.00  0.00    -0.355 N 
ATOM     43  H14 64U d   1      15.815  -9.968  21.453  0.00  0.00     0.162 HD
ATOM     44  O22 64U d   1      15.424 -12.686  19.901  0.00  0.00    -0.271 OA
BRANCH  42  45
ATOM     45  C24 64U d   1      14.048 -10.312  20.291  0.00  0.00     0.019 C 
ATOM     46  H15 64U d   1      13.753 -11.084  19.565  0.00  0.00     0.071 H 
ATOM     47  H16 64U d   1      14.056  -9.329  19.798  0.00  0.00     0.071 H 
BRANCH  45  48
ATOM     48  C25 64U d   1      13.070 -10.301  21.478  0.00  0.00    -0.039 A 
ATOM     49  C30 64U d   1      13.074  -9.223  22.377  0.00  0.00    -0.054 A 
ATOM     50  C29 64U d   1      12.177  -9.226  23.453  0.00  0.00     0.034 A 
ATOM     51  H17 64U d   1      13.763  -8.398  22.240  0.00  0.00     0.086 H 
ATOM     52  C28 64U d   1      11.287 -10.280  23.642  0.00  0.00    -0.062 A 
ATOM     53 CL21 64U d   1      12.165  -7.902  24.583  0.00  0.00    -0.084 Cl
ATOM     54  C27 64U d   1      11.297 -11.343  22.739  0.00  0.00    -0.081 A 
ATOM     55  H18 64U d   1      10.597 -10.274  24.478  0.00  0.00     0.086 H 
ATOM     56  C26 64U d   1      12.182 -11.353  21.665  0.00  0.00    -0.075 A 
ATOM     57  H19 64U d   1      10.609 -12.169  22.875  0.00  0.00     0.083 H 
ATOM     58  H20 64U d   1      12.178 -12.186  20.971  0.00  0.00     0.084 H 
ENDBRANCH  45  48
ENDBRANCH  42  45
ENDBRANCH   7  41
TORSDOF 7
