REMARK  26 active torsions:
REMARK  status: ('A' for Active; 'I' for Inactive)
REMARK    1  A    between atoms: S1_1  and  C2_2 
REMARK    2  A    between atoms: S1_1  and  C79_33 
REMARK    3  A    between atoms: C2_2  and  C5_3 
REMARK    4  A    between atoms: C5_3  and  C8_4 
REMARK    5  A    between atoms: C8_4  and  N10_5 
REMARK    6  A    between atoms: C8_4  and  C30_13 
REMARK       I    between atoms: N10_5  and  C12_6 
REMARK    7  A    between atoms: C12_6  and  C14_8 
REMARK    8  A    between atoms: C14_8  and  C17_9 
REMARK    9  A    between atoms: C17_9  and  C20_10 
REMARK   10  A    between atoms: C20_10  and  C22_11 
REMARK   11  A    between atoms: C20_10  and  C26_12 
REMARK       I    between atoms: C30_13  and  N32_15 
REMARK   12  A    between atoms: N32_15  and  C34_16 
REMARK   13  A    between atoms: C34_16  and  C36_17 
REMARK   14  A    between atoms: C34_16  and  C66_29 
REMARK   15  A    between atoms: C36_17  and  O38_18 
REMARK   16  A    between atoms: C36_17  and  C40_19 
REMARK   17  A    between atoms: C40_19  and  C43_20 
REMARK   18  A    between atoms: C43_20  and  C45_21 
REMARK   19  A    between atoms: C43_20  and  C49_22 
REMARK       I    between atoms: C49_22  and  N51_24 
REMARK   20  A    between atoms: N51_24  and  C53_25 
REMARK   21  A    between atoms: C53_25  and  C56_26 
REMARK   22  A    between atoms: C56_26  and  C59_27 
REMARK   23  A    between atoms: C59_27  and  C62_28 
REMARK   24  A    between atoms: C66_29  and  C69_30 
REMARK   25  A    between atoms: C69_30  and  C71_31 
REMARK   26  A    between atoms: C69_30  and  C75_32 
ROOT
ATOM      1  C34 AFJ d   1      31.462   6.287  15.230  0.00  0.00     0.037 C 
ATOM      2  H19 AFJ d   1      31.076   6.751  14.311  0.00  0.00     0.076 H 
ENDROOT
BRANCH   1   3
ATOM      3  N32 AFJ d   1      30.310   6.052  16.116  0.00  0.00    -0.352 N 
ATOM      4  C30 AFJ d   1      29.019   6.219  15.718  0.00  0.00     0.240 C 
ATOM      5  O31 AFJ d   1      28.718   6.575  14.578  0.00  0.00    -0.271 OA
ATOM      6  H18 AFJ d   1      30.484   5.755  17.055  0.00  0.00     0.163 HD
BRANCH   4   7
ATOM      7  C8  AFJ d   1      27.937   5.945  16.747  0.00  0.00     0.090 C 
ATOM      8  H5  AFJ d   1      28.176   4.996  17.249  0.00  0.00     0.087 H 
BRANCH   7   9
ATOM      9  C5  AFJ d   1      26.519   5.800  16.107  0.00  0.00    -0.030 C 
ATOM     10  H3  AFJ d   1      26.135   6.805  15.877  0.00  0.00     0.037 H 
ATOM     11  H4  AFJ d   1      26.614   5.222  15.176  0.00  0.00     0.037 H 
BRANCH   9  12
ATOM     12  C2  AFJ d   1      25.499   5.083  17.031  0.00  0.00    -0.021 C 
ATOM     13  H1  AFJ d   1      25.895   4.096  17.311  0.00  0.00     0.049 H 
ATOM     14  H2  AFJ d   1      25.344   5.687  17.937  0.00  0.00     0.049 H 
BRANCH  12  15
ATOM     15  S1  AFJ d   1      23.904   4.868  16.172  0.00  0.00    -0.173 SA
BRANCH  15  16
ATOM     16  C79 AFJ d   1      22.794   4.777  17.610  0.00  0.00    -0.035 C 
ATOM     17  H47 AFJ d   1      21.758   4.644  17.265  0.00  0.00     0.041 H 
ATOM     18  H48 AFJ d   1      22.870   5.708  18.191  0.00  0.00     0.041 H 
ATOM     19  H49 AFJ d   1      23.083   3.925  18.243  0.00  0.00     0.041 H 
ENDBRANCH  15  16
ENDBRANCH  12  15
ENDBRANCH   9  12
ENDBRANCH   7   9
BRANCH   7  20
ATOM     20  N10 AFJ d   1      27.950   7.018  17.750  0.00  0.00    -0.348 N 
ATOM     21  C12 AFJ d   1      27.752   6.811  19.082  0.00  0.00     0.218 C 
ATOM     22  O13 AFJ d   1      27.545   5.711  19.589  0.00  0.00    -0.274 OA
ATOM     23  H6  AFJ d   1      28.113   7.954  17.437  0.00  0.00     0.163 HD
BRANCH  21  24
ATOM     24  C14 AFJ d   1      27.793   8.043  19.958  0.00  0.00     0.009 C 
ATOM     25  H7  AFJ d   1      26.875   8.068  20.564  0.00  0.00     0.047 H 
ATOM     26  H8  AFJ d   1      27.827   8.929  19.307  0.00  0.00     0.047 H 
BRANCH  24  27
ATOM     27  C17 AFJ d   1      29.015   8.095  20.919  0.00  0.00    -0.054 C 
ATOM     28  H9  AFJ d   1      29.102   7.114  21.408  0.00  0.00     0.034 H 
ATOM     29  H10 AFJ d   1      28.816   8.867  21.677  0.00  0.00     0.034 H 
BRANCH  27  30
ATOM     30  C20 AFJ d   1      30.387   8.421  20.254  0.00  0.00    -0.061 C 
ATOM     31  H11 AFJ d   1      30.401   7.996  19.240  0.00  0.00     0.038 H 
BRANCH  30  32
ATOM     32  C22 AFJ d   1      31.558   7.819  21.078  0.00  0.00    -0.073 C 
ATOM     33  H12 AFJ d   1      32.513   8.062  20.590  0.00  0.00     0.028 H 
ATOM     34  H13 AFJ d   1      31.443   6.726  21.135  0.00  0.00     0.028 H 
ATOM     35  H14 AFJ d   1      31.547   8.242  22.093  0.00  0.00     0.028 H 
ENDBRANCH  30  32
BRANCH  30  36
ATOM     36  C26 AFJ d   1      30.588   9.957  20.172  0.00  0.00    -0.073 C 
ATOM     37  H15 AFJ d   1      29.767  10.404  19.591  0.00  0.00     0.028 H 
ATOM     38  H16 AFJ d   1      31.547  10.176  19.680  0.00  0.00     0.028 H 
ATOM     39  H17 AFJ d   1      30.592  10.381  21.187  0.00  0.00     0.028 H 
ENDBRANCH  30  36
ENDBRANCH  27  30
ENDBRANCH  24  27
ENDBRANCH  21  24
ENDBRANCH   7  20
ENDBRANCH   4   7
ENDBRANCH   1   3
BRANCH   1  40
ATOM     40  C36 AFJ d   1      32.093   4.925  14.801  0.00  0.00     0.056 C 
ATOM     41  H20 AFJ d   1      32.861   5.179  14.055  0.00  0.00     0.086 H 
BRANCH  40  42
ATOM     42  O38 AFJ d   1      32.786   4.301  15.898  0.00  0.00    -0.393 OA
ATOM     43  H21 AFJ d   1      33.480   4.875  16.200  0.00  0.00     0.210 HD
ENDBRANCH  40  42
BRANCH  40  44
ATOM     44  C40 AFJ d   1      31.129   3.922  14.081  0.00  0.00    -0.028 C 
ATOM     45  H22 AFJ d   1      30.351   4.508  13.570  0.00  0.00     0.038 H 
ATOM     46  H23 AFJ d   1      30.665   3.287  14.850  0.00  0.00     0.038 H 
BRANCH  44  47
ATOM     47  C43 AFJ d   1      31.796   2.988  13.027  0.00  0.00     0.022 C 
ATOM     48  H24 AFJ d   1      32.812   2.745  13.371  0.00  0.00     0.054 H 
BRANCH  47  49
ATOM     49  C45 AFJ d   1      30.966   1.683  12.902  0.00  0.00    -0.065 C 
ATOM     50  H25 AFJ d   1      31.434   1.021  12.159  0.00  0.00     0.028 H 
ATOM     51  H26 AFJ d   1      29.943   1.929  12.582  0.00  0.00     0.028 H 
ATOM     52  H27 AFJ d   1      30.933   1.175  13.877  0.00  0.00     0.028 H 
ENDBRANCH  47  49
BRANCH  47  53
ATOM     53  C49 AFJ d   1      31.886   3.619  11.649  0.00  0.00     0.221 C 
ATOM     54  O50 AFJ d   1      30.954   4.293  11.226  0.00  0.00    -0.273 OA
ATOM     55  N51 AFJ d   1      33.017   3.396  10.945  0.00  0.00    -0.361 N 
ATOM     56  H28 AFJ d   1      33.741   2.844  11.357  0.00  0.00     0.162 HD
BRANCH  55  57
ATOM     57  C53 AFJ d   1      33.218   3.933   9.605  0.00  0.00    -0.005 C 
ATOM     58  H29 AFJ d   1      33.337   5.024   9.675  0.00  0.00     0.064 H 
ATOM     59  H30 AFJ d   1      32.334   3.699   8.993  0.00  0.00     0.064 H 
BRANCH  57  60
ATOM     60  C56 AFJ d   1      34.468   3.338   8.922  0.00  0.00    -0.051 C 
ATOM     61  H31 AFJ d   1      34.513   2.259   9.130  0.00  0.00     0.035 H 
ATOM     62  H32 AFJ d   1      35.367   3.827   9.327  0.00  0.00     0.035 H 
BRANCH  60  63
ATOM     63  C59 AFJ d   1      34.418   3.557   7.393  0.00  0.00    -0.067 C 
ATOM     64  H33 AFJ d   1      33.406   3.317   7.035  0.00  0.00     0.032 H 
ATOM     65  H34 AFJ d   1      35.145   2.884   6.916  0.00  0.00     0.032 H 
BRANCH  63  66
ATOM     66  C62 AFJ d   1      34.752   5.009   6.995  0.00  0.00    -0.076 C 
ATOM     67  H35 AFJ d   1      34.702   5.110   5.901  0.00  0.00     0.027 H 
ATOM     68  H36 AFJ d   1      35.766   5.260   7.341  0.00  0.00     0.027 H 
ATOM     69  H37 AFJ d   1      34.026   5.693   7.460  0.00  0.00     0.027 H 
ENDBRANCH  63  66
ENDBRANCH  60  63
ENDBRANCH  57  60
ENDBRANCH  55  57
ENDBRANCH  47  53
ENDBRANCH  44  47
ENDBRANCH  40  44
ENDBRANCH   1  40
BRANCH   1  70
ATOM     70  C66 AFJ d   1      32.450   7.322  15.855  0.00  0.00    -0.041 C 
ATOM     71  H38 AFJ d   1      33.269   7.486  15.139  0.00  0.00     0.036 H 
ATOM     72  H39 AFJ d   1      32.854   6.889  16.782  0.00  0.00     0.036 H 
BRANCH  70  73
ATOM     73  C69 AFJ d   1      31.826   8.715  16.203  0.00  0.00    -0.059 C 
ATOM     74  H40 AFJ d   1      30.894   8.537  16.759  0.00  0.00     0.038 H 
BRANCH  73  75
ATOM     75  C71 AFJ d   1      31.477   9.562  14.945  0.00  0.00    -0.073 C 
ATOM     76  H41 AFJ d   1      31.045  10.524  15.259  0.00  0.00     0.028 H 
ATOM     77  H42 AFJ d   1      30.749   9.017  14.326  0.00  0.00     0.028 H 
ATOM     78  H43 AFJ d   1      32.391   9.744  14.361  0.00  0.00     0.028 H 
ENDBRANCH  73  75
BRANCH  73  79
ATOM     79  C75 AFJ d   1      32.801   9.514  17.115  0.00  0.00    -0.073 C 
ATOM     80  H44 AFJ d   1      33.047   8.914  18.004  0.00  0.00     0.028 H 
ATOM     81  H45 AFJ d   1      32.323  10.454  17.428  0.00  0.00     0.028 H 
ATOM     82  H46 AFJ d   1      33.723   9.739  16.558  0.00  0.00     0.028 H 
ENDBRANCH  73  79
ENDBRANCH  70  73
ENDBRANCH   1  70
TORSDOF 26
