REMARK  12 active torsions:
REMARK  status: ('A' for Active; 'I' for Inactive)
REMARK    1  A    between atoms: C3_2  and  C47_20 
REMARK    2  A    between atoms: C8_4  and  C43_19 
REMARK    3  A    between atoms: C34_14  and  C38_17 
REMARK    4  A    between atoms: C47_20  and  O49_21 
REMARK    5  A    between atoms: C47_20  and  C51_22 
REMARK    6  A    between atoms: C51_22  and  C54_23 
REMARK    7  A    between atoms: C54_23  and  C56_24 
REMARK    8  A    between atoms: C54_23  and  C60_25 
REMARK       I    between atoms: C60_25  and  N62_27 
REMARK    9  A    between atoms: N62_27  and  C64_28 
REMARK   10  A    between atoms: C64_28  and  C67_29 
REMARK   11  A    between atoms: C67_29  and  C70_30 
REMARK   12  A    between atoms: C70_30  and  C73_31 
ROOT
ATOM      1  N1  AR9 d   1      30.278   6.168  16.153  0.00  0.00    -0.352 N 
ATOM      2  C3  AR9 d   1      31.323   6.456  15.180  0.00  0.00     0.037 C 
ATOM      3  C5  AR9 d   1      32.364   7.366  15.902  0.00  0.00    -0.041 C 
ATOM      4  C8  AR9 d   1      31.705   8.757  16.161  0.00  0.00    -0.056 C 
ATOM      5  C10 AR9 d   1      32.568   9.591  17.147  0.00  0.00    -0.062 C 
ATOM      6  C13 AR9 d   1      32.367   9.096  18.591  0.00  0.00    -0.065 C 
ATOM      7  C16 AR9 d   1      31.201   9.861  19.211  0.00  0.00    -0.065 C 
ATOM      8  C19 AR9 d   1      30.968   9.424  20.696  0.00  0.00    -0.065 C 
ATOM      9  C22 AR9 d   1      29.861   8.350  20.772  0.00  0.00    -0.065 C 
ATOM     10  C25 AR9 d   1      28.623   8.969  20.115  0.00  0.00    -0.057 C 
ATOM     11  C28 AR9 d   1      27.438   8.029  20.109  0.00  0.00     0.009 C 
ATOM     12  C31 AR9 d   1      27.571   6.873  19.150  0.00  0.00     0.218 C 
ATOM     13  N32 AR9 d   1      27.946   7.135  17.863  0.00  0.00    -0.348 N 
ATOM     14  C34 AR9 d   1      28.008   6.015  16.900  0.00  0.00     0.086 C 
ATOM     15  C36 AR9 d   1      28.981   6.318  15.805  0.00  0.00     0.240 C 
ATOM     16  O37 AR9 d   1      28.610   6.667  14.683  0.00  0.00    -0.271 OA
ATOM     17  O42 AR9 d   1      27.328   5.755  19.581  0.00  0.00    -0.274 OA
ATOM     18  H1  AR9 d   1      30.519   5.861  17.074  0.00  0.00     0.163 HD
ATOM     19  H2  AR9 d   1      30.892   6.997  14.325  0.00  0.00     0.076 H 
ATOM     20  H3  AR9 d   1      33.254   7.489  15.267  0.00  0.00     0.036 H 
ATOM     21  H4  AR9 d   1      32.656   6.909  16.859  0.00  0.00     0.036 H 
ATOM     22  H5  AR9 d   1      30.692   8.624  16.568  0.00  0.00     0.039 H 
ATOM     23  H6  AR9 d   1      32.272  10.648  17.082  0.00  0.00     0.033 H 
ATOM     24  H7  AR9 d   1      33.629   9.490  16.874  0.00  0.00     0.033 H 
ATOM     25  H8  AR9 d   1      33.281   9.277  19.175  0.00  0.00     0.033 H 
ATOM     26  H9  AR9 d   1      32.142   8.019  18.586  0.00  0.00     0.033 H 
ATOM     27  H10 AR9 d   1      30.289   9.659  18.630  0.00  0.00     0.033 H 
ATOM     28  H11 AR9 d   1      31.423  10.938  19.184  0.00  0.00     0.033 H 
ATOM     29  H12 AR9 d   1      30.665  10.300  21.289  0.00  0.00     0.033 H 
ATOM     30  H13 AR9 d   1      31.903   9.011  21.104  0.00  0.00     0.033 H 
ATOM     31  H14 AR9 d   1      29.649   8.094  21.820  0.00  0.00     0.033 H 
ATOM     32  H15 AR9 d   1      30.169   7.445  20.228  0.00  0.00     0.033 H 
ATOM     33  H16 AR9 d   1      28.870   9.232  19.076  0.00  0.00     0.033 H 
ATOM     34  H17 AR9 d   1      28.348   9.879  20.668  0.00  0.00     0.033 H 
ATOM     35  H18 AR9 d   1      26.542   8.605  19.833  0.00  0.00     0.047 H 
ATOM     36  H19 AR9 d   1      27.315   7.623  21.124  0.00  0.00     0.047 H 
ATOM     37  H20 AR9 d   1      28.174   8.066  17.578  0.00  0.00     0.163 HD
ATOM     38  H21 AR9 d   1      28.323   5.095  17.415  0.00  0.00     0.086 H 
ENDROOT
BRANCH   2  39
ATOM     39  C47 AR9 d   1      31.974   5.155  14.664  0.00  0.00     0.056 C 
ATOM     40  H28 AR9 d   1      32.719   5.407  13.895  0.00  0.00     0.086 H 
BRANCH  39  41
ATOM     41  O49 AR9 d   1      32.610   4.458  15.747  0.00  0.00    -0.393 OA
ATOM     42  H29 AR9 d   1      33.280   5.013  16.129  0.00  0.00     0.210 HD
ENDBRANCH  39  41
BRANCH  39  43
ATOM     43  C51 AR9 d   1      30.906   4.201  14.063  0.00  0.00    -0.028 C 
ATOM     44  H30 AR9 d   1      30.169   4.781  13.489  0.00  0.00     0.038 H 
ATOM     45  H31 AR9 d   1      30.395   3.656  14.871  0.00  0.00     0.038 H 
BRANCH  43  46
ATOM     46  C54 AR9 d   1      31.625   3.206  13.135  0.00  0.00     0.022 C 
ATOM     47  H32 AR9 d   1      32.641   3.014  13.510  0.00  0.00     0.054 H 
BRANCH  46  48
ATOM     48  C56 AR9 d   1      30.810   1.898  13.048  0.00  0.00    -0.065 C 
ATOM     49  H33 AR9 d   1      31.326   1.188  12.384  0.00  0.00     0.028 H 
ATOM     50  H34 AR9 d   1      29.809   2.115  12.646  0.00  0.00     0.028 H 
ATOM     51  H35 AR9 d   1      30.714   1.458  14.052  0.00  0.00     0.028 H 
ENDBRANCH  46  48
BRANCH  46  52
ATOM     52  C60 AR9 d   1      31.666   3.731  11.708  0.00  0.00     0.221 C 
ATOM     53  O61 AR9 d   1      30.756   4.431  11.293  0.00  0.00    -0.273 OA
ATOM     54  N62 AR9 d   1      32.730   3.385  10.981  0.00  0.00    -0.361 N 
ATOM     55  H36 AR9 d   1      33.455   2.832  11.392  0.00  0.00     0.162 HD
BRANCH  54  56
ATOM     56  C64 AR9 d   1      32.842   3.809   9.590  0.00  0.00    -0.005 C 
ATOM     57  H37 AR9 d   1      32.802   4.906   9.526  0.00  0.00     0.064 H 
ATOM     58  H38 AR9 d   1      32.023   3.377   8.997  0.00  0.00     0.064 H 
BRANCH  56  59
ATOM     59  C67 AR9 d   1      34.201   3.298   9.066  0.00  0.00    -0.051 C 
ATOM     60  H39 AR9 d   1      34.297   2.230   9.309  0.00  0.00     0.035 H 
ATOM     61  H40 AR9 d   1      35.007   3.861   9.559  0.00  0.00     0.035 H 
BRANCH  59  62
ATOM     62  C70 AR9 d   1      34.331   3.477   7.529  0.00  0.00    -0.067 C 
ATOM     63  H41 AR9 d   1      33.435   3.067   7.041  0.00  0.00     0.032 H 
ATOM     64  H42 AR9 d   1      35.221   2.935   7.176  0.00  0.00     0.032 H 
BRANCH  62  65
ATOM     65  C73 AR9 d   1      34.469   4.972   7.162  0.00  0.00    -0.076 C 
ATOM     66  H43 AR9 d   1      34.559   5.075   6.071  0.00  0.00     0.027 H 
ATOM     67  H44 AR9 d   1      35.366   5.387   7.645  0.00  0.00     0.027 H 
ATOM     68  H45 AR9 d   1      33.580   5.518   7.509  0.00  0.00     0.027 H 
ENDBRANCH  62  65
ENDBRANCH  59  62
ENDBRANCH  56  59
ENDBRANCH  54  56
ENDBRANCH  46  52
ENDBRANCH  43  46
ENDBRANCH  39  43
ENDBRANCH   2  39
BRANCH   4  69
ATOM     69  C43 AR9 d   1      31.652   9.515  14.803  0.00  0.00    -0.073 C 
ATOM     70  H25 AR9 d   1      31.045   8.942  14.087  0.00  0.00     0.028 H 
ATOM     71  H26 AR9 d   1      32.672   9.632  14.408  0.00  0.00     0.028 H 
ATOM     72  H27 AR9 d   1      31.202  10.507  14.954  0.00  0.00     0.028 H 
ENDBRANCH   4  69
BRANCH  14  73
ATOM     73  C38 AR9 d   1      26.576   5.838  16.342  0.00  0.00    -0.049 C 
ATOM     74  H22 AR9 d   1      26.565   5.012  15.616  0.00  0.00     0.030 H 
ATOM     75  H23 AR9 d   1      26.259   6.767  15.846  0.00  0.00     0.030 H 
ATOM     76  H24 AR9 d   1      25.886   5.609  17.168  0.00  0.00     0.030 H 
ENDBRANCH  14  73
TORSDOF 12
