REMARK  12 active torsions:
REMARK  status: ('A' for Active; 'I' for Inactive)
REMARK    1  A    between atoms: N1_1  and  C81_35 
REMARK    2  A    between atoms: C2_2  and  C77_34 
REMARK    3  A    between atoms: C7_5  and  C44_19 
REMARK    4  A    between atoms: C12_7  and  C40_18 
REMARK    5  A    between atoms: C44_19  and  O46_20 
REMARK    6  A    between atoms: C44_19  and  C48_21 
REMARK    7  A    between atoms: C48_21  and  N51_22 
REMARK    8  A    between atoms: N51_22  and  C53_23 
REMARK    9  A    between atoms: C53_23  and  C56_24 
REMARK   10  A    between atoms: C59_26  and  C66_30 
REMARK   11  A    between atoms: C66_30  and  C68_31 
REMARK   12  A    between atoms: C66_30  and  C72_32 
ROOT
ATOM      1  N1  BAV d   1      27.308   6.518  16.859  0.00  0.00    -0.343 N 
ATOM      2  C2  BAV d   1      27.345   5.412  15.921  0.00  0.00     0.087 C 
ATOM      3  C4  BAV d   1      28.465   5.651  14.955  0.00  0.00     0.240 C 
ATOM      4  N5  BAV d   1      29.720   5.723  15.462  0.00  0.00    -0.352 N 
ATOM      5  C7  BAV d   1      30.871   5.917  14.562  0.00  0.00     0.039 C 
ATOM      6  C9  BAV d   1      31.855   6.827  15.336  0.00  0.00    -0.041 C 
ATOM      7  C12 BAV d   1      31.140   8.153  15.808  0.00  0.00    -0.056 C 
ATOM      8  C14 BAV d   1      32.252   9.014  16.435  0.00  0.00    -0.062 C 
ATOM      9  C17 BAV d   1      31.731  10.303  17.129  0.00  0.00    -0.065 C 
ATOM     10  C20 BAV d   1      30.702  10.051  18.243  0.00  0.00    -0.065 C 
ATOM     11  C23 BAV d   1      31.271   9.113  19.332  0.00  0.00    -0.065 C 
ATOM     12  C26 BAV d   1      30.386   9.193  20.623  0.00  0.00    -0.065 C 
ATOM     13  C29 BAV d   1      28.868   8.994  20.328  0.00  0.00    -0.065 C 
ATOM     14  C32 BAV d   1      28.630   7.605  19.631  0.00  0.00    -0.057 C 
ATOM     15  C35 BAV d   1      27.108   7.389  19.232  0.00  0.00     0.009 C 
ATOM     16  C38 BAV d   1      27.093   6.237  18.199  0.00  0.00     0.220 C 
ATOM     17  O39 BAV d   1      26.883   5.096  18.607  0.00  0.00    -0.273 OA
ATOM     18  O76 BAV d   1      28.210   5.765  13.773  0.00  0.00    -0.271 OA
ATOM     19  H1  BAV d   1      27.561   4.491  16.482  0.00  0.00     0.087 H 
ATOM     20  H2  BAV d   1      29.865   5.644  16.448  0.00  0.00     0.163 HD
ATOM     21  H3  BAV d   1      30.551   6.386  13.620  0.00  0.00     0.076 H 
ATOM     22  H4  BAV d   1      32.699   7.086  14.680  0.00  0.00     0.036 H 
ATOM     23  H5  BAV d   1      32.229   6.286  16.218  0.00  0.00     0.036 H 
ATOM     24  H6  BAV d   1      30.365   7.925  16.555  0.00  0.00     0.039 H 
ATOM     25  H7  BAV d   1      32.953   9.307  15.640  0.00  0.00     0.033 H 
ATOM     26  H8  BAV d   1      32.780   8.406  17.184  0.00  0.00     0.033 H 
ATOM     27  H9  BAV d   1      31.262  10.940  16.365  0.00  0.00     0.033 H 
ATOM     28  H10 BAV d   1      32.591  10.830  17.568  0.00  0.00     0.033 H 
ATOM     29  H11 BAV d   1      29.805   9.588  17.805  0.00  0.00     0.033 H 
ATOM     30  H12 BAV d   1      30.431  11.012  18.704  0.00  0.00     0.033 H 
ATOM     31  H13 BAV d   1      32.299   9.419  19.576  0.00  0.00     0.033 H 
ATOM     32  H14 BAV d   1      31.275   8.079  18.957  0.00  0.00     0.033 H 
ATOM     33  H15 BAV d   1      30.528  10.181  21.085  0.00  0.00     0.033 H 
ATOM     34  H16 BAV d   1      30.714   8.410  21.323  0.00  0.00     0.033 H 
ATOM     35  H17 BAV d   1      28.518   9.799  19.665  0.00  0.00     0.033 H 
ATOM     36  H18 BAV d   1      28.306   9.028  21.273  0.00  0.00     0.033 H 
ATOM     37  H19 BAV d   1      28.932   6.805  20.323  0.00  0.00     0.033 H 
ATOM     38  H20 BAV d   1      29.246   7.555  18.721  0.00  0.00     0.033 H 
ATOM     39  H21 BAV d   1      26.697   8.306  18.786  0.00  0.00     0.047 H 
ATOM     40  H22 BAV d   1      26.517   7.115  20.118  0.00  0.00     0.047 H 
ENDROOT
BRANCH   5  41
ATOM     41  C44 BAV d   1      31.588   4.573  14.272  0.00  0.00     0.078 C 
ATOM     42  H26 BAV d   1      31.808   4.091  15.236  0.00  0.00     0.088 H 
BRANCH  41  43
ATOM     43  O46 BAV d   1      32.822   4.820  13.596  0.00  0.00    -0.392 OA
ATOM     44  H27 BAV d   1      33.378   5.362  14.143  0.00  0.00     0.210 HD
ENDBRANCH  41  43
BRANCH  41  45
ATOM     45  C48 BAV d   1      30.721   3.602  13.443  0.00  0.00     0.107 C 
ATOM     46  H28 BAV d   1      30.482   4.072  12.478  0.00  0.00     0.079 H 
ATOM     47  H29 BAV d   1      29.790   3.397  13.992  0.00  0.00     0.079 H 
BRANCH  45  48
ATOM     48  N51 BAV d   1      31.429   2.311  13.191  0.00  0.00    -0.069 N 
ATOM     49  H30 BAV d   1      31.411   1.761  14.036  0.00  0.00     0.277 HD
ATOM     50  H31 BAV d   1      32.385   2.509  12.940  0.00  0.00     0.277 HD
BRANCH  48  51
ATOM     51  C53 BAV d   1      30.796   1.522  12.090  0.00  0.00     0.105 C 
ATOM     52  H32 BAV d   1      29.771   1.262  12.392  0.00  0.00     0.083 H 
ATOM     53  H33 BAV d   1      31.379   0.601  11.941  0.00  0.00     0.083 H 
BRANCH  51  54
ATOM     54  C56 BAV d   1      30.731   2.294  10.727  0.00  0.00    -0.032 A 
ATOM     55  C57 BAV d   1      31.893   2.858  10.162  0.00  0.00    -0.069 A 
ATOM     56  C59 BAV d   1      31.833   3.525   8.915  0.00  0.00    -0.054 A 
ATOM     57  H34 BAV d   1      32.839   2.780  10.686  0.00  0.00     0.085 H 
ATOM     58  C60 BAV d   1      30.609   3.651   8.238  0.00  0.00    -0.076 A 
ATOM     59  C62 BAV d   1      29.455   3.095   8.807  0.00  0.00    -0.082 A 
ATOM     60  H35 BAV d   1      30.557   4.171   7.288  0.00  0.00     0.084 H 
ATOM     61  C64 BAV d   1      29.499   2.421  10.053  0.00  0.00    -0.075 A 
ATOM     62  H36 BAV d   1      28.510   3.182   8.284  0.00  0.00     0.083 H 
ATOM     63  H37 BAV d   1      28.594   2.007  10.484  0.00  0.00     0.084 H 
BRANCH  56  64
ATOM     64  C66 BAV d   1      33.054   4.110   8.265  0.00  0.00    -0.036 C 
ATOM     65  H38 BAV d   1      32.777   4.516   7.281  0.00  0.00     0.046 H 
BRANCH  64  66
ATOM     66  C68 BAV d   1      34.095   2.983   8.084  0.00  0.00    -0.069 C 
ATOM     67  H39 BAV d   1      34.999   3.392   7.609  0.00  0.00     0.028 H 
ATOM     68  H40 BAV d   1      33.672   2.192   7.448  0.00  0.00     0.028 H 
ATOM     69  H41 BAV d   1      34.356   2.563   9.067  0.00  0.00     0.028 H 
ENDBRANCH  64  66
BRANCH  64  70
ATOM     70  C72 BAV d   1      33.662   5.234   9.109  0.00  0.00    -0.069 C 
ATOM     71  H42 BAV d   1      32.921   6.037   9.238  0.00  0.00     0.028 H 
ATOM     72  H43 BAV d   1      34.552   5.634   8.601  0.00  0.00     0.028 H 
ATOM     73  H44 BAV d   1      33.950   4.838  10.094  0.00  0.00     0.028 H 
ENDBRANCH  64  70
ENDBRANCH  56  64
ENDBRANCH  51  54
ENDBRANCH  48  51
ENDBRANCH  45  48
ENDBRANCH  41  45
ENDBRANCH   5  41
BRANCH   7  74
ATOM     74  C40 BAV d   1      30.473   8.909  14.569  0.00  0.00    -0.073 C 
ATOM     75  H23 BAV d   1      29.683   8.278  14.137  0.00  0.00     0.028 H 
ATOM     76  H24 BAV d   1      31.240   9.110  13.806  0.00  0.00     0.028 H 
ATOM     77  H25 BAV d   1      30.037   9.859  14.911  0.00  0.00     0.028 H 
ENDBRANCH   7  74
BRANCH   2  78
ATOM     78  C77 BAV d   1      25.974   5.210  15.184  0.00  0.00    -0.049 C 
ATOM     79  H45 BAV d   1      26.054   4.363  14.487  0.00  0.00     0.030 H 
ATOM     80  H46 BAV d   1      25.720   6.123  14.625  0.00  0.00     0.030 H 
ATOM     81  H47 BAV d   1      25.187   5.003  15.924  0.00  0.00     0.030 H 
ENDBRANCH   2  78
BRANCH   1  82
ATOM     82  C81 BAV d   1      27.465   7.926  16.401  0.00  0.00    -0.015 C 
ATOM     83  H48 BAV d   1      27.406   8.602  17.267  0.00  0.00     0.056 H 
ATOM     84  H49 BAV d   1      26.663   8.172  15.689  0.00  0.00     0.056 H 
ATOM     85  H50 BAV d   1      28.442   8.045  15.909  0.00  0.00     0.056 H 
ENDBRANCH   1  82
TORSDOF 12
