REMARK WARNING: 32 MAX_TORS EXCEEDED!!!
REMARK  36 active torsions:
REMARK  status: ('A' for Active; 'I' for Inactive)
REMARK    1  A    between atoms: N_1  and  CA_2 
REMARK    2  A    between atoms: CA_2  and  C_3 
REMARK    3  A    between atoms: CA_2  and  CB_5 
REMARK       I    between atoms: C_3  and  N_6 
REMARK    4  A    between atoms: N_6  and  CA_7 
REMARK    5  A    between atoms: CA_7  and  C_8 
REMARK    6  A    between atoms: CA_7  and  CB_10 
REMARK       I    between atoms: C_8  and  N_13 
REMARK    7  A    between atoms: CB_10  and  OG1_11 
REMARK    8  A    between atoms: CB_10  and  CG2_12 
REMARK    9  A    between atoms: N_13  and  CA_14 
REMARK   10  A    between atoms: CA_14  and  C_15 
REMARK   11  A    between atoms: CA_14  and  CB_17 
REMARK       I    between atoms: C_15  and  N_24 
REMARK   12  A    between atoms: CB_17  and  CG_18 
REMARK   13  A    between atoms: CG_18  and  CD_19 
REMARK   14  A    between atoms: CD_19  and  NE_20 
REMARK       I    between atoms: NE_20  and  CZ_21 
REMARK       I    between atoms: CZ_21  and  NH1_22 
REMARK   15  A    between atoms: N_24  and  CA_25 
REMARK   16  A    between atoms: CA_25  and  C_26 
REMARK   17  A    between atoms: CA_25  and  CB_28 
REMARK       I    between atoms: C_26  and  N_32 
REMARK   18  A    between atoms: CB_28  and  CG_29 
REMARK   19  A    between atoms: N_32  and  CA_33 
REMARK   20  A    between atoms: CA_33  and  C_34 
REMARK   21  A    between atoms: CA_33  and  CB_36 
REMARK       I    between atoms: C_34  and  N_39 
REMARK   22  A    between atoms: CB_36  and  CG1_37 
REMARK   23  A    between atoms: CB_36  and  CG2_38 
REMARK   24  A    between atoms: N_39  and  CA_40 
REMARK   25  A    between atoms: CA_40  and  C_41 
REMARK   26  A    between atoms: CA_40  and  CB_43 
REMARK       I    between atoms: C_41  and  N_44 
REMARK   27  A    between atoms: N_44  and  CA_45 
REMARK   28  A    between atoms: CA_45  and  C_46 
REMARK   29  A    between atoms: CA_45  and  CB_48 
REMARK       I    between atoms: C_46  and  N_51 
REMARK   30  A    between atoms: CB_48  and  OG1_49 
REMARK   31  A    between atoms: CB_48  and  CG2_50 
REMARK   32  A    between atoms: N_51  and  CA_52 
REMARK   33  A    between atoms: CA_52  and  C_53 
REMARK   34  A    between atoms: CA_52  and  CB_55 
REMARK       I    between atoms: C_53  and  N_57 
REMARK   35  A    between atoms: CB_55  and  OG_56 
REMARK   36  A    between atoms: CA_58  and  C_59 
ROOT
ATOM      1  C   ASP d   1      19.564  10.603  -4.442  0.00  0.00     0.241 C 
ATOM      2  O   ASP d   1      19.880  11.818  -4.284  0.00  0.00    -0.271 OA
ATOM      3  N   VAL d   1      19.006   9.859  -3.498  0.00  0.00    -0.346 N 
ATOM      4  H32 VAL d   1      18.854   8.880  -3.633  0.00  0.00     0.163 HD
ENDROOT
BRANCH   3   5
ATOM      5  CA  VAL d   1      18.615  10.529  -2.237  0.00  0.00     0.092 C 
ATOM      6  H33 VAL d   1      19.225  11.439  -2.138  0.00  0.00     0.088 H 
BRANCH   5   7
ATOM      7  C   VAL d   1      18.951   9.602  -1.071  0.00  0.00     0.241 C 
ATOM      8  O   VAL d   1      18.794   8.399  -1.225  0.00  0.00    -0.271 OA
ATOM      9  N   ALA d   1      19.501  10.171   0.017  0.00  0.00    -0.346 N 
ATOM     10  H41 ALA d   1      19.921  11.073  -0.085  0.00  0.00     0.163 HD
BRANCH   9  11
ATOM     11  CA  ALA d   1      19.522   9.538   1.364  0.00  0.00     0.086 C 
ATOM     12  H42 ALA d   1      19.529   8.450   1.206  0.00  0.00     0.086 H 
BRANCH  11  13
ATOM     13  C   ALA d   1      18.304   9.865   2.262  0.00  0.00     0.240 C 
ATOM     14  O   ALA d   1      17.780  10.997   2.269  0.00  0.00    -0.271 OA
ATOM     15  N   THR d   1      17.872   8.853   3.019  0.00  0.00    -0.344 N 
ATOM     16  H46 THR d   1      18.219   7.937   2.819  0.00  0.00     0.163 HD
BRANCH  15  17
ATOM     17  CA  THR d   1      16.905   9.004   4.143  0.00  0.00     0.113 C 
ATOM     18  H47 THR d   1      16.586  10.056   4.181  0.00  0.00     0.091 H 
BRANCH  17  19
ATOM     19  C   THR d   1      17.606   8.691   5.439  0.00  0.00     0.243 C 
ATOM     20  O   THR d   1      18.404   7.788   5.524  0.00  0.00    -0.271 OA
ATOM     21  N   SER d   1      17.273   9.464   6.446  0.00  0.00    -0.344 N 
ATOM     22  H53 SER d   1      16.691  10.248   6.229  0.00  0.00     0.163 HD
BRANCH  21  23
ATOM     23  CA  SER d   1      17.665   9.307   7.888  0.00  0.00     0.109 C 
ATOM     24  H54 SER d   1      18.446   8.534   7.926  0.00  0.00     0.090 H 
BRANCH  23  25
ATOM     25  C   SER d   1      16.564   8.876   8.868  0.00  0.00     0.245 C 
ATOM     26  O   SER d   1      15.440   9.360   8.777  0.00  0.00    -0.271 OA
ATOM     27  N   PRO d   1      16.876   8.004   9.832  0.00  0.00    -0.336 N 
ATOM     28  CA  PRO d   1      15.779   7.703  10.832  0.00  0.00     0.098 C 
ATOM     29  CD  PRO d   1      18.117   7.222  10.072  0.00  0.00    -0.001 C 
ATOM     30  CB  PRO d   1      16.440   6.791  11.869  0.00  0.00    -0.035 C 
ATOM     31  H58 PRO d   1      14.951   7.181  10.329  0.00  0.00     0.089 H 
ATOM     32  CG  PRO d   1      18.048   6.891  11.590  0.00  0.00    -0.048 C 
ATOM     33  H59 PRO d   1      16.093   5.755  11.744  0.00  0.00     0.036 H 
ATOM     34  H60 PRO d   1      16.206   7.136  12.887  0.00  0.00     0.036 H 
ATOM     35  H61 PRO d   1      18.548   5.936  11.810  0.00  0.00     0.035 H 
ATOM     36  H62 PRO d   1      18.505   7.691  12.191  0.00  0.00     0.035 H 
ATOM     37  H63 PRO d   1      19.010   7.821   9.840  0.00  0.00     0.064 H 
ATOM     38  H64 PRO d   1      18.125   6.302   9.469  0.00  0.00     0.064 H 
BRANCH  28  39
ATOM     39  C   PRO d   1      15.231   8.936  11.524  0.00  0.00     0.196 C 
ATOM     40  O   PRO d   1      15.970   9.928  11.701  0.00  0.00    -0.646 OA
ATOM     41  OXT PRO d   1      14.047   8.968  11.942  0.00  0.00    -0.646 OA
ENDBRANCH  28  39
ENDBRANCH  23  25
BRANCH  23  42
ATOM     42  CB  SER d   1      18.267  10.638   8.373  0.00  0.00     0.044 C 
ATOM     43  H55 SER d   1      18.666  10.499   9.389  0.00  0.00     0.077 H 
ATOM     44  H56 SER d   1      17.475  11.401   8.391  0.00  0.00     0.077 H 
BRANCH  42  45
ATOM     45  OG  SER d   1      19.316  11.085   7.525  0.00  0.00    -0.398 OA
ATOM     46  H57 SER d   1      19.661  11.906   7.856  0.00  0.00     0.209 HD
ENDBRANCH  42  45
ENDBRANCH  23  42
ENDBRANCH  21  23
ENDBRANCH  17  19
BRANCH  17  47
ATOM     47  CB  THR d   1      15.619   8.135   3.905  0.00  0.00     0.060 C 
ATOM     48  H48 THR d   1      14.879   8.440   4.660  0.00  0.00     0.086 H 
BRANCH  47  49
ATOM     49  OG1 THR d   1      15.849   6.708   4.071  0.00  0.00    -0.393 OA
ATOM     50  H49 THR d   1      16.508   6.420   3.450  0.00  0.00     0.210 HD
ENDBRANCH  47  49
BRANCH  47  51
ATOM     51  CG2 THR d   1      14.993   8.405   2.477  0.00  0.00    -0.050 C 
ATOM     52  H50 THR d   1      14.097   7.781   2.346  0.00  0.00     0.031 H 
ATOM     53  H51 THR d   1      15.731   8.155   1.700  0.00  0.00     0.031 H 
ATOM     54  H52 THR d   1      14.716   9.466   2.393  0.00  0.00     0.031 H 
ENDBRANCH  47  51
ENDBRANCH  17  47
ENDBRANCH  15  17
ENDBRANCH  11  13
BRANCH  11  55
ATOM     55  CB  ALA d   1      20.791   9.917   2.114  0.00  0.00    -0.049 C 
ATOM     56  H43 ALA d   1      20.787   9.440   3.105  0.00  0.00     0.030 H 
ATOM     57  H44 ALA d   1      20.834  11.010   2.233  0.00  0.00     0.030 H 
ATOM     58  H45 ALA d   1      21.669   9.575   1.546  0.00  0.00     0.030 H 
ENDBRANCH  11  55
ENDBRANCH   9  11
ENDBRANCH   5   7
BRANCH   5  59
ATOM     59  CB  VAL d   1      17.125  10.971  -2.204  0.00  0.00    -0.033 C 
ATOM     60  H34 VAL d   1      16.877  11.457  -3.159  0.00  0.00     0.042 H 
BRANCH  59  61
ATOM     61  CG1 VAL d   1      16.302   9.741  -2.078  0.00  0.00    -0.071 C 
ATOM     62  H35 VAL d   1      15.237  10.014  -2.051  0.00  0.00     0.028 H 
ATOM     63  H36 VAL d   1      16.569   9.215  -1.150  0.00  0.00     0.028 H 
ATOM     64  H37 VAL d   1      16.491   9.084  -2.940  0.00  0.00     0.028 H 
ENDBRANCH  59  61
BRANCH  59  65
ATOM     65  CG2 VAL d   1      16.876  12.005  -1.072  0.00  0.00    -0.071 C 
ATOM     66  H38 VAL d   1      17.517  12.884  -1.231  0.00  0.00     0.028 H 
ATOM     67  H39 VAL d   1      17.114  11.549  -0.100  0.00  0.00     0.028 H 
ATOM     68  H40 VAL d   1      15.820  12.314  -1.083  0.00  0.00     0.028 H 
ENDBRANCH  59  65
ENDBRANCH   5  59
ENDBRANCH   3   5
BRANCH   1  69
ATOM     69  CA  ASP d   1      19.922   9.918  -5.688  0.00  0.00     0.098 C 
ATOM     70  H29 ASP d   1      19.509   8.899  -5.696  0.00  0.00     0.088 H 
BRANCH  69  71
ATOM     71  N   ASP d   1      19.344  10.674  -6.782  0.00  0.00    -0.346 N 
ATOM     72  C   ARG d   1      18.291  10.246  -7.481  0.00  0.00     0.241 C 
ATOM     73  O   ARG d   1      17.750   9.187  -7.249  0.00  0.00    -0.271 OA
ATOM     74  H28 ASP d   1      19.752  11.554  -7.023  0.00  0.00     0.163 HD
BRANCH  72  75
ATOM     75  CA  ARG d   1      17.715  11.166  -8.564  0.00  0.00     0.089 C 
ATOM     76  H16 ARG d   1      18.538  11.779  -8.959  0.00  0.00     0.087 H 
BRANCH  75  77
ATOM     77  N   ARG d   1      17.111  10.452  -9.708  0.00  0.00    -0.346 N 
ATOM     78  C   THR d   1      17.245  10.789 -11.019  0.00  0.00     0.243 C 
ATOM     79  O   THR d   1      17.908  11.739 -11.446  0.00  0.00    -0.271 OA
ATOM     80  H15 ARG d   1      16.553   9.649  -9.500  0.00  0.00     0.163 HD
BRANCH  78  81
ATOM     81  CA  THR d   1      16.566   9.884 -12.029  0.00  0.00     0.113 C 
ATOM     82  H9  THR d   1      15.688   9.437 -11.539  0.00  0.00     0.091 H 
BRANCH  81  83
ATOM     83  N   THR d   1      16.081  10.496 -13.315  0.00  0.00    -0.344 N 
ATOM     84  C   PRO d   1      14.974  10.085 -13.982  0.00  0.00     0.248 C 
ATOM     85  O   PRO d   1      14.124   9.345 -13.494  0.00  0.00    -0.271 OA
ATOM     86  H8  THR d   1      16.608  11.253 -13.702  0.00  0.00     0.163 HD
BRANCH  84  87
ATOM     87  CA  PRO d   1      14.720  10.589 -15.405  0.00  0.00     0.172 C 
ATOM     88  H4  PRO d   1      14.923  11.670 -15.410  0.00  0.00     0.098 H 
BRANCH  87  89
ATOM     89  N   PRO d   1      15.603   9.953 -16.389  0.00  0.00    -0.067 N 
ATOM     90  H1  PRO d   1      15.399  10.316 -17.307  0.00  0.00     0.275 HD
ATOM     91  H2  PRO d   1      15.453   8.956 -16.380  0.00  0.00     0.275 HD
ATOM     92  H3  PRO d   1      16.564  10.150 -16.156  0.00  0.00     0.275 HD
ENDBRANCH  87  89
BRANCH  87  93
ATOM     93  CB  PRO d   1      13.239  10.370 -15.865  0.00  0.00    -0.042 C 
ATOM     94  H5  PRO d   1      12.557  10.839 -15.141  0.00  0.00     0.030 H 
ATOM     95  H6  PRO d   1      13.028   9.292 -15.922  0.00  0.00     0.030 H 
ATOM     96  H7  PRO d   1      13.092  10.825 -16.856  0.00  0.00     0.030 H 
ENDBRANCH  87  93
ENDBRANCH  84  87
ENDBRANCH  81  83
BRANCH  81  97
ATOM     97  CB  THR d   1      17.594   8.783 -12.337  0.00  0.00     0.060 C 
ATOM     98  H10 THR d   1      18.282   9.126 -13.123  0.00  0.00     0.086 H 
BRANCH  97  99
ATOM     99  OG1 THR d   1      16.869   7.643 -12.779  0.00  0.00    -0.393 OA
ATOM    100  H11 THR d   1      17.477   6.941 -12.979  0.00  0.00     0.210 HD
ENDBRANCH  97  99
BRANCH  97 101
ATOM    101  CG2 THR d   1      18.375   8.412 -11.118  0.00  0.00    -0.050 C 
ATOM    102  H12 THR d   1      19.099   7.624 -11.372  0.00  0.00     0.031 H 
ATOM    103  H13 THR d   1      17.689   8.043 -10.341  0.00  0.00     0.031 H 
ATOM    104  H14 THR d   1      18.911   9.296 -10.743  0.00  0.00     0.031 H 
ENDBRANCH  97 101
ENDBRANCH  81  97
ENDBRANCH  78  81
ENDBRANCH  75  77
BRANCH  75 105
ATOM    105  CB  ARG d   1      16.691  12.094  -7.898  0.00  0.00    -0.036 C 
ATOM    106  H17 ARG d   1      17.138  12.460  -6.962  0.00  0.00     0.036 H 
ATOM    107  H18 ARG d   1      15.800  11.491  -7.668  0.00  0.00     0.036 H 
BRANCH 105 108
ATOM    108  CG  ARG d   1      16.220  13.328  -8.700  0.00  0.00    -0.048 C 
ATOM    109  H19 ARG d   1      15.446  13.030  -9.423  0.00  0.00     0.035 H 
ATOM    110  H20 ARG d   1      17.072  13.772  -9.236  0.00  0.00     0.035 H 
BRANCH 108 111
ATOM    111  CD  ARG d   1      15.636  14.356  -7.698  0.00  0.00     0.009 C 
ATOM    112  H21 ARG d   1      16.276  14.372  -6.804  0.00  0.00     0.064 H 
ATOM    113  H22 ARG d   1      14.623  14.032  -7.418  0.00  0.00     0.064 H 
BRANCH 111 114
ATOM    114  NE  ARG d   1      15.556  15.695  -8.225  0.00  0.00    -0.227 N 
ATOM    115  CZ  ARG d   1      14.505  16.107  -8.943  0.00  0.00     0.665 C 
ATOM    116  NH1 ARG d   1      13.480  15.252  -9.152  0.00  0.00    -0.235 N 
ATOM    117  NH2 ARG d   1      14.450  17.360  -9.438  0.00  0.00    -0.235 N 
ATOM    118  H24 ARG d   1      12.663  15.552  -9.702  0.00  0.00     0.174 HD
ATOM    119  H25 ARG d   1      13.516  14.300  -8.761  0.00  0.00     0.174 HD
ATOM    120  H26 ARG d   1      15.232  18.012  -9.278  0.00  0.00     0.174 HD
ATOM    121  H27 ARG d   1      13.626  17.666  -9.976  0.00  0.00     0.174 HD
ATOM    122  H23 ARG d   1      16.328  16.352  -8.044  0.00  0.00     0.177 HD
ENDBRANCH 111 114
ENDBRANCH 108 111
ENDBRANCH 105 108
ENDBRANCH  75 105
ENDBRANCH  72  75
ENDBRANCH  69  71
BRANCH  69 123
ATOM    123  CB  ASP d   1      21.453   9.840  -5.747  0.00  0.00     0.043 C 
ATOM    124  H30 ASP d   1      21.814   9.331  -4.841  0.00  0.00     0.052 H 
ATOM    125  H31 ASP d   1      21.856  10.863  -5.778  0.00  0.00     0.052 H 
BRANCH 123 126
ATOM    126  CG  ASP d   1      21.950   9.094  -6.944  0.00  0.00     0.175 C 
ATOM    127  OD1 ASP d   1      21.251   8.146  -7.374  0.00  0.00    -0.648 OA
ATOM    128  OD2 ASP d   1      23.051   9.438  -7.460  0.00  0.00    -0.648 OA
ENDBRANCH 123 126
ENDBRANCH  69 123
ENDBRANCH   1  69
TORSDOF 36
