REMARK  17 active torsions:
REMARK  status: ('A' for Active; 'I' for Inactive)
REMARK    1  A    between atoms: N_1  and  CA_2 
REMARK    2  A    between atoms: P_35  and  N_1 
REMARK    3  A    between atoms: CA_2  and  C_3 
REMARK    4  A    between atoms: CA_2  and  CB_5 
REMARK       I    between atoms: C_3  and  N0_9 
REMARK    5  A    between atoms: CB_5  and  CG_6 
REMARK    6  A    between atoms: CG_6  and  CD1_7 
REMARK    7  A    between atoms: CG_6  and  CD2_8 
REMARK    8  A    between atoms: N0_9  and  CA0_10 
REMARK    9  A    between atoms: CA0_10  and  C0_11 
REMARK   10  A    between atoms: CA0_10  and  CB0_13 
REMARK   11  A    between atoms: CB0_13  and  CG0_14 
REMARK   12  A    between atoms: O1_25  and  C1_24 
REMARK   13  A    between atoms: O1_25  and  P_35 
REMARK   14  A    between atoms: C2_26  and  O2_27 
REMARK   15  A    between atoms: C3_28  and  O3_29 
REMARK   16  A    between atoms: C4_30  and  O4_31 
REMARK   17  A    between atoms: C5_32  and  C6_34 
ROOT
ATOM      1  CA  RDF d   1      82.311  33.016  40.188  0.00  0.00     0.093 C 
ATOM      2  H2  RDF d   1      82.092  33.447  39.200  0.00  0.00     0.087 H 
ENDROOT
BRANCH   1   3
ATOM      3  N   RDF d   1      81.629  31.736  40.307  0.00  0.00    -0.312 N 
ATOM      4  H1  RDF d   1      81.064  31.517  41.103  0.00  0.00     0.166 HD
BRANCH   3   5
ATOM      5  P   RDF d   1      81.831  30.655  39.060  0.00  0.00     0.362 P 
ATOM      6  O1P RDF d   1      83.156  30.813  38.414  0.00  0.00    -0.630 OA
ATOM      7  O2P RDF d   1      80.537  30.676  38.251  0.00  0.00    -0.630 OA
BRANCH   5   8
ATOM      8  O1  RDF d   1      82.016  29.131  39.592  0.00  0.00    -0.261 OA
BRANCH   8   9
ATOM      9  C1  RDF d   1      83.065  28.816  40.503  0.00  0.00     0.170 C 
ATOM     10  C2  RDF d   1      82.637  27.761  41.510  0.00  0.00     0.110 C 
ATOM     11  C3  RDF d   1      82.408  26.451  40.749  0.00  0.00     0.092 C 
ATOM     12  H23 RDF d   1      81.712  28.066  42.020  0.00  0.00     0.094 H 
ATOM     13  C4  RDF d   1      83.730  26.069  40.097  0.00  0.00     0.087 C 
ATOM     14  H25 RDF d   1      81.652  26.622  39.968  0.00  0.00     0.091 H 
ATOM     15  C5  RDF d   1      83.999  27.139  39.045  0.00  0.00     0.065 C 
ATOM     16  H27 RDF d   1      84.528  26.087  40.854  0.00  0.00     0.091 H 
ATOM     17  O5  RDF d   1      84.159  28.382  39.716  0.00  0.00    -0.350 OA
ATOM     18  H29 RDF d   1      83.130  27.209  38.374  0.00  0.00     0.086 H 
ATOM     19  H22 RDF d   1      83.352  29.723  41.056  0.00  0.00     0.134 H 
BRANCH  10  20
ATOM     20  O2  RDF d   1      83.711  27.613  42.475  0.00  0.00    -0.388 OA
ATOM     21  H24 RDF d   1      83.862  28.444  42.910  0.00  0.00     0.210 HD
ENDBRANCH  10  20
BRANCH  11  22
ATOM     22  O3  RDF d   1      81.954  25.397  41.586  0.00  0.00    -0.390 OA
ATOM     23  H26 RDF d   1      81.829  24.612  41.065  0.00  0.00     0.210 HD
ENDBRANCH  11  22
BRANCH  13  24
ATOM     24  O4  RDF d   1      83.694  24.771  39.517  0.00  0.00    -0.390 OA
ATOM     25  H28 RDF d   1      83.503  24.129  40.191  0.00  0.00     0.210 HD
ENDBRANCH  13  24
BRANCH  15  26
ATOM     26  C6  RDF d   1      85.209  26.778  38.214  0.00  0.00    -0.050 C 
ATOM     27  H30 RDF d   1      85.385  27.562  37.463  0.00  0.00     0.031 H 
ATOM     28  H31 RDF d   1      85.033  25.818  37.708  0.00  0.00     0.031 H 
ATOM     29  H32 RDF d   1      86.090  26.692  38.867  0.00  0.00     0.031 H 
ENDBRANCH  15  26
ENDBRANCH   8   9
ENDBRANCH   5   8
ENDBRANCH   3   5
ENDBRANCH   1   3
BRANCH   1  30
ATOM     30  C   RDF d   1      83.785  32.915  40.334  0.00  0.00     0.241 C 
ATOM     31  O   RDF d   1      84.510  33.234  39.427  0.00  0.00    -0.271 OA
ATOM     32  N0  RDF d   1      84.283  32.452  41.454  0.00  0.00    -0.344 N 
ATOM     33  H12 RDF d   1      83.669  32.181  42.195  0.00  0.00     0.163 HD
BRANCH  32  34
ATOM     34  CA0 RDF d   1      85.741  32.327  41.631  0.00  0.00     0.100 C 
ATOM     35  H13 RDF d   1      86.246  32.295  40.654  0.00  0.00     0.090 H 
BRANCH  34  36
ATOM     36  C0  RDF d   1      85.971  31.014  42.354  0.00  0.00     0.197 C 
ATOM     37  O0  RDF d   1      84.988  30.531  42.998  0.00  0.00    -0.646 OA
ATOM     38  OXT RDF d   1      87.104  30.474  42.292  0.00  0.00    -0.646 OA
ENDBRANCH  34  36
BRANCH  34  39
ATOM     39  CB0 RDF d   1      86.238  33.581  42.415  0.00  0.00    -0.011 C 
ATOM     40  H14 RDF d   1      85.970  34.492  41.860  0.00  0.00     0.044 H 
ATOM     41  H15 RDF d   1      87.331  33.532  42.534  0.00  0.00     0.044 H 
BRANCH  39  42
ATOM     42  CG0 RDF d   1      85.580  33.607  43.781  0.00  0.00    -0.028 A 
ATOM     43  CD3 RDF d   1      84.310  34.058  44.098  0.00  0.00    -0.015 A 
ATOM     44  NE1 RDF d   1      84.066  33.864  45.425  0.00  0.00    -0.365 N 
ATOM     45  H16 RDF d   1      83.610  34.502  43.392  0.00  0.00     0.112 H 
ATOM     46  CE2 RDF d   1      85.164  33.288  45.971  0.00  0.00     0.042 A 
ATOM     47  H17 RDF d   1      83.200  34.112  45.924  0.00  0.00     0.165 HD
ATOM     48  CD4 RDF d   1      86.096  33.110  44.966  0.00  0.00    -0.002 A 
ATOM     49  CZ2 RDF d   1      85.483  32.891  47.270  0.00  0.00    -0.056 A 
ATOM     50  CE3 RDF d   1      87.341  32.553  45.239  0.00  0.00    -0.070 A 
ATOM     51  CZ3 RDF d   1      87.642  32.130  46.536  0.00  0.00    -0.082 A 
ATOM     52  H18 RDF d   1      88.075  32.447  44.448  0.00  0.00     0.084 H 
ATOM     53  CH2 RDF d   1      86.707  32.309  47.543  0.00  0.00    -0.081 A 
ATOM     54  H20 RDF d   1      88.598  31.666  46.752  0.00  0.00     0.083 H 
ATOM     55  H21 RDF d   1      86.937  31.990  48.553  0.00  0.00     0.083 H 
ATOM     56  H19 RDF d   1      84.767  33.040  48.070  0.00  0.00     0.086 H 
ENDBRANCH  39  42
ENDBRANCH  34  39
ENDBRANCH  32  34
ENDBRANCH   1  30
BRANCH   1  57
ATOM     57  CB  RDF d   1      81.741  33.900  41.263  0.00  0.00    -0.035 C 
ATOM     58  H3  RDF d   1      82.115  33.552  42.237  0.00  0.00     0.037 H 
ATOM     59  H4  RDF d   1      80.644  33.816  41.240  0.00  0.00     0.037 H 
BRANCH  57  60
ATOM     60  CG  RDF d   1      82.118  35.366  41.095  0.00  0.00    -0.059 C 
ATOM     61  H5  RDF d   1      83.188  35.474  41.325  0.00  0.00     0.038 H 
BRANCH  60  62
ATOM     62  CD1 RDF d   1      81.307  36.150  42.115  0.00  0.00    -0.073 C 
ATOM     63  H6  RDF d   1      81.547  37.220  42.030  0.00  0.00     0.028 H 
ATOM     64  H7  RDF d   1      81.553  35.798  43.128  0.00  0.00     0.028 H 
ATOM     65  H8  RDF d   1      80.234  35.999  41.925  0.00  0.00     0.028 H 
ENDBRANCH  60  62
BRANCH  60  66
ATOM     66  CD2 RDF d   1      81.888  35.932  39.687  0.00  0.00    -0.073 C 
ATOM     67  H9  RDF d   1      82.480  35.357  38.959  0.00  0.00     0.028 H 
ATOM     68  H10 RDF d   1      82.199  36.987  39.660  0.00  0.00     0.028 H 
ATOM     69  H11 RDF d   1      80.821  35.858  39.432  0.00  0.00     0.028 H 
ENDBRANCH  60  66
ENDBRANCH  57  60
ENDBRANCH   1  57
TORSDOF 17
