REMARK  6 active torsions:
REMARK  status: ('A' for Active; 'I' for Inactive)
REMARK    1  A    between atoms: C5_1  and  N5_2 
REMARK    2  A    between atoms: C4_3  and  O4_4 
REMARK    3  A    between atoms: C3_5  and  O3_6 
REMARK    4  A    between atoms: C2_7  and  O2_8 
REMARK    5  A    between atoms: C1_9  and  S6_10 
REMARK    6  A    between atoms: S6_10  and  C7_11 
ROOT
ATOM      1  C5  MSN d   1      31.274  66.316   9.122  0.00  0.00     0.141 C 
ATOM      2  C4  MSN d   1      32.778  66.671   9.114  0.00  0.00     0.091 C 
ATOM      3  C3  MSN d   1      33.098  67.192   7.693  0.00  0.00     0.088 C 
ATOM      4  C2  MSN d   1      31.707  67.520   7.112  0.00  0.00     0.076 C 
ATOM      5  C1  MSN d   1      30.892  66.350   7.665  0.00  0.00     0.047 C 
ATOM      6  H1  MSN d   1      30.703  67.072   9.681  0.00  0.00     0.090 H 
ATOM      7  H5  MSN d   1      32.954  67.486   9.831  0.00  0.00     0.090 H 
ATOM      8  H7  MSN d   1      33.740  68.084   7.733  0.00  0.00     0.091 H 
ATOM      9  H9  MSN d   1      31.331  68.477   7.502  0.00  0.00     0.088 H 
ATOM     10  H11 MSN d   1      31.166  65.417   7.151  0.00  0.00     0.064 H 
ENDROOT
BRANCH   5  11
ATOM     11  S6  MSN d   1      29.074  66.593   7.569  0.00  0.00    -0.164 SA
BRANCH  11  12
ATOM     12  C7  MSN d   1      28.925  66.032   5.885  0.00  0.00    -0.034 C 
ATOM     13  H12 MSN d   1      27.871  66.084   5.573  0.00  0.00     0.041 H 
ATOM     14  H13 MSN d   1      29.278  64.993   5.812  0.00  0.00     0.041 H 
ATOM     15  H14 MSN d   1      29.533  66.673   5.230  0.00  0.00     0.041 H 
ENDBRANCH  11  12
ENDBRANCH   5  11
BRANCH   1  16
ATOM     16  N5  MSN d   1      31.047  65.000   9.741  0.00  0.00    -0.071 N 
ATOM     17  H2  MSN d   1      31.318  65.034  10.711  0.00  0.00     0.274 HD
ATOM     18  H3  MSN d   1      31.597  64.304   9.262  0.00  0.00     0.274 HD
ATOM     19  H4  MSN d   1      30.070  64.761   9.673  0.00  0.00     0.274 HD
ENDBRANCH   1  16
BRANCH   4  20
ATOM     20  O2  MSN d   1      31.717  67.583   5.689  0.00  0.00    -0.392 OA
ATOM     21  H10 MSN d   1      32.321  68.260   5.407  0.00  0.00     0.210 HD
ENDBRANCH   4  20
BRANCH   2  22
ATOM     22  O4  MSN d   1      33.581  65.574   9.514  0.00  0.00    -0.391 OA
ATOM     23  H6  MSN d   1      34.496  65.830   9.497  0.00  0.00     0.210 HD
ENDBRANCH   2  22
BRANCH   3  24
ATOM     24  O3  MSN d   1      33.707  66.198   6.909  0.00  0.00    -0.390 OA
ATOM     25  H8  MSN d   1      33.891  66.546   6.045  0.00  0.00     0.210 HD
ENDBRANCH   3  24
TORSDOF 6
