REMARK  8 active torsions:
REMARK  status: ('A' for Active; 'I' for Inactive)
REMARK    1  A    between atoms: N1_1  and  C1'_9 
REMARK    2  A    between atoms: C2'_10  and  O2'_11 
REMARK    3  A    between atoms: C3'_12  and  O3'_15 
REMARK    4  A    between atoms: C4'_13  and  C5'_16 
REMARK    5  A    between atoms: C5'_16  and  O5'_17 
REMARK    6  A    between atoms: O5'_17  and  PA_18 
REMARK    7  A    between atoms: PA_18  and  O3A_21 
REMARK    8  A    between atoms: O3A_21  and  PB_22 
ROOT
ATOM      1  C1' UDP d   1      37.147  -0.724  11.756  0.00  0.00     0.141 C 
ATOM      2  C2' UDP d   1      36.693   0.406  12.671  0.00  0.00     0.105 C 
ATOM      3  C3' UDP d   1      37.852   0.481  13.624  0.00  0.00     0.091 C 
ATOM      4  C4' UDP d   1      39.050   0.133  12.735  0.00  0.00     0.089 C 
ATOM      5  O4' UDP d   1      38.551  -0.905  11.907  0.00  0.00    -0.353 OA
ATOM      6  H4  UDP d   1      36.946  -0.417  10.719  0.00  0.00     0.123 H 
ATOM      7  H5  UDP d   1      35.739   0.191  13.175  0.00  0.00     0.093 H 
ATOM      8  H7  UDP d   1      37.744  -0.284  14.407  0.00  0.00     0.091 H 
ATOM      9  H8  UDP d   1      39.323   1.009  12.128  0.00  0.00     0.090 H 
ENDROOT
BRANCH   4  10
ATOM     10  C5' UDP d   1      40.294  -0.326  13.486  0.00  0.00     0.058 C 
ATOM     11  H10 UDP d   1      40.921   0.543  13.733  0.00  0.00     0.079 H 
ATOM     12  H11 UDP d   1      40.868  -1.026  12.862  0.00  0.00     0.079 H 
BRANCH  10  13
ATOM     13  O5' UDP d   1      39.884  -0.969  14.669  0.00  0.00    -0.287 OA
BRANCH  13  14
ATOM     14  PA  UDP d   1      40.100  -0.294  16.120  0.00  0.00     0.418 P 
ATOM     15  O1A UDP d   1      40.109   1.190  16.024  0.00  0.00    -0.624 OA
ATOM     16  O2A UDP d   1      39.041  -0.711  17.068  0.00  0.00    -0.624 OA
BRANCH  14  17
ATOM     17  O3A UDP d   1      41.537  -0.831  16.605  0.00  0.00    -0.173 OA
BRANCH  17  18
ATOM     18  PB  UDP d   1      42.098  -2.271  16.150  0.00  0.00     0.431 P 
ATOM     19  O1B UDP d   1      40.980  -3.231  15.987  0.00  0.00    -0.616 OA
ATOM     20  O2B UDP d   1      42.786  -2.122  14.843  0.00  0.00    -0.616 OA
ATOM     21  O3B UDP d   1      43.037  -2.777  17.183  0.00  0.00    -0.616 OA
ENDBRANCH  17  18
ENDBRANCH  14  17
ENDBRANCH  13  14
ENDBRANCH  10  13
ENDBRANCH   4  10
BRANCH   3  22
ATOM     22  O3' UDP d   1      37.933   1.741  14.266  0.00  0.00    -0.390 OA
ATOM     23  H9  UDP d   1      38.703   1.763  14.823  0.00  0.00     0.210 HD
ENDBRANCH   3  22
BRANCH   2  24
ATOM     24  O2' UDP d   1      36.616   1.617  11.921  0.00  0.00    -0.388 OA
ATOM     25  H6  UDP d   1      36.333   2.323  12.490  0.00  0.00     0.210 HD
ENDBRANCH   2  24
BRANCH   1  26
ATOM     26  N1  UDP d   1      36.435  -2.005  11.987  0.00  0.00    -0.280 N 
ATOM     27  C2  UDP d   1      35.242  -2.171  11.344  0.00  0.00     0.331 A 
ATOM     28  N3  UDP d   1      34.544  -3.347  11.503  0.00  0.00    -0.275 N 
ATOM     29  O2  UDP d   1      34.796  -1.263  10.642  0.00  0.00    -0.246 OA
ATOM     30  C4  UDP d   1      35.023  -4.370  12.299  0.00  0.00     0.250 A 
ATOM     31  H1  UDP d   1      33.670  -3.464  11.031  0.00  0.00     0.173 HD
ATOM     32  C5  UDP d   1      36.246  -4.198  12.961  0.00  0.00    -0.002 A 
ATOM     33  O4  UDP d   1      34.338  -5.401  12.393  0.00  0.00    -0.268 OA
ATOM     34  C6  UDP d   1      36.914  -2.978  12.832  0.00  0.00    -0.008 A 
ATOM     35  H2  UDP d   1      36.668  -5.000  13.565  0.00  0.00     0.094 H 
ATOM     36  H3  UDP d   1      37.822  -2.796  13.405  0.00  0.00     0.112 H 
ENDBRANCH   1  26
TORSDOF 8
