REMARK  17 active torsions:
REMARK  status: ('A' for Active; 'I' for Inactive)
REMARK    1  A    between atoms: C3_3  and  C15_16 
REMARK    2  A    between atoms: C4_5  and  O4_29 
REMARK    3  A    between atoms: C6_7  and  C7_8 
REMARK    4  A    between atoms: C7_8  and  C8_9 
REMARK    5  A    between atoms: C7_8  and  C9_10 
REMARK    6  A    between atoms: C9_10  and  C10_11 
REMARK    7  A    between atoms: C10_11  and  C11_12 
REMARK    8  A    between atoms: C12_13  and  N12_26 
REMARK       I    between atoms: N12_26  and  C13_14 
REMARK    9  A    between atoms: C13_14  and  O14_27 
REMARK   10  A    between atoms: O14_27  and  C14_15 
REMARK   11  A    between atoms: C15_16  and  C16_17 
REMARK   12  A    between atoms: C16_17  and  C17_18 
REMARK   13  A    between atoms: C18_19  and  C19_20 
REMARK   14  A    between atoms: C20_21  and  C21_22 
REMARK   15  A    between atoms: C20_21  and  C22_23 
REMARK   16  A    between atoms: C22_23  and  C23_24 
REMARK   17  A    between atoms: C23_24  and  C24_25 
ROOT
ATOM      1  O1  NE6 d   1     -10.118  58.904   2.449  0.00  0.00    -0.279 OA
ATOM      2  C2  NE6 d   1     -10.627  60.198   2.451  0.00  0.00     0.305 A 
ATOM      3  C3  NE6 d   1     -12.118  60.321   2.549  0.00  0.00     0.123 A 
ATOM      4  O2  NE6 d   1      -9.878  61.175   2.456  0.00  0.00    -0.259 OA
ATOM      5  C4  NE6 d   1     -12.904  59.180   2.520  0.00  0.00     0.088 A 
ATOM      6  C5  NE6 d   1     -12.316  57.853   2.515  0.00  0.00    -0.021 A 
ATOM      7  C6  NE6 d   1     -10.961  57.729   2.448  0.00  0.00     0.063 A 
ATOM      8  H1  NE6 d   1     -12.949  56.968   2.564  0.00  0.00     0.091 H 
ENDROOT
BRANCH   3   9
ATOM      9  C15 NE6 d   1     -12.759  61.677   2.577  0.00  0.00     0.197 C 
ATOM     10  O15 NE6 d   1     -13.571  62.040   1.722  0.00  0.00    -0.287 OA
BRANCH   9  11
ATOM     11  C16 NE6 d   1     -12.390  62.594   3.750  0.00  0.00    -0.011 C 
ATOM     12  C18 NE6 d   1     -12.434  62.118   5.039  0.00  0.00    -0.073 C 
ATOM     13  H18 NE6 d   1     -12.736  61.078   5.156  0.00  0.00     0.084 H 
BRANCH  11  14
ATOM     14  C17 NE6 d   1     -11.999  63.987   3.296  0.00  0.00    -0.047 C 
ATOM     15  H15 NE6 d   1     -11.745  64.601   4.173  0.00  0.00     0.033 H 
ATOM     16  H16 NE6 d   1     -12.841  64.447   2.758  0.00  0.00     0.033 H 
ATOM     17  H17 NE6 d   1     -11.127  63.924   2.628  0.00  0.00     0.033 H 
ENDBRANCH  11  14
BRANCH  12  18
ATOM     18  C19 NE6 d   1     -12.123  62.843   6.274  0.00  0.00    -0.080 C 
ATOM     19  C20 NE6 d   1     -12.150  62.382   7.557  0.00  0.00    -0.084 C 
ATOM     20  H19 NE6 d   1     -11.833  63.885   6.151  0.00  0.00     0.083 H 
BRANCH  19  21
ATOM     21  C21 NE6 d   1     -12.507  60.984   7.994  0.00  0.00    -0.055 C 
ATOM     22  H20 NE6 d   1     -12.439  60.914   9.090  0.00  0.00     0.033 H 
ATOM     23  H21 NE6 d   1     -11.809  60.267   7.537  0.00  0.00     0.033 H 
ATOM     24  H22 NE6 d   1     -13.533  60.751   7.674  0.00  0.00     0.033 H 
ENDBRANCH  19  21
BRANCH  19  25
ATOM     25  C22 NE6 d   1     -11.782  63.331   8.698  0.00  0.00    -0.045 C 
ATOM     26  H23 NE6 d   1     -11.239  64.190   8.276  0.00  0.00     0.039 H 
ATOM     27  H24 NE6 d   1     -11.128  62.794   9.401  0.00  0.00     0.039 H 
BRANCH  25  28
ATOM     28  C23 NE6 d   1     -12.999  63.858   9.472  0.00  0.00    -0.065 C 
ATOM     29  H25 NE6 d   1     -13.543  63.009   9.912  0.00  0.00     0.032 H 
ATOM     30  H26 NE6 d   1     -13.661  64.398   8.780  0.00  0.00     0.032 H 
BRANCH  28  31
ATOM     31  C24 NE6 d   1     -12.566  64.789  10.569  0.00  0.00    -0.076 C 
ATOM     32  H27 NE6 d   1     -13.451  65.155  11.110  0.00  0.00     0.027 H 
ATOM     33  H28 NE6 d   1     -12.024  65.642  10.134  0.00  0.00     0.027 H 
ATOM     34  H29 NE6 d   1     -11.906  64.252  11.266  0.00  0.00     0.027 H 
ENDBRANCH  28  31
ENDBRANCH  25  28
ENDBRANCH  19  25
ENDBRANCH  12  18
ENDBRANCH   9  11
ENDBRANCH   3   9
BRANCH   5  35
ATOM     35  O4  NE6 d   1     -14.284  59.204   2.589  0.00  0.00    -0.359 OA
ATOM     36  H31 NE6 d   1     -14.584  60.105   2.587  0.00  0.00     0.217 HD
ENDBRANCH   5  35
BRANCH   7  37
ATOM     37  C7  NE6 d   1     -10.173  56.424   2.443  0.00  0.00    -0.010 C 
ATOM     38  H2  NE6 d   1      -9.130  56.660   2.184  0.00  0.00     0.049 H 
BRANCH  37  39
ATOM     39  C8  NE6 d   1     -10.718  55.417   1.410  0.00  0.00    -0.067 C 
ATOM     40  H3  NE6 d   1     -10.118  54.495   1.445  0.00  0.00     0.028 H 
ATOM     41  H4  NE6 d   1     -10.658  55.856   0.403  0.00  0.00     0.028 H 
ATOM     42  H5  NE6 d   1     -11.766  55.181   1.645  0.00  0.00     0.028 H 
ENDBRANCH  37  39
BRANCH  37  43
ATOM     43  C9  NE6 d   1     -10.198  55.740   3.841  0.00  0.00    -0.053 C 
ATOM     44  H6  NE6 d   1      -9.978  54.671   3.707  0.00  0.00     0.034 H 
ATOM     45  H7  NE6 d   1     -11.206  55.857   4.265  0.00  0.00     0.034 H 
BRANCH  43  46
ATOM     46  C10 NE6 d   1      -9.202  56.309   4.822  0.00  0.00    -0.048 C 
ATOM     47  H8  NE6 d   1      -9.362  57.396   4.876  0.00  0.00     0.038 H 
ATOM     48  H9  NE6 d   1      -8.192  56.106   4.437  0.00  0.00     0.038 H 
BRANCH  46  49
ATOM     49  C11 NE6 d   1      -9.287  55.754   6.226  0.00  0.00    -0.088 C 
ATOM     50  C12 NE6 d   1      -8.209  55.289   6.895  0.00  0.00    -0.021 C 
ATOM     51  H11 NE6 d   1      -7.227  55.314   6.424  0.00  0.00     0.111 H 
ATOM     52  H10 NE6 d   1     -10.258  55.728   6.719  0.00  0.00     0.079 H 
BRANCH  50  53
ATOM     53  N12 NE6 d   1      -8.346  54.781   8.177  0.00  0.00    -0.313 N 
ATOM     54  C13 NE6 d   1      -7.308  54.296   8.959  0.00  0.00     0.364 C 
ATOM     55  O13 NE6 d   1      -6.136  54.272   8.597  0.00  0.00    -0.238 OA
ATOM     56  H30 NE6 d   1      -9.266  54.763   8.569  0.00  0.00     0.170 HD
BRANCH  54  57
ATOM     57  O14 NE6 d   1      -7.680  53.926  10.240  0.00  0.00    -0.309 OA
BRANCH  57  58
ATOM     58  C14 NE6 d   1      -6.726  53.633  11.245  0.00  0.00     0.015 C 
ATOM     59  H12 NE6 d   1      -7.246  53.364  12.177  0.00  0.00     0.067 H 
ATOM     60  H13 NE6 d   1      -6.094  54.516  11.419  0.00  0.00     0.067 H 
ATOM     61  H14 NE6 d   1      -6.098  52.791  10.920  0.00  0.00     0.067 H 
ENDBRANCH  57  58
ENDBRANCH  54  57
ENDBRANCH  50  53
ENDBRANCH  46  49
ENDBRANCH  43  46
ENDBRANCH  37  43
ENDBRANCH   7  37
TORSDOF 17
