REMARK  3 active torsions:
REMARK  status: ('A' for Active; 'I' for Inactive)
REMARK    1  A    between atoms: CAF_7  and  CAB_8 
REMARK    2  A    between atoms: NAA_13  and  CAC_14 
REMARK    3  A    between atoms: CAI_19  and  OAQ_20 
ROOT
ATOM      1  CAB N24 d   1      13.290  19.380  51.292  0.00  0.00     0.090 C 
ATOM      2  SAD N24 d   1      12.216  20.754  50.883  0.00  0.00    -0.129 SA
ATOM      3  CAH N24 d   1      10.691  19.882  51.030  0.00  0.00     0.053 C 
ATOM      4  CAE N24 d   1      11.103  18.439  51.170  0.00  0.00     0.235 C 
ATOM      5  OAK N24 d   1      10.254  17.570  51.064  0.00  0.00    -0.272 OA
ATOM      6  NAA N24 d   1      12.417  18.229  51.404  0.00  0.00    -0.296 N 
ATOM      7  H5  N24 d   1      13.974  19.220  50.446  0.00  0.00     0.098 H 
ATOM      8  H6  N24 d   1      10.071  20.026  50.133  0.00  0.00     0.063 H 
ATOM      9  H7  N24 d   1      10.134  20.217  51.918  0.00  0.00     0.063 H 
ENDROOT
BRANCH   1  10
ATOM     10  CAF N24 d   1      14.154  19.571  52.516  0.00  0.00    -0.024 A 
ATOM     11  CAJ N24 d   1      13.609  19.504  53.809  0.00  0.00    -0.057 A 
ATOM     12  CAN N24 d   1      14.408  19.688  54.951  0.00  0.00     0.011 A 
ATOM     13  H1  N24 d   1      12.550  19.306  53.929  0.00  0.00     0.086 H 
ATOM     14 BRAR N24 d   1      13.616  19.604  56.688  0.00  0.00    -0.051 Br
ATOM     15  CAU N24 d   1      15.776  19.945  54.787  0.00  0.00    -0.066 A 
ATOM     16  CAT N24 d   1      16.330  20.012  53.505  0.00  0.00    -0.081 A 
ATOM     17  H2  N24 d   1      16.406  20.092  55.657  0.00  0.00     0.085 H 
ATOM     18  CAS N24 d   1      15.533  19.822  52.377  0.00  0.00    -0.074 A 
ATOM     19  H3  N24 d   1      17.389  20.213  53.387  0.00  0.00     0.083 H 
ATOM     20  H4  N24 d   1      15.976  19.868  51.389  0.00  0.00     0.084 H 
ENDBRANCH   1  10
BRANCH   6  21
ATOM     21  CAC N24 d   1      12.938  16.974  51.479  0.00  0.00     0.073 A 
ATOM     22  CAG N24 d   1      12.496  16.143  52.512  0.00  0.00    -0.033 A 
ATOM     23  CAM N24 d   1      12.956  14.841  52.640  0.00  0.00     0.036 A 
ATOM     24  H8  N24 d   1      11.778  16.524  53.229  0.00  0.00     0.089 H 
ATOM     25  CAO N24 d   1      13.883  14.371  51.725  0.00  0.00    -0.059 A 
ATOM     26 CL   N24 d   1      12.386  13.786  53.976  0.00  0.00    -0.084 Cl
ATOM     27  CAL N24 d   1      14.340  15.196  50.689  0.00  0.00    -0.047 A 
ATOM     28  H9  N24 d   1      14.258  13.357  51.811  0.00  0.00     0.086 H 
ATOM     29  CAI N24 d   1      13.872  16.498  50.555  0.00  0.00     0.092 A 
ATOM     30  H10 N24 d   1      15.068  14.814  49.983  0.00  0.00     0.087 H 
BRANCH  29  31
ATOM     31  OAQ N24 d   1      14.356  17.249  49.525  0.00  0.00    -0.358 OA
ATOM     32  H11 N24 d   1      13.957  18.111  49.548  0.00  0.00     0.217 HD
ENDBRANCH  29  31
ENDBRANCH   6  21
TORSDOF 3
