REMARK  5 active torsions:
REMARK  status: ('A' for Active; 'I' for Inactive)
REMARK    1  A    between atoms: N1_1  and  S2_2 
REMARK    2  A    between atoms: S2_2  and  C5_5 
REMARK    3  A    between atoms: C14_14  and  C18_18 
REMARK       I    between atoms: C18_18  and  N21_21 
REMARK    4  A    between atoms: N21_21  and  C23_23 
REMARK    5  A    between atoms: C24_24  and  C27_27 
ROOT
ATOM      1  C5  DY6 d   1      31.406   5.806  60.176  0.00  0.00     0.080 A 
ATOM      2  C10 DY6 d   1      31.706   5.366  58.903  0.00  0.00    -0.045 A 
ATOM      3  C11 DY6 d   1      30.179   6.355  60.483  0.00  0.00    -0.060 A 
ATOM      4  C14 DY6 d   1      30.731   5.471  57.930  0.00  0.00     0.033 A 
ATOM      5  C15 DY6 d   1      29.222   6.456  59.496  0.00  0.00    -0.081 A 
ATOM      6  C19 DY6 d   1      29.499   6.009  58.220  0.00  0.00    -0.068 A 
ATOM      7  H7  DY6 d   1      32.680   4.949  58.673  0.00  0.00     0.087 H 
ATOM      8  H8  DY6 d   1      29.970   6.703  61.488  0.00  0.00     0.085 H 
ATOM      9  H10 DY6 d   1      28.253   6.886  59.722  0.00  0.00     0.083 H 
ATOM     10  H13 DY6 d   1      28.744   6.082  57.445  0.00  0.00     0.085 H 
ENDROOT
BRANCH   1  11
ATOM     11  S2  DY6 d   1      32.635   5.708  61.462  0.00  0.00     0.261 S 
ATOM     12  O6  DY6 d   1      31.982   5.590  62.760  0.00  0.00    -0.200 OA
ATOM     13  O7  DY6 d   1      33.620   4.739  61.029  0.00  0.00    -0.200 OA
BRANCH  11  14
ATOM     14  N1  DY6 d   1      33.158   7.305  61.119  0.00  0.00    -0.302 N 
ATOM     15  C3  DY6 d   1      34.499   7.347  60.495  0.00  0.00     0.029 C 
ATOM     16  C8  DY6 d   1      35.055   8.715  60.394  0.00  0.00    -0.033 A 
ATOM     17  H1  DY6 d   1      34.426   6.924  59.482  0.00  0.00     0.072 H 
ATOM     18  H2  DY6 d   1      35.185   6.735  61.099  0.00  0.00     0.072 H 
ATOM     19  C12 DY6 d   1      34.777   9.643  61.374  0.00  0.00    -0.049 A 
ATOM     20  C13 DY6 d   1      35.848   9.044  59.321  0.00  0.00    -0.075 A 
ATOM     21  C9  DY6 d   1      33.922   9.293  62.542  0.00  0.00    -0.025 C 
ATOM     22  C16 DY6 d   1      35.300  10.912  61.278  0.00  0.00    -0.076 A 
ATOM     23  C4  DY6 d   1      32.826   8.322  62.163  0.00  0.00     0.009 C 
ATOM     24  H5  DY6 d   1      34.551   8.835  63.319  0.00  0.00     0.042 H 
ATOM     25  H6  DY6 d   1      33.463  10.212  62.936  0.00  0.00     0.042 H 
ATOM     26  H3  DY6 d   1      32.532   7.780  63.074  0.00  0.00     0.065 H 
ATOM     27  H4  DY6 d   1      31.973   8.911  61.795  0.00  0.00     0.065 H 
ATOM     28  C20 DY6 d   1      36.097  11.248  60.210  0.00  0.00    -0.082 A 
ATOM     29  H11 DY6 d   1      35.083  11.647  62.045  0.00  0.00     0.084 H 
ATOM     30  C17 DY6 d   1      36.368  10.314  59.234  0.00  0.00    -0.082 A 
ATOM     31  H14 DY6 d   1      36.512  12.247  60.136  0.00  0.00     0.083 H 
ATOM     32  H12 DY6 d   1      36.995  10.582  58.392  0.00  0.00     0.083 H 
ATOM     33  H9  DY6 d   1      36.061   8.311  58.552  0.00  0.00     0.084 H 
ENDBRANCH  11  14
ENDBRANCH   1  11
BRANCH   4  34
ATOM     34  C18 DY6 d   1      30.997   5.003  56.563  0.00  0.00     0.256 C 
ATOM     35  N21 DY6 d   1      30.511   5.834  55.586  0.00  0.00    -0.322 N 
ATOM     36  H15 DY6 d   1      30.014   6.657  55.859  0.00  0.00     0.169 HD
ATOM     37  O22 DY6 d   1      31.598   3.953  56.374  0.00  0.00    -0.267 OA
BRANCH  35  38
ATOM     38  C23 DY6 d   1      30.686   5.572  54.209  0.00  0.00     0.052 A 
ATOM     39  C24 DY6 d   1      30.013   6.341  53.282  0.00  0.00     0.067 A 
ATOM     40  C26 DY6 d   1      30.171   6.105  51.939  0.00  0.00    -0.064 A 
ATOM     41  C29 DY6 d   1      31.003   5.094  51.524  0.00  0.00    -0.082 A 
ATOM     42  H17 DY6 d   1      29.643   6.712  51.212  0.00  0.00     0.085 H 
ATOM     43  C28 DY6 d   1      31.676   4.324  52.443  0.00  0.00    -0.081 A 
ATOM     44  H19 DY6 d   1      31.130   4.902  50.465  0.00  0.00     0.083 H 
ATOM     45  C25 DY6 d   1      31.521   4.562  53.786  0.00  0.00    -0.056 A 
ATOM     46  H18 DY6 d   1      32.330   3.528  52.106  0.00  0.00     0.083 H 
ATOM     47  H16 DY6 d   1      32.054   3.957  54.511  0.00  0.00     0.086 H 
BRANCH  39  48
ATOM     48  C27 DY6 d   1      29.117   7.422  53.700  0.00  0.00     0.211 C 
ATOM     49  O30 DY6 d   1      28.626   7.348  54.856  0.00  0.00    -0.644 OA
ATOM     50  O31 DY6 d   1      28.916   8.330  52.851  0.00  0.00    -0.644 OA
ENDBRANCH  39  48
ENDBRANCH  35  38
ENDBRANCH   4  34
TORSDOF 5
