REMARK  4 active torsions:
REMARK  status: ('A' for Active; 'I' for Inactive)
REMARK    1  A    between atoms: C9_9  and  O8_10 
REMARK    2  A    between atoms: O8_10  and  C3_11 
REMARK    3  A    between atoms: C6_16  and  C18_19 
REMARK    4  A    between atoms: C18_19  and  C26_20 
ROOT
ATOM      1  N19 PZL d   1      49.394  66.211  23.546  0.00  0.00    -0.191 NA
ATOM      2  C16 PZL d   1      49.177  65.748  22.507  0.00  0.00     0.099 C 
ATOM      3  C13 PZL d   1      48.954  65.065  21.454  0.00  0.00     0.049 A 
ATOM      4  C12 PZL d   1      48.889  63.686  21.591  0.00  0.00    -0.042 A 
ATOM      5  C11 PZL d   1      48.616  62.902  20.485  0.00  0.00     0.038 A 
ATOM      6 CL15 PZL d   1      48.571  61.126  20.625  0.00  0.00    -0.084 Cl
ATOM      7  C10 PZL d   1      48.405  63.470  19.249  0.00  0.00    -0.029 A 
ATOM      8  C14 PZL d   1      48.737  65.652  20.209  0.00  0.00    -0.030 A 
ATOM      9  C9  PZL d   1      48.465  64.841  19.107  0.00  0.00     0.079 A 
ATOM     10  H1  PZL d   1      49.051  63.226  22.559  0.00  0.00     0.088 H 
ATOM     11  H2  PZL d   1      48.193  62.843  18.391  0.00  0.00     0.090 H 
ATOM     12  H3  PZL d   1      48.779  66.730  20.098  0.00  0.00     0.090 H 
ENDROOT
BRANCH   9  13
ATOM     13  O8  PZL d   1      48.211  65.376  17.864  0.00  0.00    -0.306 OA
BRANCH  13  14
ATOM     14  C3  PZL d   1      48.846  64.976  16.729  0.00  0.00     0.132 A 
ATOM     15  C4  PZL d   1      48.045  64.598  15.708  0.00  0.00     0.048 A 
ATOM     16 BR17 PZL d   1      46.214  64.682  16.097  0.00  0.00    -0.048 Br
ATOM     17  C1  PZL d   1      48.573  64.171  14.494  0.00  0.00    -0.063 A 
ATOM     18  C7  PZL d   1      49.953  64.146  14.346  0.00  0.00    -0.072 A 
ATOM     19  H5  PZL d   1      47.922  63.865  13.683  0.00  0.00     0.085 H 
ATOM     20  C6  PZL d   1      50.782  64.517  15.396  0.00  0.00    -0.011 A 
ATOM     21  H4  PZL d   1      50.387  63.834  13.403  0.00  0.00     0.084 H 
ATOM     22  C2  PZL d   1      50.219  64.958  16.596  0.00  0.00     0.158 A 
ATOM     23  F5  PZL d   1      50.946  65.345  17.641  0.00  0.00    -0.203 F 
BRANCH  20  24
ATOM     24  C18 PZL d   1      52.276  64.517  15.159  0.00  0.00     0.005 C 
ATOM     25  H6  PZL d   1      52.571  63.727  14.453  0.00  0.00     0.049 H 
ATOM     26  H7  PZL d   1      52.833  64.394  16.100  0.00  0.00     0.049 H 
BRANCH  24  27
ATOM     27  C26 PZL d   1      52.485  65.899  14.566  0.00  0.00     0.073 A 
ATOM     28  N27 PZL d   1      52.370  66.241  13.261  0.00  0.00    -0.176 NA
ATOM     29  N28 PZL d   1      52.587  67.625  13.112  0.00  0.00    -0.259 N 
ATOM     30  C24 PZL d   1      52.798  68.094  14.340  0.00  0.00     0.178 A 
ATOM     31  H8  PZL d   1      52.583  68.163  12.234  0.00  0.00     0.191 HD
ATOM     32  N20 PZL d   1      53.048  69.377  14.707  0.00  0.00    -0.130 NA
ATOM     33  C25 PZL d   1      52.736  67.068  15.253  0.00  0.00     0.041 A 
ATOM     34  N21 PZL d   1      53.250  69.630  16.092  0.00  0.00    -0.161 NA
ATOM     35  C22 PZL d   1      53.202  68.640  17.006  0.00  0.00     0.025 A 
ATOM     36  C23 PZL d   1      52.938  67.331  16.599  0.00  0.00    -0.049 A 
ATOM     37  H10 PZL d   1      53.368  68.860  18.054  0.00  0.00     0.117 H 
ATOM     38  H9  PZL d   1      52.892  66.529  17.327  0.00  0.00     0.087 H 
ENDBRANCH  24  27
ENDBRANCH  20  24
ENDBRANCH  13  14
ENDBRANCH   9  13
TORSDOF 4
