REMARK  5 active torsions:
REMARK  status: ('A' for Active; 'I' for Inactive)
REMARK    1  A    between atoms: C27_27  and  C7_7 
REMARK    2  A    between atoms: O25_25  and  C10_10 
REMARK    3  A    between atoms: C13_13  and  C27_27 
REMARK    4  A    between atoms: C16_16  and  C22_22 
REMARK    5  A    between atoms: C20_20  and  O25_25 
ROOT
ATOM      1  C16 PZ2 d   1      48.455  62.054  20.689  0.00  0.00    -0.058 A 
ATOM      2  C17 PZ2 d   1      48.694  62.949  21.714  0.00  0.00    -0.057 A 
ATOM      3  C18 PZ2 d   1      48.790  64.310  21.416  0.00  0.00     0.047 A 
ATOM      4  C19 PZ2 d   1      48.649  64.751  20.104  0.00  0.00    -0.030 A 
ATOM      5  C20 PZ2 d   1      48.416  63.839  19.095  0.00  0.00     0.078 A 
ATOM      6  C21 PZ2 d   1      48.314  62.491  19.385  0.00  0.00    -0.044 A 
ATOM      7  C23 PZ2 d   1      49.030  65.270  22.443  0.00  0.00     0.099 C 
ATOM      8  N24 PZ2 d   1      49.220  66.039  23.253  0.00  0.00    -0.191 NA
ATOM      9  H7  PZ2 d   1      48.805  62.600  22.734  0.00  0.00     0.086 H 
ATOM     10  H8  PZ2 d   1      48.722  65.808  19.875  0.00  0.00     0.090 H 
ATOM     11  H9  PZ2 d   1      48.124  61.778  18.591  0.00  0.00     0.088 H 
ENDROOT
BRANCH   1  12
ATOM     12  C22 PZ2 d   1      48.348  60.583  20.972  0.00  0.00    -0.051 C 
ATOM     13  H10 PZ2 d   1      48.483  60.406  22.049  0.00  0.00     0.033 H 
ATOM     14  H11 PZ2 d   1      49.126  60.044  20.412  0.00  0.00     0.033 H 
ATOM     15  H12 PZ2 d   1      47.356  60.221  20.662  0.00  0.00     0.033 H 
ENDBRANCH   1  12
BRANCH   5  16
ATOM     16  O25 PZ2 d   1      48.272  64.273  17.822  0.00  0.00    -0.309 OA
BRANCH  16  17
ATOM     17  C10 PZ2 d   1      49.317  64.245  16.950  0.00  0.00     0.093 A 
ATOM     18  C11 PZ2 d   1      49.038  64.251  15.588  0.00  0.00     0.045 A 
ATOM     19  C12 PZ2 d   1      50.064  64.225  14.658  0.00  0.00    -0.057 A 
ATOM     20 BR26 PZ2 d   1      47.237  64.287  15.006  0.00  0.00    -0.048 Br
ATOM     21  C13 PZ2 d   1      51.379  64.187  15.088  0.00  0.00    -0.051 A 
ATOM     22  H4  PZ2 d   1      49.838  64.234  13.598  0.00  0.00     0.086 H 
ATOM     23  C14 PZ2 d   1      51.663  64.188  16.446  0.00  0.00    -0.074 A 
ATOM     24  C15 PZ2 d   1      50.641  64.218  17.378  0.00  0.00    -0.048 A 
ATOM     25  H5  PZ2 d   1      52.694  64.165  16.779  0.00  0.00     0.084 H 
ATOM     26  H6  PZ2 d   1      50.871  64.221  18.437  0.00  0.00     0.087 H 
BRANCH  21  27
ATOM     27  C27 PZ2 d   1      52.497  64.173  14.075  0.00  0.00     0.002 C 
ATOM     28  H13 PZ2 d   1      53.444  63.883  14.553  0.00  0.00     0.049 H 
ATOM     29  H14 PZ2 d   1      52.267  63.470  13.260  0.00  0.00     0.049 H 
BRANCH  27  30
ATOM     30  C7  PZ2 d   1      52.587  65.582  13.544  0.00  0.00     0.073 A 
ATOM     31  C1  PZ2 d   1      52.779  66.777  14.355  0.00  0.00     0.041 A 
ATOM     32  C2  PZ2 d   1      52.954  67.038  15.728  0.00  0.00    -0.049 A 
ATOM     33  C6  PZ2 d   1      52.777  67.863  13.458  0.00  0.00     0.178 A 
ATOM     34  C3  PZ2 d   1      53.105  68.338  16.136  0.00  0.00     0.025 A 
ATOM     35  H1  PZ2 d   1      52.969  66.227  16.448  0.00  0.00     0.087 H 
ATOM     36  N4  PZ2 d   1      53.088  69.298  15.222  0.00  0.00    -0.161 NA
ATOM     37  H2  PZ2 d   1      53.236  68.576  17.185  0.00  0.00     0.117 H 
ATOM     38  N5  PZ2 d   1      52.941  69.082  13.950  0.00  0.00    -0.130 NA
ATOM     39  N8  PZ2 d   1      52.594  67.346  12.213  0.00  0.00    -0.259 N 
ATOM     40  N9  PZ2 d   1      52.476  65.958  12.300  0.00  0.00    -0.176 NA
ATOM     41  H3  PZ2 d   1      52.550  67.894  11.342  0.00  0.00     0.191 HD
ENDBRANCH  27  30
ENDBRANCH  21  27
ENDBRANCH  16  17
ENDBRANCH   5  16
TORSDOF 5
