REMARK  22 active torsions:
REMARK  status: ('A' for Active; 'I' for Inactive)
REMARK       I    between atoms: C26_4  and  N25_47 
REMARK    1  A    between atoms: O28_49  and  C26_4 
REMARK    2  A    between atoms: C16_11  and  C14_7 
REMARK       I    between atoms: C14_7  and  N13_34 
REMARK    3  A    between atoms: C18_9  and  C19_8 
REMARK    4  A    between atoms: C17_10  and  C18_9 
REMARK    5  A    between atoms: C16_11  and  C17_10 
REMARK    6  A    between atoms: N25_47  and  C16_11 
REMARK       I    between atoms: C7_12  and  N6_32 
REMARK    7  A    between atoms: C9_33  and  C7_12 
REMARK    8  A    between atoms: C5_13  and  C4_14 
REMARK    9  A    between atoms: C5_13  and  C45_22 
REMARK   10  A    between atoms: N6_32  and  C5_13 
REMARK   11  A    between atoms: C4_14  and  C3_15 
REMARK   12  A    between atoms: C3_15  and  C2_18 
REMARK   13  A    between atoms: C29_50  and  C30_16 
REMARK   14  A    between atoms: C2_18  and  C_20 
REMARK   15  A    between atoms: C_20  and  N_55 
REMARK   16  A    between atoms: C45_22  and  O46_21 
REMARK   17  A    between atoms: C45_22  and  C47_23 
REMARK   18  A    between atoms: C11_35  and  O36_36 
REMARK   19  A    between atoms: O36_36  and  C37_37 
REMARK   20  A    between atoms: C37_37  and  C38_38 
REMARK   21  A    between atoms: C41_41  and  C_91 
REMARK   22  A    between atoms: O28_49  and  C29_50 
ROOT
ATOM      1  C10 B3C d   1      16.944  37.394   4.797  0.00  0.00    -0.012 C 
ATOM      2  C12 B3C d   1      17.114  39.458   3.654  0.00  0.00     0.023 C 
ATOM      3  C14 B3C d   1      15.317  38.954   1.977  0.00  0.00     0.243 C 
ATOM      4  C9  B3C d   1      15.916  37.329   3.650  0.00  0.00     0.094 C 
ATOM      5  N13 B3C d   1      16.057  38.646   3.025  0.00  0.00    -0.334 N 
ATOM      6  C11 B3C d   1      17.986  38.429   4.370  0.00  0.00     0.056 C 
ATOM      7  O15 B3C d   1      14.482  38.195   1.537  0.00  0.00    -0.271 OA
ATOM      8  H1  B3C d   1      17.418  36.412   4.942  0.00  0.00     0.040 H 
ATOM      9  H2  B3C d   1      16.455  37.707   5.731  0.00  0.00     0.040 H 
ATOM     10  H3  B3C d   1      16.684  40.174   4.370  0.00  0.00     0.068 H 
ATOM     11  H4  B3C d   1      17.694  40.003   2.894  0.00  0.00     0.068 H 
ATOM     12  H30 B3C d   1      16.202  36.547   2.930  0.00  0.00     0.088 H 
ATOM     13  H31 B3C d   1      18.538  38.846   5.225  0.00  0.00     0.086 H 
ENDROOT
BRANCH   4  14
ATOM     14  C7  B3C d   1      14.539  37.013   4.141  0.00  0.00     0.241 C 
ATOM     15  O   B3C d   1      13.789  37.852   4.612  0.00  0.00    -0.271 OA
ATOM     16  N6  B3C d   1      14.156  35.739   4.073  0.00  0.00    -0.352 N 
ATOM     17  H29 B3C d   1      14.765  35.043   3.693  0.00  0.00     0.163 HD
BRANCH  16  18
ATOM     18  C5  B3C d   1      12.833  35.379   4.563  0.00  0.00     0.044 C 
ATOM     19  H13 B3C d   1      12.193  36.270   4.652  0.00  0.00     0.077 H 
BRANCH  18  20
ATOM     20  C4  B3C d   1      12.297  34.423   3.515  0.00  0.00    -0.043 C 
ATOM     21  H14 B3C d   1      11.422  33.897   3.924  0.00  0.00     0.036 H 
ATOM     22  H15 B3C d   1      13.079  33.692   3.263  0.00  0.00     0.036 H 
BRANCH  20  23
ATOM     23  C3  B3C d   1      11.886  35.163   2.255  0.00  0.00    -0.062 C 
ATOM     24  H16 B3C d   1      12.786  35.499   1.719  0.00  0.00     0.033 H 
ATOM     25  H17 B3C d   1      11.274  36.035   2.527  0.00  0.00     0.033 H 
BRANCH  23  26
ATOM     26  C2  B3C d   1      11.066  34.225   1.343  0.00  0.00    -0.043 C 
ATOM     27  H19 B3C d   1      10.041  34.112   1.726  0.00  0.00     0.035 H 
ATOM     28  H20 B3C d   1      11.543  33.236   1.275  0.00  0.00     0.035 H 
BRANCH  26  29
ATOM     29  C   B3C d   1      11.057  34.915  -0.028  0.00  0.00     0.080 C 
ATOM     30  H21 B3C d   1      10.765  34.186  -0.799  0.00  0.00     0.075 H 
ATOM     31  H22 B3C d   1      12.065  35.298  -0.248  0.00  0.00     0.075 H 
BRANCH  29  32
ATOM     32  N   B3C d   1      10.119  36.014  -0.033  0.00  0.00    -0.079 N 
ATOM     33  H47 B3C d   1      10.125  36.456  -0.939  0.00  0.00     0.274 HD
ATOM     34  H48 B3C d   1      10.384  36.685   0.670  0.00  0.00     0.274 HD
ATOM     35  H49 B3C d   1       9.194  35.667   0.166  0.00  0.00     0.274 HD
ENDBRANCH  29  32
ENDBRANCH  26  29
ENDBRANCH  23  26
ENDBRANCH  20  23
ENDBRANCH  18  20
BRANCH  18  36
ATOM     36  C45 B3C d   1      12.918  34.670   5.910  0.00  0.00     0.118 C 
ATOM     37  H24 B3C d   1      13.660  33.864   5.812  0.00  0.00     0.099 H 
BRANCH  36  38
ATOM     38  O46 B3C d   1      11.889  34.143   6.347  0.00  0.00    -0.385 OA
ATOM     39  H23 B3C d   1      11.589  33.482   5.735  0.00  0.00     0.210 HD
ENDBRANCH  36  38
BRANCH  36  40
ATOM     40  C47 B3C d   1      13.439  35.684   6.849  0.00  0.00     0.177 A 
ATOM     41  O51 B3C d   1      12.615  36.535   7.428  0.00  0.00    -0.291 OA
ATOM     42  C50 B3C d   1      13.542  37.327   8.141  0.00  0.00     0.106 A 
ATOM     43  C52 B3C d   1      13.203  38.392   8.975  0.00  0.00    -0.048 A 
ATOM     44  C49 B3C d   1      14.844  36.908   7.945  0.00  0.00     0.093 A 
ATOM     45  C53 B3C d   1      14.245  39.051   9.607  0.00  0.00    -0.080 A 
ATOM     46  H25 B3C d   1      12.171  38.691   9.122  0.00  0.00     0.087 H 
ATOM     47  C54 B3C d   1      15.569  38.662   9.430  0.00  0.00    -0.081 A 
ATOM     48  H26 B3C d   1      14.023  39.891  10.256  0.00  0.00     0.083 H 
ATOM     49  C55 B3C d   1      15.882  37.584   8.611  0.00  0.00    -0.052 A 
ATOM     50  H27 B3C d   1      16.361  39.203   9.934  0.00  0.00     0.083 H 
ATOM     51  H28 B3C d   1      16.912  37.269   8.487  0.00  0.00     0.087 H 
ATOM     52  N48 B3C d   1      14.779  35.813   7.089  0.00  0.00    -0.223 NA
ENDBRANCH  36  40
ENDBRANCH  18  36
ENDBRANCH  16  18
ENDBRANCH   4  14
BRANCH   6  53
ATOM     53  O36 B3C d   1      18.876  37.887   3.390  0.00  0.00    -0.380 OA
BRANCH  53  54
ATOM     54  C37 B3C d   1      19.896  37.078   3.936  0.00  0.00     0.044 C 
ATOM     55  H32 B3C d   1      19.424  36.334   4.594  0.00  0.00     0.081 H 
ATOM     56  H33 B3C d   1      20.560  37.723   4.530  0.00  0.00     0.081 H 
BRANCH  54  57
ATOM     57  C38 B3C d   1      20.741  36.341   2.932  0.00  0.00    -0.035 A 
ATOM     58  C44 B3C d   1      22.082  36.692   2.775  0.00  0.00    -0.074 A 
ATOM     59  C43 B3C d   1      22.869  35.976   1.867  0.00  0.00    -0.077 A 
ATOM     60  H34 B3C d   1      22.508  37.508   3.348  0.00  0.00     0.084 H 
ATOM     61  C41 B3C d   1      22.282  34.952   1.126  0.00  0.00    -0.062 A 
ATOM     62  H35 B3C d   1      23.919  36.214   1.742  0.00  0.00     0.084 H 
ATOM     63  C40 B3C d   1      20.961  34.617   1.288  0.00  0.00    -0.077 A 
ATOM     64  C39 B3C d   1      20.195  35.304   2.208  0.00  0.00    -0.074 A 
ATOM     65  H36 B3C d   1      20.523  33.820   0.699  0.00  0.00     0.084 H 
ATOM     66  H37 B3C d   1      19.159  35.026   2.362  0.00  0.00     0.084 H 
BRANCH  61  67
ATOM     67  C   B3C d   1      23.126  34.187   0.113  0.00  0.00    -0.051 C 
ATOM     68  H50 B3C d   1      24.152  34.585   0.115  0.00  0.00     0.033 H 
ATOM     69  H51 B3C d   1      22.690  34.303  -0.890  0.00  0.00     0.033 H 
ATOM     70  H52 B3C d   1      23.146  33.120   0.383  0.00  0.00     0.033 H 
ENDBRANCH  61  67
ENDBRANCH  54  57
ENDBRANCH  53  54
ENDBRANCH   6  53
BRANCH   3  71
ATOM     71  C16 B3C d   1      15.503  40.293   1.303  0.00  0.00     0.092 C 
ATOM     72  H12 B3C d   1      15.967  41.049   1.953  0.00  0.00     0.087 H 
BRANCH  71  73
ATOM     73  C17 B3C d   1      16.322  39.967   0.077  0.00  0.00    -0.034 C 
ATOM     74  H10 B3C d   1      16.736  38.957   0.211  0.00  0.00     0.037 H 
ATOM     75  H11 B3C d   1      15.644  39.974  -0.789  0.00  0.00     0.037 H 
BRANCH  73  76
ATOM     76  C18 B3C d   1      17.483  40.905  -0.237  0.00  0.00    -0.039 C 
ATOM     77  H8  B3C d   1      17.186  41.604  -1.033  0.00  0.00     0.040 H 
ATOM     78  H9  B3C d   1      17.753  41.471   0.666  0.00  0.00     0.040 H 
BRANCH  76  79
ATOM     79  C19 B3C d   1      18.674  40.088  -0.698  0.00  0.00    -0.058 A 
ATOM     80  C24 B3C d   1      18.901  39.828  -2.044  0.00  0.00    -0.077 A 
ATOM     81  C23 B3C d   1      19.999  39.091  -2.463  0.00  0.00    -0.082 A 
ATOM     82  H6  B3C d   1      18.205  40.209  -2.783  0.00  0.00     0.084 H 
ATOM     83  C22 B3C d   1      20.866  38.633  -1.480  0.00  0.00    -0.083 A 
ATOM     84  H7  B3C d   1      20.173  38.882  -3.512  0.00  0.00     0.083 H 
ATOM     85  C21 B3C d   1      20.654  38.876  -0.132  0.00  0.00    -0.082 A 
ATOM     86  H38 B3C d   1      21.740  38.065  -1.778  0.00  0.00     0.083 H 
ATOM     87  C20 B3C d   1      19.553  39.615   0.264  0.00  0.00    -0.077 A 
ATOM     88  H5  B3C d   1      21.346  38.490   0.607  0.00  0.00     0.083 H 
ATOM     89  H39 B3C d   1      19.380  39.822   1.314  0.00  0.00     0.084 H 
ENDBRANCH  76  79
ENDBRANCH  73  76
ENDBRANCH  71  73
BRANCH  71  90
ATOM     90  N25 B3C d   1      14.196  40.692   0.811  0.00  0.00    -0.324 N 
ATOM     91  C26 B3C d   1      13.440  41.592   1.434  0.00  0.00     0.361 C 
ATOM     92  O27 B3C d   1      13.785  42.164   2.467  0.00  0.00    -0.238 OA
ATOM     93  H40 B3C d   1      13.851  40.274  -0.029  0.00  0.00     0.165 HD
BRANCH  91  94
ATOM     94  O28 B3C d   1      12.149  41.923   0.895  0.00  0.00    -0.299 OA
BRANCH  94  95
ATOM     95  C29 B3C d   1      12.041  43.073   0.060  0.00  0.00     0.054 C 
ATOM     96  H41 B3C d   1      12.999  43.613   0.046  0.00  0.00     0.082 H 
ATOM     97  H42 B3C d   1      11.778  42.766  -0.963  0.00  0.00     0.082 H 
BRANCH  95  98
ATOM     98  C30 B3C d   1      10.968  43.961   0.613  0.00  0.00    -0.034 A 
ATOM     99  C31 B3C d   1      10.699  45.184   0.014  0.00  0.00    -0.075 A 
ATOM    100  C32 B3C d   1       9.702  46.002   0.524  0.00  0.00    -0.082 A 
ATOM    101  H18 B3C d   1      11.268  45.500  -0.853  0.00  0.00     0.084 H 
ATOM    102  C33 B3C d   1       8.977  45.599   1.637  0.00  0.00    -0.083 A 
ATOM    103  H46 B3C d   1       9.489  46.955   0.054  0.00  0.00     0.083 H 
ATOM    104  C34 B3C d   1       9.236  44.371   2.235  0.00  0.00    -0.082 A 
ATOM    105  H45 B3C d   1       8.206  46.244   2.042  0.00  0.00     0.083 H 
ATOM    106  C35 B3C d   1      10.236  43.549   1.715  0.00  0.00    -0.075 A 
ATOM    107  H44 B3C d   1       8.665  44.054   3.100  0.00  0.00     0.083 H 
ATOM    108  H43 B3C d   1      10.440  42.588   2.173  0.00  0.00     0.084 H 
ENDBRANCH  95  98
ENDBRANCH  94  95
ENDBRANCH  91  94
ENDBRANCH  71  90
ENDBRANCH   3  71
TORSDOF 22
