REMARK  2 active torsions:
REMARK  status: ('A' for Active; 'I' for Inactive)
REMARK    1  A    between atoms: C2_6  and  O9_7 
REMARK    2  A    between atoms: C6_9  and  N7_10 
ROOT
ATOM      1 BR   JFD d   1      18.772   2.449  28.817  0.00  0.00    -0.078 Br
ATOM      2  C5  JFD d   1      17.092   2.499  29.797  0.00  0.00     0.117 A 
ATOM      3  C4  JFD d   1      16.442   3.834  30.099  0.00  0.00     0.173 A 
ATOM      4  O8  JFD d   1      16.969   4.984  29.731  0.00  0.00    -0.176 OA
ATOM      5  N3  JFD d   1      15.250   3.918  30.839  0.00  0.00    -0.322 N 
ATOM      6  C2  JFD d   1      14.552   2.682  31.287  0.00  0.00     0.264 A 
ATOM      7  N1  JFD d   1      15.117   1.335  31.016  0.00  0.00    -0.001 N 
ATOM      8  C6  JFD d   1      16.378   1.245  30.275  0.00  0.00     0.275 A 
ATOM      9  H1  JFD d   1      17.652   2.542  30.743  0.00  0.00     0.076 H 
ATOM     10  H2  JFD d   1      14.868   4.814  31.066  0.00  0.00     0.165 HD
ATOM     11  H3  JFD d   1      14.000   2.634  30.337  0.00  0.00     0.166 H 
ATOM     12  H5  JFD d   1      14.426   0.822  30.492  0.00  0.00     0.285 HD
ATOM     13  H6  JFD d   1      15.263   0.888  31.908  0.00  0.00     0.285 HD
ATOM     14  H7  JFD d   1      15.836   1.194  29.319  0.00  0.00     0.133 H 
ENDROOT
BRANCH   8  15
ATOM     15  N7  JFD d   1      16.896  -0.054  30.069  0.00  0.00    -0.048 N 
ATOM     16  H8  JFD d   1      17.759   0.007  29.552  0.00  0.00     0.276 HD
ATOM     17  H9  JFD d   1      16.230  -0.603  29.548  0.00  0.00     0.276 HD
ATOM     18  H10 JFD d   1      17.068  -0.492  30.960  0.00  0.00     0.276 HD
ENDBRANCH   8  15
BRANCH   6  19
ATOM     19  O9  JFD d   1      13.393   2.848  31.967  0.00  0.00    -0.354 OA
ATOM     20  H4  JFD d   1      12.770   3.312  31.420  0.00  0.00     0.214 HD
ENDBRANCH   6  19
TORSDOF 2
