REMARK  24 active torsions:
REMARK  status: ('A' for Active; 'I' for Inactive)
REMARK    1  A    between atoms: C27_5  and  C28_4 
REMARK    2  A    between atoms: C28_4  and  C29_39 
REMARK    3  A    between atoms: C26_6  and  C27_5 
REMARK    4  A    between atoms: C25_7  and  C26_6 
REMARK    5  A    between atoms: C25_7  and  C30_22 
REMARK    6  A    between atoms: N4_38  and  C25_7 
REMARK    7  A    between atoms: C15_16  and  C24_8 
REMARK       I    between atoms: C24_8  and  N4_38 
REMARK    8  A    between atoms: C5_19  and  C14_11 
REMARK       I    between atoms: C14_11  and  N3_34 
REMARK    9  A    between atoms: C17_14  and  C18_13 
REMARK   10  A    between atoms: C16_15  and  C17_14 
REMARK   11  A    between atoms: C15_16  and  C16_15 
REMARK   12  A    between atoms: N3_34  and  C15_16 
REMARK   13  A    between atoms: C7_18  and  C8_17 
REMARK   14  A    between atoms: O2_27  and  C7_18 
REMARK   15  A    between atoms: C5_19  and  C4_20 
REMARK   16  A    between atoms: N2_30  and  C5_19 
REMARK   17  A    between atoms: C4_20  and  C3_21 
REMARK   18  A    between atoms: C3_21  and  C2_24 
REMARK   19  A    between atoms: C30_22  and  C31_23 
REMARK   20  A    between atoms: C30_22  and  O5_40 
REMARK   21  A    between atoms: C2_24  and  C1_31 
REMARK   22  A    between atoms: C6_28  and  O2_27 
REMARK       I    between atoms: C6_28  and  N2_30 
REMARK   23  A    between atoms: C1_31  and  N1_32 
REMARK   24  A    between atoms: C29_39  and  N5_49 
ROOT
ATOM      1  C15 B4C d   1      16.048  37.614   4.164  0.00  0.00     0.089 C 
ATOM      2  H18 B4C d   1      16.402  36.899   3.407  0.00  0.00     0.087 H 
ENDROOT
BRANCH   1   3
ATOM      3  C24 B4C d   1      14.633  37.265   4.577  0.00  0.00     0.240 C 
ATOM      4  O4  B4C d   1      13.839  38.114   4.989  0.00  0.00    -0.271 OA
ATOM      5  N4  B4C d   1      14.346  35.982   4.455  0.00  0.00    -0.352 N 
ATOM      6  H40 B4C d   1      15.042  35.349   4.117  0.00  0.00     0.163 HD
BRANCH   5   7
ATOM      7  C25 B4C d   1      13.007  35.473   4.813  0.00  0.00     0.044 C 
ATOM      8  H10 B4C d   1      12.321  36.320   4.959  0.00  0.00     0.077 H 
BRANCH   7   9
ATOM      9  C26 B4C d   1      12.465  34.555   3.707  0.00  0.00    -0.043 C 
ATOM     10  H8  B4C d   1      13.236  33.814   3.448  0.00  0.00     0.036 H 
ATOM     11  H9  B4C d   1      11.569  34.037   4.079  0.00  0.00     0.036 H 
BRANCH   9  12
ATOM     12  C27 B4C d   1      12.097  35.346   2.456  0.00  0.00    -0.062 C 
ATOM     13  H6  B4C d   1      11.404  36.156   2.727  0.00  0.00     0.033 H 
ATOM     14  H7  B4C d   1      13.008  35.775   2.014  0.00  0.00     0.033 H 
BRANCH  12  15
ATOM     15  C28 B4C d   1      11.428  34.425   1.442  0.00  0.00    -0.043 C 
ATOM     16  H4  B4C d   1      10.439  34.134   1.827  0.00  0.00     0.035 H 
ATOM     17  H5  B4C d   1      12.051  33.527   1.314  0.00  0.00     0.035 H 
BRANCH  15  18
ATOM     18  C29 B4C d   1      11.248  35.097   0.080  0.00  0.00     0.080 C 
ATOM     19  H41 B4C d   1      10.610  34.461  -0.552  0.00  0.00     0.075 H 
ATOM     20  H42 B4C d   1      12.233  35.215  -0.395  0.00  0.00     0.075 H 
BRANCH  18  21
ATOM     21  N5  B4C d   1      10.626  36.409   0.214  0.00  0.00    -0.079 N 
ATOM     22  H48 B4C d   1      10.521  36.826  -0.698  0.00  0.00     0.274 HD
ATOM     23  H49 B4C d   1      11.207  36.999   0.788  0.00  0.00     0.274 HD
ATOM     24  H50 B4C d   1       9.720  36.309   0.644  0.00  0.00     0.274 HD
ENDBRANCH  18  21
ENDBRANCH  15  18
ENDBRANCH  12  15
ENDBRANCH   9  12
ENDBRANCH   7   9
BRANCH   7  25
ATOM     25  C30 B4C d   1      13.111  34.635   6.136  0.00  0.00     0.118 C 
ATOM     26  H26 B4C d   1      13.774  33.768   6.002  0.00  0.00     0.099 H 
BRANCH  25  27
ATOM     27  C31 B4C d   1      13.650  35.593   7.164  0.00  0.00     0.177 A 
ATOM     28  O6  B4C d   1      12.835  36.535   7.685  0.00  0.00    -0.291 OA
ATOM     29  C37 B4C d   1      13.609  37.255   8.536  0.00  0.00     0.106 A 
ATOM     30  C36 B4C d   1      13.294  38.333   9.365  0.00  0.00    -0.048 A 
ATOM     31  C32 B4C d   1      14.890  36.735   8.477  0.00  0.00     0.093 A 
ATOM     32  C35 B4C d   1      14.275  38.920  10.153  0.00  0.00    -0.080 A 
ATOM     33  H44 B4C d   1      12.279  38.713   9.394  0.00  0.00     0.087 H 
ATOM     34  C34 B4C d   1      15.565  38.409  10.105  0.00  0.00    -0.081 A 
ATOM     35  H45 B4C d   1      14.038  39.762  10.794  0.00  0.00     0.083 H 
ATOM     36  C33 B4C d   1      15.863  37.332   9.266  0.00  0.00    -0.052 A 
ATOM     37  H46 B4C d   1      16.343  38.847  10.720  0.00  0.00     0.083 H 
ATOM     38  H47 B4C d   1      16.878  36.954   9.231  0.00  0.00     0.087 H 
ATOM     39  N6  B4C d   1      14.902  35.692   7.610  0.00  0.00    -0.223 NA
ENDBRANCH  25  27
BRANCH  25  40
ATOM     40  O5  B4C d   1      11.977  34.264   6.520  0.00  0.00    -0.385 OA
ATOM     41  H43 B4C d   1      11.613  33.656   5.887  0.00  0.00     0.210 HD
ENDBRANCH  25  40
ENDBRANCH   7  25
ENDBRANCH   5   7
ENDBRANCH   1   3
BRANCH   1  42
ATOM     42  C16 B4C d   1      16.967  37.544   5.418  0.00  0.00    -0.034 C 
ATOM     43  H16 B4C d   1      16.476  38.058   6.258  0.00  0.00     0.037 H 
ATOM     44  H17 B4C d   1      17.140  36.491   5.684  0.00  0.00     0.037 H 
BRANCH  42  45
ATOM     45  C17 B4C d   1      18.299  38.215   5.127  0.00  0.00    -0.039 C 
ATOM     46  H14 B4C d   1      18.123  39.278   4.905  0.00  0.00     0.040 H 
ATOM     47  H15 B4C d   1      18.945  38.127   6.013  0.00  0.00     0.040 H 
BRANCH  45  48
ATOM     48  C18 B4C d   1      18.990  37.580   3.955  0.00  0.00    -0.058 A 
ATOM     49  C23 B4C d   1      19.379  36.242   4.017  0.00  0.00    -0.077 A 
ATOM     50  C22 B4C d   1      20.025  35.665   2.925  0.00  0.00    -0.082 A 
ATOM     51  H11 B4C d   1      19.181  35.656   4.907  0.00  0.00     0.084 H 
ATOM     52  C21 B4C d   1      20.323  36.409   1.787  0.00  0.00    -0.083 A 
ATOM     53  H39 B4C d   1      20.300  34.617   2.963  0.00  0.00     0.083 H 
ATOM     54  C20 B4C d   1      19.940  37.746   1.731  0.00  0.00    -0.082 A 
ATOM     55  H3  B4C d   1      20.847  35.953   0.955  0.00  0.00     0.083 H 
ATOM     56  C19 B4C d   1      19.284  38.327   2.812  0.00  0.00    -0.077 A 
ATOM     57  H38 B4C d   1      20.153  38.334   0.846  0.00  0.00     0.083 H 
ATOM     58  H13 B4C d   1      18.998  39.372   2.767  0.00  0.00     0.084 H 
ENDBRANCH  45  48
ENDBRANCH  42  45
ENDBRANCH   1  42
BRANCH   1  59
ATOM     59  N3  B4C d   1      16.066  38.993   3.594  0.00  0.00    -0.346 N 
ATOM     60  C14 B4C d   1      15.523  39.224   2.432  0.00  0.00     0.241 C 
ATOM     61  O3  B4C d   1      14.986  38.357   1.746  0.00  0.00    -0.271 OA
ATOM     62  H37 B4C d   1      16.494  39.739   4.103  0.00  0.00     0.163 HD
BRANCH  60  63
ATOM     63  C5  B4C d   1      15.630  40.666   1.946  0.00  0.00     0.091 C 
ATOM     64  H21 B4C d   1      16.076  41.308   2.720  0.00  0.00     0.087 H 
BRANCH  63  65
ATOM     65  C4  B4C d   1      14.273  41.216   1.532  0.00  0.00    -0.038 C 
ATOM     66  H22 B4C d   1      13.860  40.568   0.745  0.00  0.00     0.036 H 
ATOM     67  H23 B4C d   1      14.416  42.231   1.133  0.00  0.00     0.036 H 
BRANCH  65  68
ATOM     68  C3  B4C d   1      13.268  41.285   2.677  0.00  0.00    -0.061 C 
ATOM     69  H24 B4C d   1      13.815  41.366   3.628  0.00  0.00     0.033 H 
ATOM     70  H25 B4C d   1      12.664  40.366   2.679  0.00  0.00     0.033 H 
BRANCH  68  71
ATOM     71  C2  B4C d   1      12.344  42.483   2.534  0.00  0.00    -0.043 C 
ATOM     72  H27 B4C d   1      11.871  42.466   1.541  0.00  0.00     0.035 H 
ATOM     73  H28 B4C d   1      12.924  43.411   2.648  0.00  0.00     0.035 H 
BRANCH  71  74
ATOM     74  C1  B4C d   1      11.271  42.419   3.610  0.00  0.00     0.080 C 
ATOM     75  H32 B4C d   1      10.750  41.452   3.546  0.00  0.00     0.075 H 
ATOM     76  H33 B4C d   1      10.550  43.235   3.453  0.00  0.00     0.075 H 
BRANCH  74  77
ATOM     77  N1  B4C d   1      11.880  42.557   4.950  0.00  0.00    -0.079 N 
ATOM     78  H34 B4C d   1      11.159  42.513   5.653  0.00  0.00     0.274 HD
ATOM     79  H35 B4C d   1      12.357  43.443   5.013  0.00  0.00     0.274 HD
ATOM     80  H36 B4C d   1      12.540  41.809   5.098  0.00  0.00     0.274 HD
ENDBRANCH  74  77
ENDBRANCH  71  74
ENDBRANCH  68  71
ENDBRANCH  65  68
ENDBRANCH  63  65
BRANCH  63  81
ATOM     81  N2  B4C d   1      16.478  40.589   0.767  0.00  0.00    -0.324 N 
ATOM     82  C6  B4C d   1      17.735  40.983   0.794  0.00  0.00     0.361 C 
ATOM     83  O1  B4C d   1      18.270  41.460   1.792  0.00  0.00    -0.238 OA
ATOM     84  H31 B4C d   1      16.098  40.228  -0.085  0.00  0.00     0.165 HD
BRANCH  82  85
ATOM     85  O2  B4C d   1      18.417  40.850  -0.362  0.00  0.00    -0.299 OA
BRANCH  85  86
ATOM     86  C7  B4C d   1      19.828  40.944  -0.085  0.00  0.00     0.054 C 
ATOM     87  H19 B4C d   1      20.085  42.012  -0.024  0.00  0.00     0.082 H 
ATOM     88  H20 B4C d   1      20.008  40.467   0.890  0.00  0.00     0.082 H 
BRANCH  86  89
ATOM     89  C8  B4C d   1      20.674  40.366  -0.991  0.00  0.00    -0.034 A 
ATOM     90  C13 B4C d   1      21.905  40.949  -1.257  0.00  0.00    -0.075 A 
ATOM     91  C12 B4C d   1      22.750  40.370  -2.199  0.00  0.00    -0.082 A 
ATOM     92  H12 B4C d   1      22.206  41.850  -0.734  0.00  0.00     0.084 H 
ATOM     93  C11 B4C d   1      22.376  39.191  -2.847  0.00  0.00    -0.083 A 
ATOM     94  H2  B4C d   1      23.701  40.836  -2.430  0.00  0.00     0.083 H 
ATOM     95  C10 B4C d   1      21.146  38.611  -2.551  0.00  0.00    -0.082 A 
ATOM     96  H30 B4C d   1      23.037  38.732  -3.573  0.00  0.00     0.083 H 
ATOM     97  C9  B4C d   1      20.296  39.194  -1.629  0.00  0.00    -0.075 A 
ATOM     98  H1  B4C d   1      20.852  37.694  -3.048  0.00  0.00     0.083 H 
ATOM     99  H29 B4C d   1      19.339  38.737  -1.406  0.00  0.00     0.084 H 
ENDBRANCH  86  89
ENDBRANCH  85  86
ENDBRANCH  82  85
ENDBRANCH  63  81
ENDBRANCH  60  63
ENDBRANCH   1  59
TORSDOF 24
