REMARK WARNING: 32 MAX_TORS EXCEEDED!!!
REMARK  41 active torsions:
REMARK  status: ('A' for Active; 'I' for Inactive)
REMARK    1  A    between atoms: N_1  and  CA_2 
REMARK    2  A    between atoms: CA_2  and  C_3 
REMARK    3  A    between atoms: CA_2  and  CB_5 
REMARK       I    between atoms: C_3  and  N_10 
REMARK    4  A    between atoms: CB_5  and  CG_6 
REMARK    5  A    between atoms: CG_6  and  CD_7 
REMARK       I    between atoms: CD_7  and  NE2_9 
REMARK    6  A    between atoms: N_10  and  CA_11 
REMARK    7  A    between atoms: CA_11  and  C_12 
REMARK    8  A    between atoms: CA_11  and  CB_14 
REMARK       I    between atoms: C_12  and  N_15 
REMARK    9  A    between atoms: N_15  and  CA_16 
REMARK   10  A    between atoms: CA_16  and  C_17 
REMARK   11  A    between atoms: CA_16  and  CB_19 
REMARK       I    between atoms: C_17  and  N_24 
REMARK   12  A    between atoms: CB_19  and  CG_20 
REMARK   13  A    between atoms: CG_20  and  CD_21 
REMARK       I    between atoms: CD_21  and  NE2_23 
REMARK   14  A    between atoms: N_24  and  CA_25 
REMARK   15  A    between atoms: CA_25  and  C_26 
REMARK       I    between atoms: C_26  and  N_28 
REMARK   16  A    between atoms: CA_29  and  C_30 
REMARK       I    between atoms: C_30  and  N_35 
REMARK   17  A    between atoms: CA_36  and  C_37 
REMARK       I    between atoms: C_37  and  N_42 
REMARK   18  A    between atoms: N_42  and  CA_43 
REMARK   19  A    between atoms: CA_43  and  C_44 
REMARK   20  A    between atoms: CA_43  and  CB_46 
REMARK       I    between atoms: C_44  and  N_54 
REMARK   21  A    between atoms: CB_46  and  CG_47 
REMARK   22  A    between atoms: CZ_52  and  OH_53 
REMARK   23  A    between atoms: CA_55  and  C_56 
REMARK       I    between atoms: C_56  and  N_61 
REMARK   24  A    between atoms: N_61  and  CA_62 
REMARK   25  A    between atoms: CA_62  and  C_63 
REMARK   26  A    between atoms: CA_62  and  CB_65 
REMARK       I    between atoms: C_63  and  N_68 
REMARK   27  A    between atoms: CB_65  and  OG1_66 
REMARK   28  A    between atoms: CB_65  and  CG2_67 
REMARK   29  A    between atoms: N_68  and  CA_69 
REMARK   30  A    between atoms: CA_69  and  C_70 
REMARK   31  A    between atoms: CA_69  and  CB_72 
REMARK       I    between atoms: C_70  and  N_80 
REMARK   32  A    between atoms: CB_72  and  CG_73 
REMARK   33  A    between atoms: CZ_78  and  OH_79 
REMARK   34  A    between atoms: CA_81  and  C_82 
REMARK       I    between atoms: C_82  and  N_87 
REMARK   35  A    between atoms: N_87  and  CA_88 
REMARK   36  A    between atoms: CA_88  and  C_89 
REMARK       I    between atoms: C_89  and  N_91 
REMARK   37  A    between atoms: N_91  and  CA_92 
REMARK   38  A    between atoms: CA_92  and  C_93 
REMARK   39  A    between atoms: CA_92  and  CB_95 
REMARK   40  A    between atoms: CB_95  and  CG_96 
REMARK   41  A    between atoms: CZ_101  and  OH_102 
ROOT
ATOM      1  CA  TYR d   1      21.008  28.877  14.388  0.00  0.00     0.093 C 
ATOM      2  H42 TYR d   1      21.349  29.617  15.127  0.00  0.00     0.088 H 
ENDROOT
BRANCH   1   3
ATOM      3  N   TYR d   1      21.913  28.856  13.242  0.00  0.00    -0.346 N 
ATOM      4  C   PRO d   1      22.759  29.844  12.974  0.00  0.00     0.241 C 
ATOM      5  O   PRO d   1      22.842  30.867  13.657  0.00  0.00    -0.271 OA
ATOM      6  H41 TYR d   1      21.895  28.063  12.633  0.00  0.00     0.163 HD
BRANCH   4   7
ATOM      7  CA  PRO d   1      23.627  29.659  11.729  0.00  0.00     0.091 C 
ATOM      8  N   PRO d   1      24.056  28.267  11.524  0.00  0.00    -0.337 N 
ATOM      9  C   PRO d   1      24.718  27.542  12.451  0.00  0.00     0.243 C 
ATOM     10  CD  PRO d   1      23.743  27.828  10.150  0.00  0.00    -0.001 C 
ATOM     11  O   PRO d   1      25.020  28.010  13.547  0.00  0.00    -0.271 OA
ATOM     12  CG  PRO d   1      23.529  29.143   9.430  0.00  0.00    -0.048 C 
ATOM     13  H39 PRO d   1      22.834  27.209  10.127  0.00  0.00     0.064 H 
ATOM     14  H40 PRO d   1      24.580  27.266   9.711  0.00  0.00     0.064 H 
ATOM     15  CB  PRO d   1      22.847  29.972  10.453  0.00  0.00    -0.036 C 
ATOM     16  H37 PRO d   1      24.488  29.592   9.132  0.00  0.00     0.035 H 
ATOM     17  H38 PRO d   1      22.895  29.009   8.541  0.00  0.00     0.035 H 
ATOM     18  H35 PRO d   1      22.912  31.041  10.203  0.00  0.00     0.036 H 
ATOM     19  H36 PRO d   1      21.791  29.683  10.555  0.00  0.00     0.036 H 
ATOM     20  H34 PRO d   1      24.505  30.317  11.815  0.00  0.00     0.087 H 
BRANCH   9  21
ATOM     21  CA  PRO d   1      25.100  26.097  12.092  0.00  0.00     0.092 C 
ATOM     22  N   PRO d   1      26.201  25.575  12.918  0.00  0.00    -0.337 N 
ATOM     23  C   GLY d   1      27.458  26.046  12.896  0.00  0.00     0.238 C 
ATOM     24  CD  PRO d   1      25.756  24.420  13.714  0.00  0.00    -0.001 C 
ATOM     25  O   GLY d   1      27.790  26.963  12.153  0.00  0.00    -0.272 OA
ATOM     26  CG  PRO d   1      24.265  24.620  13.755  0.00  0.00    -0.048 C 
ATOM     27  H32 PRO d   1      26.189  24.441  14.725  0.00  0.00     0.064 H 
ATOM     28  H33 PRO d   1      26.018  23.472  13.222  0.00  0.00     0.064 H 
ATOM     29  CB  PRO d   1      23.965  25.109  12.367  0.00  0.00    -0.036 C 
ATOM     30  H30 PRO d   1      23.743  23.675  13.965  0.00  0.00     0.035 H 
ATOM     31  H31 PRO d   1      23.985  25.369  14.510  0.00  0.00     0.035 H 
ATOM     32  H28 PRO d   1      23.980  24.280  11.645  0.00  0.00     0.036 H 
ATOM     33  H29 PRO d   1      22.987  25.611  12.328  0.00  0.00     0.036 H 
ATOM     34  H27 PRO d   1      25.379  26.068  11.028  0.00  0.00     0.087 H 
BRANCH  23  35
ATOM     35  CA  GLY d   1      28.494  25.412  13.803  0.00  0.00     0.069 C 
ATOM     36  H25 GLY d   1      28.183  25.502  14.854  0.00  0.00     0.078 H 
ATOM     37  H26 GLY d   1      28.623  24.350  13.548  0.00  0.00     0.078 H 
BRANCH  35  38
ATOM     38  N   GLY d   1      29.733  26.133  13.584  0.00  0.00    -0.351 N 
ATOM     39  C   GLN d   1      30.670  25.633  12.789  0.00  0.00     0.240 C 
ATOM     40  O   GLN d   1      30.558  24.553  12.220  0.00  0.00    -0.271 OA
ATOM     41  H24 GLY d   1      29.882  27.013  14.035  0.00  0.00     0.163 HD
BRANCH  39  42
ATOM     42  CA  GLN d   1      31.901  26.491  12.585  0.00  0.00     0.090 C 
ATOM     43  H17 GLN d   1      32.022  27.164  13.447  0.00  0.00     0.087 H 
BRANCH  42  44
ATOM     44  N   GLN d   1      33.116  25.687  12.458  0.00  0.00    -0.346 N 
ATOM     45  C   ALA d   1      34.178  25.905  13.231  0.00  0.00     0.240 C 
ATOM     46  O   ALA d   1      34.209  26.787  14.089  0.00  0.00    -0.271 OA
ATOM     47  H16 GLN d   1      33.150  24.957  11.775  0.00  0.00     0.163 HD
BRANCH  45  48
ATOM     48  CA  ALA d   1      35.390  25.003  13.003  0.00  0.00     0.086 C 
ATOM     49  H12 ALA d   1      35.341  24.570  11.993  0.00  0.00     0.086 H 
BRANCH  48  50
ATOM     50  N   ALA d   1      36.593  25.822  13.122  0.00  0.00    -0.346 N 
ATOM     51  C   GLN d   1      36.862  26.751  12.210  0.00  0.00     0.248 C 
ATOM     52  O   GLN d   1      36.139  26.943  11.234  0.00  0.00    -0.271 OA
ATOM     53  H11 ALA d   1      37.216  25.684  13.892  0.00  0.00     0.163 HD
BRANCH  51  54
ATOM     54  CA  GLN d   1      38.127  27.591  12.410  0.00  0.00     0.176 C 
ATOM     55  H4  GLN d   1      38.068  28.474  11.757  0.00  0.00     0.099 H 
BRANCH  54  56
ATOM     56  N   GLN d   1      38.230  28.049  13.826  0.00  0.00    -0.066 N 
ATOM     57  H1  GLN d   1      39.066  28.600  13.941  0.00  0.00     0.275 HD
ATOM     58  H2  GLN d   1      38.269  27.248  14.436  0.00  0.00     0.275 HD
ATOM     59  H3  GLN d   1      37.425  28.609  14.057  0.00  0.00     0.275 HD
ENDBRANCH  54  56
BRANCH  54  60
ATOM     60  CB  GLN d   1      39.372  26.781  12.030  0.00  0.00    -0.022 C 
ATOM     61  H5  GLN d   1      39.436  25.918  12.709  0.00  0.00     0.037 H 
ATOM     62  H6  GLN d   1      40.252  27.425  12.172  0.00  0.00     0.037 H 
BRANCH  60  63
ATOM     63  CG  GLN d   1      39.400  26.254  10.594  0.00  0.00     0.011 C 
ATOM     64  H7  GLN d   1      38.429  25.784  10.378  0.00  0.00     0.047 H 
ATOM     65  H8  GLN d   1      40.197  25.500  10.517  0.00  0.00     0.047 H 
BRANCH  63  66
ATOM     66  CD  GLN d   1      39.655  27.332   9.549  0.00  0.00     0.215 C 
ATOM     67  OE1 GLN d   1      39.932  28.487   9.878  0.00  0.00    -0.274 OA
ATOM     68  NE2 GLN d   1      39.572  26.951   8.278  0.00  0.00    -0.370 N 
ATOM     69  H9  GLN d   1      39.729  27.614   7.546  0.00  0.00     0.159 HD
ATOM     70  H10 GLN d   1      39.352  26.002   8.054  0.00  0.00     0.159 HD
ENDBRANCH  63  66
ENDBRANCH  60  63
ENDBRANCH  54  60
ENDBRANCH  51  54
ENDBRANCH  48  50
BRANCH  48  71
ATOM     71  CB  ALA d   1      35.406  23.868  14.030  0.00  0.00    -0.049 C 
ATOM     72  H13 ALA d   1      34.493  23.264  13.924  0.00  0.00     0.030 H 
ATOM     73  H14 ALA d   1      35.449  24.292  15.044  0.00  0.00     0.030 H 
ATOM     74  H15 ALA d   1      36.288  23.232  13.860  0.00  0.00     0.030 H 
ENDBRANCH  48  71
ENDBRANCH  45  48
ENDBRANCH  42  44
BRANCH  42  75
ATOM     75  CB  GLN d   1      31.643  27.318  11.329  0.00  0.00    -0.030 C 
ATOM     76  H18 GLN d   1      30.682  27.835  11.466  0.00  0.00     0.037 H 
ATOM     77  H19 GLN d   1      31.565  26.618  10.484  0.00  0.00     0.037 H 
BRANCH  75  78
ATOM     78  CG  GLN d   1      32.667  28.358  10.961  0.00  0.00     0.011 C 
ATOM     79  H20 GLN d   1      33.608  27.858  10.690  0.00  0.00     0.047 H 
ATOM     80  H21 GLN d   1      32.838  29.018  11.824  0.00  0.00     0.047 H 
BRANCH  78  81
ATOM     81  CD  GLN d   1      32.189  29.190   9.785  0.00  0.00     0.215 C 
ATOM     82  OE1 GLN d   1      32.987  29.750   9.038  0.00  0.00    -0.274 OA
ATOM     83  NE2 GLN d   1      30.870  29.275   9.621  0.00  0.00    -0.370 N 
ATOM     84  H22 GLN d   1      30.494  29.809   8.864  0.00  0.00     0.159 HD
ATOM     85  H23 GLN d   1      30.256  28.805  10.255  0.00  0.00     0.159 HD
ENDBRANCH  78  81
ENDBRANCH  75  78
ENDBRANCH  42  75
ENDBRANCH  39  42
ENDBRANCH  35  38
ENDBRANCH  23  35
ENDBRANCH   9  21
ENDBRANCH   4   7
ENDBRANCH   1   3
BRANCH   1  86
ATOM     86  C   TYR d   1      21.017  27.478  14.993  0.00  0.00     0.243 C 
ATOM     87  O   TYR d   1      21.384  26.511  14.324  0.00  0.00    -0.271 OA
ATOM     88  N   PRO d   1      20.629  27.343  16.269  0.00  0.00    -0.337 N 
ATOM     89  CA  PRO d   1      20.638  25.989  16.837  0.00  0.00     0.091 C 
ATOM     90  CD  PRO d   1      20.443  28.358  17.322  0.00  0.00    -0.001 C 
ATOM     91  CB  PRO d   1      20.530  26.241  18.342  0.00  0.00    -0.036 C 
ATOM     92  H50 PRO d   1      21.589  25.487  16.607  0.00  0.00     0.087 H 
ATOM     93  CG  PRO d   1      19.794  27.551  18.425  0.00  0.00    -0.048 C 
ATOM     94  H51 PRO d   1      21.527  26.320  18.800  0.00  0.00     0.036 H 
ATOM     95  H52 PRO d   1      19.962  25.439  18.836  0.00  0.00     0.036 H 
ATOM     96  H53 PRO d   1      19.939  28.028  19.405  0.00  0.00     0.035 H 
ATOM     97  H54 PRO d   1      18.718  27.416  18.239  0.00  0.00     0.035 H 
ATOM     98  H55 PRO d   1      19.785  29.171  16.982  0.00  0.00     0.064 H 
ATOM     99  H56 PRO d   1      21.406  28.777  17.648  0.00  0.00     0.064 H 
BRANCH  89 100
ATOM    100  C   PRO d   1      19.496  25.127  16.292  0.00  0.00     0.241 C 
ATOM    101  O   PRO d   1      19.579  23.897  16.287  0.00  0.00    -0.271 OA
ATOM    102  N   THR d   1      18.442  25.781  15.816  0.00  0.00    -0.344 N 
ATOM    103  H57 THR d   1      18.448  26.781  15.839  0.00  0.00     0.163 HD
BRANCH 102 104
ATOM    104  CA  THR d   1      17.274  25.099  15.260  0.00  0.00     0.113 C 
ATOM    105  H58 THR d   1      17.439  24.012  15.283  0.00  0.00     0.091 H 
BRANCH 104 106
ATOM    106  C   THR d   1      17.067  25.567  13.827  0.00  0.00     0.243 C 
ATOM    107  O   THR d   1      17.290  26.736  13.519  0.00  0.00    -0.271 OA
ATOM    108  N   TYR d   1      16.630  24.675  12.947  0.00  0.00    -0.346 N 
ATOM    109  H64 TYR d   1      16.454  23.731  13.225  0.00  0.00     0.163 HD
BRANCH 108 110
ATOM    110  CA  TYR d   1      16.411  25.095  11.570  0.00  0.00     0.093 C 
ATOM    111  H65 TYR d   1      17.280  25.692  11.255  0.00  0.00     0.088 H 
BRANCH 110 112
ATOM    112  C   TYR d   1      15.162  25.949  11.446  0.00  0.00     0.243 C 
ATOM    113  O   TYR d   1      14.107  25.564  11.935  0.00  0.00    -0.271 OA
ATOM    114  N   PRO d   1      15.275  27.119  10.789  0.00  0.00    -0.337 N 
ATOM    115  CA  PRO d   1      14.132  28.013  10.607  0.00  0.00     0.091 C 
ATOM    116  CD  PRO d   1      16.520  27.822  10.443  0.00  0.00    -0.001 C 
ATOM    117  CB  PRO d   1      14.689  29.098   9.688  0.00  0.00    -0.036 C 
ATOM    118  H73 PRO d   1      13.818  28.445  11.569  0.00  0.00     0.087 H 
ATOM    119  CG  PRO d   1      16.057  29.266  10.263  0.00  0.00    -0.048 C 
ATOM    120  H74 PRO d   1      14.104  30.027   9.755  0.00  0.00     0.036 H 
ATOM    121  H75 PRO d   1      14.727  28.763   8.641  0.00  0.00     0.036 H 
ATOM    122  H76 PRO d   1      16.021  29.795  11.227  0.00  0.00     0.035 H 
ATOM    123  H77 PRO d   1      16.715  29.811   9.570  0.00  0.00     0.035 H 
ATOM    124  H78 PRO d   1      16.953  27.426   9.512  0.00  0.00     0.064 H 
ATOM    125  H79 PRO d   1      17.259  27.741  11.254  0.00  0.00     0.064 H 
BRANCH 115 126
ATOM    126  C   PRO d   1      12.956  27.286   9.989  0.00  0.00     0.241 C 
ATOM    127  O   PRO d   1      13.072  26.693   8.917  0.00  0.00    -0.271 OA
ATOM    128  N   GLY d   1      11.801  27.347  10.635  0.00  0.00    -0.351 N 
ATOM    129  H80 GLY d   1      11.736  27.852  11.496  0.00  0.00     0.163 HD
BRANCH 128 130
ATOM    130  CA  GLY d   1      10.633  26.683  10.096  0.00  0.00     0.069 C 
ATOM    131  H81 GLY d   1      10.778  26.534   9.016  0.00  0.00     0.078 H 
ATOM    132  H82 GLY d   1       9.754  27.323  10.263  0.00  0.00     0.078 H 
BRANCH 130 133
ATOM    133  C   GLY d   1      10.385  25.331  10.748  0.00  0.00     0.236 C 
ATOM    134  O   GLY d   1       9.303  24.759  10.552  0.00  0.00    -0.272 OA
ATOM    135  N   TYR d   1      11.350  24.805  11.506  0.00  0.00    -0.345 N 
ATOM    136  H83 TYR d   1      12.220  25.286  11.614  0.00  0.00     0.163 HD
BRANCH 135 137
ATOM    137  CA  TYR d   1      11.133  23.526  12.177  0.00  0.00     0.100 C 
ATOM    138  H84 TYR d   1      10.569  22.860  11.507  0.00  0.00     0.090 H 
BRANCH 137 139
ATOM    139  C   TYR d   1      10.326  23.764  13.453  0.00  0.00     0.197 C 
ATOM    140  O   TYR d   1      10.251  24.925  13.912  0.00  0.00    -0.646 OA
ATOM    141  OXT TYR d   1       9.800  22.775  13.990  0.00  0.00    -0.646 OA
ENDBRANCH 137 139
BRANCH 137 142
ATOM    142  CB  TYR d   1      12.461  22.862  12.533  0.00  0.00    -0.013 C 
ATOM    143  H85 TYR d   1      13.030  23.548  13.177  0.00  0.00     0.043 H 
ATOM    144  H86 TYR d   1      13.020  22.684  11.602  0.00  0.00     0.043 H 
BRANCH 142 145
ATOM    145  CG  TYR d   1      12.308  21.525  13.268  0.00  0.00    -0.056 A 
ATOM    146  CD1 TYR d   1      11.952  20.354  12.586  0.00  0.00    -0.074 A 
ATOM    147  CE1 TYR d   1      11.805  19.136  13.264  0.00  0.00    -0.051 A 
ATOM    148  H87 TYR d   1      11.787  20.391  11.515  0.00  0.00     0.084 H 
ATOM    149  CZ  TYR d   1      12.012  19.083  14.634  0.00  0.00     0.065 A 
ATOM    150  H89 TYR d   1      11.531  18.240  12.720  0.00  0.00     0.087 H 
ATOM    151  CE2 TYR d   1      12.360  20.228  15.330  0.00  0.00    -0.051 A 
ATOM    152  CD2 TYR d   1      12.508  21.436  14.652  0.00  0.00    -0.074 A 
ATOM    153  H90 TYR d   1      12.517  20.185  16.402  0.00  0.00     0.087 H 
ATOM    154  H88 TYR d   1      12.784  22.326  15.207  0.00  0.00     0.084 H 
BRANCH 149 155
ATOM    155  OH  TYR d   1      11.879  17.887  15.310  0.00  0.00    -0.361 OA
ATOM    156  H91 TYR d   1      11.639  17.203  14.696  0.00  0.00     0.217 HD
ENDBRANCH 149 155
ENDBRANCH 142 145
ENDBRANCH 137 142
ENDBRANCH 135 137
ENDBRANCH 130 133
ENDBRANCH 128 130
ENDBRANCH 115 126
ENDBRANCH 110 112
BRANCH 110 157
ATOM    157  CB  TYR d   1      16.268  23.904  10.621  0.00  0.00    -0.014 C 
ATOM    158  H66 TYR d   1      15.308  23.403  10.814  0.00  0.00     0.043 H 
ATOM    159  H67 TYR d   1      17.092  23.199  10.802  0.00  0.00     0.043 H 
BRANCH 157 160
ATOM    160  CG  TYR d   1      16.310  24.354   9.177  0.00  0.00    -0.056 A 
ATOM    161  CD1 TYR d   1      15.141  24.569   8.442  0.00  0.00    -0.074 A 
ATOM    162  CE1 TYR d   1      15.197  25.072   7.125  0.00  0.00    -0.051 A 
ATOM    163  H68 TYR d   1      14.179  24.346   8.889  0.00  0.00     0.084 H 
ATOM    164  CZ  TYR d   1      16.429  25.356   6.558  0.00  0.00     0.065 A 
ATOM    165  H70 TYR d   1      14.285  25.235   6.562  0.00  0.00     0.087 H 
ATOM    166  CE2 TYR d   1      17.594  25.143   7.277  0.00  0.00    -0.051 A 
ATOM    167  CD2 TYR d   1      17.526  24.645   8.571  0.00  0.00    -0.074 A 
ATOM    168  H71 TYR d   1      18.556  25.365   6.830  0.00  0.00     0.087 H 
ATOM    169  H69 TYR d   1      18.444  24.479   9.122  0.00  0.00     0.084 H 
BRANCH 164 170
ATOM    170  OH  TYR d   1      16.520  25.862   5.281  0.00  0.00    -0.361 OA
ATOM    171  H72 TYR d   1      17.030  25.269   4.742  0.00  0.00     0.217 HD
ENDBRANCH 164 170
ENDBRANCH 157 160
ENDBRANCH 110 157
ENDBRANCH 108 110
ENDBRANCH 104 106
BRANCH 104 172
ATOM    172  CB  THR d   1      16.004  25.446  16.052  0.00  0.00     0.060 C 
ATOM    173  H59 THR d   1      15.834  26.531  15.996  0.00  0.00     0.086 H 
BRANCH 172 174
ATOM    174  OG1 THR d   1      16.175  25.067  17.424  0.00  0.00    -0.393 OA
ATOM    175  H60 THR d   1      16.334  24.132  17.476  0.00  0.00     0.210 HD
ENDBRANCH 172 174
BRANCH 172 176
ATOM    176  CG2 THR d   1      14.792  24.723  15.468  0.00  0.00    -0.050 C 
ATOM    177  H61 THR d   1      13.895  24.984  16.048  0.00  0.00     0.031 H 
ATOM    178  H62 THR d   1      14.956  23.636  15.515  0.00  0.00     0.031 H 
ATOM    179  H63 THR d   1      14.653  25.028  14.420  0.00  0.00     0.031 H 
ENDBRANCH 172 176
ENDBRANCH 104 172
ENDBRANCH 102 104
ENDBRANCH  89 100
ENDBRANCH   1  86
BRANCH   1 180
ATOM    180  CB  TYR d   1      19.580  29.217  13.934  0.00  0.00    -0.014 C 
ATOM    181  H43 TYR d   1      18.946  29.285  14.830  0.00  0.00     0.043 H 
ATOM    182  H44 TYR d   1      19.223  28.397  13.293  0.00  0.00     0.043 H 
BRANCH 180 183
ATOM    183  CG  TYR d   1      19.437  30.514  13.159  0.00  0.00    -0.056 A 
ATOM    184  CD1 TYR d   1      19.317  31.737  13.817  0.00  0.00    -0.074 A 
ATOM    185  CE1 TYR d   1      19.177  32.933  13.104  0.00  0.00    -0.051 A 
ATOM    186  H45 TYR d   1      19.332  31.762  14.901  0.00  0.00     0.084 H 
ATOM    187  CZ  TYR d   1      19.160  32.908  11.716  0.00  0.00     0.065 A 
ATOM    188  H47 TYR d   1      19.082  33.874  13.633  0.00  0.00     0.087 H 
ATOM    189  CE2 TYR d   1      19.283  31.704  11.038  0.00  0.00    -0.051 A 
ATOM    190  CD2 TYR d   1      19.419  30.515  11.761  0.00  0.00    -0.074 A 
ATOM    191  H48 TYR d   1      19.274  31.685   9.954  0.00  0.00     0.087 H 
ATOM    192  H46 TYR d   1      19.512  29.576  11.227  0.00  0.00     0.084 H 
BRANCH 187 193
ATOM    193  OH  TYR d   1      19.004  34.080  11.008  0.00  0.00    -0.361 OA
ATOM    194  H49 TYR d   1      18.935  34.808  11.614  0.00  0.00     0.217 HD
ENDBRANCH 187 193
ENDBRANCH 180 183
ENDBRANCH   1 180
TORSDOF 41
