REMARK  11 active torsions:
REMARK  status: ('A' for Active; 'I' for Inactive)
REMARK    1  A    between atoms: C5_6  and  O1_1 
REMARK    2  A    between atoms: O1_1  and  C6_7 
REMARK    3  A    between atoms: C2_3  and  C1_2 
REMARK    4  A    between atoms: S_11  and  C3_4 
REMARK    5  A    between atoms: C4_5  and  S_11 
REMARK    6  A    between atoms: C6_7  and  C7_16 
REMARK    7  A    between atoms: C10_19  and  C13_20 
REMARK    8  A    between atoms: C20_27  and  C21_33 
REMARK    9  A    between atoms: C28_28  and  C29_29 
REMARK   10  A    between atoms: C21_33  and  C22_34 
REMARK   11  A    between atoms: C22_34  and  C23_35 
REMARK       I    between atoms: C23_35  and  N_37 
ROOT
ATOM      1  C2  E2M d   1     -18.730  16.214 -29.809  0.00  0.00     0.080 A 
ATOM      2  C3  E2M d   1     -18.169  17.214 -30.585  0.00  0.00     0.021 A 
ATOM      3  C18 E2M d   1     -18.376  18.548 -30.255  0.00  0.00    -0.065 A 
ATOM      4  C19 E2M d   1     -19.147  18.875 -29.146  0.00  0.00    -0.071 A 
ATOM      5  C20 E2M d   1     -19.708  17.867 -28.371  0.00  0.00    -0.020 A 
ATOM      6  C28 E2M d   1     -19.498  16.540 -28.704  0.00  0.00     0.074 A 
ATOM      7  H17 E2M d   1     -17.937  19.332 -30.861  0.00  0.00     0.085 H 
ATOM      8  H18 E2M d   1     -19.311  19.915 -28.886  0.00  0.00     0.084 H 
ENDROOT
BRANCH   2   9
ATOM      9  S   E2M d   1     -17.230  16.810 -31.937  0.00  0.00    -0.087 SA
BRANCH   9  10
ATOM     10  C4  E2M d   1     -16.612  18.224 -32.639  0.00  0.00     0.039 A 
ATOM     11  C5  E2M d   1     -15.659  18.970 -31.968  0.00  0.00     0.085 A 
ATOM     12  C14 E2M d   1     -15.151  20.130 -32.542  0.00  0.00    -0.049 A 
ATOM     13  C15 E2M d   1     -15.601  20.541 -33.791  0.00  0.00    -0.080 A 
ATOM     14  H6  E2M d   1     -14.404  20.713 -32.016  0.00  0.00     0.087 H 
ATOM     15  C16 E2M d   1     -16.558  19.792 -34.465  0.00  0.00    -0.082 A 
ATOM     16  H5  E2M d   1     -15.206  21.445 -34.239  0.00  0.00     0.083 H 
ATOM     17  C17 E2M d   1     -17.064  18.633 -33.888  0.00  0.00    -0.064 A 
ATOM     18  H4  E2M d   1     -16.910  20.111 -35.440  0.00  0.00     0.083 H 
ATOM     19  H3  E2M d   1     -17.811  18.048 -34.412  0.00  0.00     0.085 H 
BRANCH  11  20
ATOM     20  O1  E2M d   1     -15.215  18.565 -30.736  0.00  0.00    -0.349 OA
BRANCH  20  21
ATOM     21  C6  E2M d   1     -13.957  19.024 -30.245  0.00  0.00     0.029 C 
ATOM     22  H1  E2M d   1     -13.876  20.110 -30.403  0.00  0.00     0.075 H 
ATOM     23  H2  E2M d   1     -13.145  18.513 -30.783  0.00  0.00     0.075 H 
BRANCH  21  24
ATOM     24  C7  E2M d   1     -13.851  18.718 -28.756  0.00  0.00    -0.033 C 
ATOM     25  C12 E2M d   1     -12.912  19.721 -28.097  0.00  0.00    -0.059 C 
ATOM     26  C11 E2M d   1     -13.462  21.138 -28.206  0.00  0.00    -0.052 C 
ATOM     27  H8  E2M d   1     -11.932  19.677 -28.594  0.00  0.00     0.033 H 
ATOM     28  H9  E2M d   1     -12.796  19.461 -27.035  0.00  0.00     0.033 H 
ATOM     29  C10 E2M d   1     -14.842  21.238 -27.567  0.00  0.00     0.030 C 
ATOM     30  H10 E2M d   1     -13.536  21.415 -29.268  0.00  0.00     0.034 H 
ATOM     31  H11 E2M d   1     -12.777  21.830 -27.694  0.00  0.00     0.034 H 
ATOM     32  C9  E2M d   1     -15.781  20.235 -28.226  0.00  0.00    -0.052 C 
ATOM     33  H12 E2M d   1     -14.753  20.985 -26.500  0.00  0.00     0.056 H 
ATOM     34  C8  E2M d   1     -15.231  18.818 -28.117  0.00  0.00    -0.059 C 
ATOM     35  H13 E2M d   1     -15.897  20.495 -29.288  0.00  0.00     0.034 H 
ATOM     36  H14 E2M d   1     -16.761  20.279 -27.729  0.00  0.00     0.034 H 
ATOM     37  H15 E2M d   1     -15.157  18.542 -27.055  0.00  0.00     0.033 H 
ATOM     38  H16 E2M d   1     -15.916  18.126 -28.629  0.00  0.00     0.033 H 
ATOM     39  H7  E2M d   1     -13.456  17.701 -28.618  0.00  0.00     0.043 H 
BRANCH  29  40
ATOM     40  C13 E2M d   1     -15.392  22.655 -27.676  0.00  0.00     0.177 C 
ATOM     41  O3  E2M d   1     -15.372  23.336 -28.935  0.00  0.00    -0.648 OA
ATOM     42  O2  E2M d   1     -15.988  23.281 -26.534  0.00  0.00    -0.648 OA
ENDBRANCH  29  40
ENDBRANCH  21  24
ENDBRANCH  20  21
ENDBRANCH  11  20
ENDBRANCH   9  10
ENDBRANCH   2   9
BRANCH   1  43
ATOM     43  C1  E2M d   1     -18.506  14.774 -30.167  0.00  0.00     0.419 C 
ATOM     44  F6  E2M d   1     -19.621  14.095 -29.975  0.00  0.00    -0.166 F 
ATOM     45  F1  E2M d   1     -18.150  14.686 -31.434  0.00  0.00    -0.166 F 
ATOM     46  F2  E2M d   1     -17.550  14.276 -29.405  0.00  0.00    -0.166 F 
ENDBRANCH   1  43
BRANCH   6  47
ATOM     47  C29 E2M d   1     -20.104  15.453 -27.867  0.00  0.00     0.419 C 
ATOM     48  F5  E2M d   1     -20.428  15.939 -26.683  0.00  0.00    -0.166 F 
ATOM     49  F4  E2M d   1     -21.186  14.990 -28.464  0.00  0.00    -0.166 F 
ATOM     50  F3  E2M d   1     -19.231  14.475 -27.717  0.00  0.00    -0.166 F 
ENDBRANCH   6  47
BRANCH   5  51
ATOM     51  C21 E2M d   1     -20.529  18.212 -27.189  0.00  0.00    -0.067 C 
ATOM     52  H19 E2M d   1     -20.736  17.458 -26.431  0.00  0.00     0.085 H 
BRANCH  51  53
ATOM     53  C22 E2M d   1     -21.014  19.442 -27.052  0.00  0.00    -0.017 C 
ATOM     54  H20 E2M d   1     -20.808  20.197 -27.809  0.00  0.00     0.092 H 
BRANCH  53  55
ATOM     55  C23 E2M d   1     -21.832  19.784 -25.873  0.00  0.00     0.243 C 
ATOM     56  O5  E2M d   1     -22.428  18.914 -25.260  0.00  0.00    -0.268 OA
ATOM     57  N   E2M d   1     -21.876  21.070 -25.533  0.00  0.00    -0.345 N 
ATOM     58  C27 E2M d   1     -22.766  21.571 -24.497  0.00  0.00     0.018 C 
ATOM     59  C24 E2M d   1     -21.037  22.072 -26.172  0.00  0.00     0.018 C 
ATOM     60  C26 E2M d   1     -23.673  22.570 -25.206  0.00  0.00     0.034 C 
ATOM     61  H21 E2M d   1     -22.192  22.067 -23.701  0.00  0.00     0.067 H 
ATOM     62  H22 E2M d   1     -23.358  20.750 -24.065  0.00  0.00     0.067 H 
ATOM     63  O4  E2M d   1     -22.878  23.585 -25.814  0.00  0.00    -0.388 OA
ATOM     64  H23 E2M d   1     -24.356  23.028 -24.475  0.00  0.00     0.076 H 
ATOM     65  H24 E2M d   1     -24.258  22.050 -25.979  0.00  0.00     0.076 H 
ATOM     66  C25 E2M d   1     -22.012  23.052 -26.814  0.00  0.00     0.034 C 
ATOM     67  H25 E2M d   1     -21.450  23.871 -27.287  0.00  0.00     0.076 H 
ATOM     68  H26 E2M d   1     -22.609  22.529 -27.576  0.00  0.00     0.076 H 
ATOM     69  H27 E2M d   1     -20.395  21.609 -26.936  0.00  0.00     0.067 H 
ATOM     70  H28 E2M d   1     -20.410  22.583 -25.427  0.00  0.00     0.067 H 
ENDBRANCH  53  55
ENDBRANCH  51  53
ENDBRANCH   5  51
TORSDOF 11
