REMARK  17 active torsions:
REMARK  status: ('A' for Active; 'I' for Inactive)
REMARK    1  A    between atoms: CBE_2  and  OBD_3 
REMARK       I    between atoms: CBE_2  and  NBL_8 
REMARK    2  A    between atoms: OBD_3  and  CBP_4 
REMARK    3  A    between atoms: CBP_4  and  CAC_5 
REMARK    4  A    between atoms: CBP_4  and  CAD_6 
REMARK    5  A    between atoms: CBP_4  and  CAE_7 
REMARK    6  A    between atoms: CBK_13  and  CBB_14 
REMARK    7  A    between atoms: CBB_14  and  NBN_15 
REMARK    8  A    between atoms: NBN_15  and  SBQ_16 
REMARK    9  A    between atoms: NBN_15  and  CAZ_26 
REMARK   10  A    between atoms: SBQ_16  and  CBJ_19 
REMARK   11  A    between atoms: CBF_24  and  CAA_25 
REMARK   12  A    between atoms: CAZ_26  and  CAY_27 
REMARK   13  A    between atoms: CAY_27  and  NBM_28 
REMARK   14  A    between atoms: NBM_28  and  CBH_29 
REMARK   15  A    between atoms: NBM_28  and  CBA_37 
REMARK   16  A    between atoms: CBA_37  and  CBI_38 
REMARK   17  A    between atoms: NBO_42  and  CAB_43 
ROOT
ATOM      1  CBH ED5 d   1      20.057 -71.628   1.380  0.00  0.00     0.030 A 
ATOM      2  CAQ ED5 d   1      20.767 -71.319   0.218  0.00  0.00    -0.056 A 
ATOM      3  CAO ED5 d   1      21.995 -71.924  -0.039  0.00  0.00    -0.061 A 
ATOM      4  CAR ED5 d   1      20.565 -72.582   2.264  0.00  0.00    -0.056 A 
ATOM      5  CAP ED5 d   1      21.793 -73.180   2.009  0.00  0.00    -0.061 A 
ATOM      6  CBG ED5 d   1      22.511 -72.853   0.866  0.00  0.00     0.044 A 
ATOM      7  CAJ ED5 d   1      23.639 -73.440   0.646  0.00  0.00     0.099 C 
ATOM      8  NAF ED5 d   1      24.638 -74.011   0.459  0.00  0.00    -0.191 NA
ATOM      9  H32 ED5 d   1      20.360 -70.604  -0.488  0.00  0.00     0.087 H 
ATOM     10  H33 ED5 d   1      22.547 -71.674  -0.938  0.00  0.00     0.085 H 
ATOM     11  H34 ED5 d   1      20.002 -72.856   3.149  0.00  0.00     0.087 H 
ATOM     12  H35 ED5 d   1      22.193 -73.907   2.707  0.00  0.00     0.085 H 
ENDROOT
BRANCH   1  13
ATOM     13  NBM ED5 d   1      18.789 -71.049   1.604  0.00  0.00    -0.374 N 
BRANCH  13  14
ATOM     14  CAY ED5 d   1      18.237 -71.116   2.975  0.00  0.00     0.011 C 
ATOM     15  H30 ED5 d   1      19.047 -71.340   3.684  0.00  0.00     0.066 H 
ATOM     16  H31 ED5 d   1      17.781 -70.149   3.233  0.00  0.00     0.066 H 
BRANCH  14  17
ATOM     17  CAZ ED5 d   1      17.166 -72.225   3.052  0.00  0.00     0.020 C 
ATOM     18  H28 ED5 d   1      16.523 -72.183   2.160  0.00  0.00     0.067 H 
ATOM     19  H29 ED5 d   1      17.654 -73.209   3.106  0.00  0.00     0.067 H 
BRANCH  17  20
ATOM     20  NBN ED5 d   1      16.341 -72.001   4.281  0.00  0.00    -0.305 N 
BRANCH  20  21
ATOM     21  CBB ED5 d   1      16.601 -72.841   5.466  0.00  0.00     0.009 C 
ATOM     22  H19 ED5 d   1      17.178 -72.231   6.176  0.00  0.00     0.066 H 
ATOM     23  H20 ED5 d   1      15.625 -73.092   5.907  0.00  0.00     0.066 H 
BRANCH  21  24
ATOM     24  CBK ED5 d   1      17.359 -74.150   5.277  0.00  0.00    -0.035 C 
ATOM     25  CAV ED5 d   1      17.982 -74.361   6.650  0.00  0.00    -0.045 C 
ATOM     26  CAX ED5 d   1      18.495 -75.770   6.876  0.00  0.00     0.000 C 
ATOM     27  H12 ED5 d   1      18.825 -73.663   6.760  0.00  0.00     0.036 H 
ATOM     28  H13 ED5 d   1      17.222 -74.141   7.414  0.00  0.00     0.036 H 
ATOM     29  NBL ED5 d   1      17.402 -76.665   6.540  0.00  0.00    -0.328 N 
ATOM     30  H10 ED5 d   1      19.361 -75.968   6.228  0.00  0.00     0.064 H 
ATOM     31  H11 ED5 d   1      18.786 -75.904   7.928  0.00  0.00     0.064 H 
ATOM     32  CBE ED5 d   1      16.793 -77.368   7.402  0.00  0.00     0.363 C 
ATOM     33  CAW ED5 d   1      17.052 -76.673   5.120  0.00  0.00     0.000 C 
ATOM     34  OAG ED5 d   1      17.044 -77.373   8.605  0.00  0.00    -0.238 OA
ATOM     35  CAU ED5 d   1      16.407 -75.297   4.907  0.00  0.00    -0.045 C 
ATOM     36  H14 ED5 d   1      16.340 -77.481   4.894  0.00  0.00     0.064 H 
ATOM     37  H15 ED5 d   1      17.949 -76.789   4.494  0.00  0.00     0.064 H 
ATOM     38  H16 ED5 d   1      15.506 -75.227   5.534  0.00  0.00     0.036 H 
ATOM     39  H17 ED5 d   1      16.126 -75.197   3.848  0.00  0.00     0.036 H 
ATOM     40  H18 ED5 d   1      18.132 -74.053   4.501  0.00  0.00     0.042 H 
BRANCH  32  41
ATOM     41  OBD ED5 d   1      15.756 -78.236   6.923  0.00  0.00    -0.294 OA
BRANCH  41  42
ATOM     42  CBP ED5 d   1      14.891 -78.994   7.763  0.00  0.00     0.061 C 
BRANCH  42  43
ATOM     43  CAC ED5 d   1      15.623 -80.075   8.543  0.00  0.00    -0.048 C 
ATOM     44  H1  ED5 d   1      14.905 -80.624   9.171  0.00  0.00     0.031 H 
ATOM     45  H2  ED5 d   1      16.389 -79.611   9.182  0.00  0.00     0.031 H 
ATOM     46  H3  ED5 d   1      16.104 -80.772   7.841  0.00  0.00     0.031 H 
ENDBRANCH  42  43
BRANCH  42  47
ATOM     47  CAD ED5 d   1      14.279 -78.037   8.760  0.00  0.00    -0.048 C 
ATOM     48  H4  ED5 d   1      13.602 -78.588   9.429  0.00  0.00     0.031 H 
ATOM     49  H5  ED5 d   1      13.713 -77.261   8.224  0.00  0.00     0.031 H 
ATOM     50  H6  ED5 d   1      15.077 -77.566   9.353  0.00  0.00     0.031 H 
ENDBRANCH  42  47
BRANCH  42  51
ATOM     51  CAE ED5 d   1      13.870 -79.658   6.851  0.00  0.00    -0.048 C 
ATOM     52  H7  ED5 d   1      13.175 -80.259   7.455  0.00  0.00     0.031 H 
ATOM     53  H8  ED5 d   1      14.389 -80.310   6.133  0.00  0.00     0.031 H 
ATOM     54  H9  ED5 d   1      13.308 -78.885   6.306  0.00  0.00     0.031 H 
ENDBRANCH  42  51
ENDBRANCH  41  42
ENDBRANCH  32  41
ENDBRANCH  21  24
ENDBRANCH  20  21
BRANCH  20  55
ATOM     55  SBQ ED5 d   1      14.726 -71.745   4.096  0.00  0.00     0.261 S 
ATOM     56  OAI ED5 d   1      14.388 -71.465   2.672  0.00  0.00    -0.200 OA
ATOM     57  OAH ED5 d   1      14.485 -70.532   4.922  0.00  0.00    -0.200 OA
BRANCH  55  58
ATOM     58  CBJ ED5 d   1      13.771 -72.914   4.694  0.00  0.00     0.085 A 
ATOM     59  CAN ED5 d   1      13.307 -72.786   6.005  0.00  0.00    -0.060 A 
ATOM     60  CAL ED5 d   1      12.498 -73.760   6.580  0.00  0.00    -0.081 A 
ATOM     61  H21 ED5 d   1      13.582 -71.912   6.584  0.00  0.00     0.085 H 
ATOM     62  CAK ED5 d   1      12.133 -74.880   5.847  0.00  0.00    -0.082 A 
ATOM     63  H22 ED5 d   1      12.152 -73.644   7.601  0.00  0.00     0.083 H 
ATOM     64  CAM ED5 d   1      12.582 -75.010   4.539  0.00  0.00    -0.076 A 
ATOM     65  H23 ED5 d   1      11.505 -75.644   6.290  0.00  0.00     0.083 H 
ATOM     66  CBF ED5 d   1      13.379 -74.030   3.962  0.00  0.00    -0.039 A 
ATOM     67  H24 ED5 d   1      12.307 -75.886   3.962  0.00  0.00     0.084 H 
BRANCH  66  68
ATOM     68  CAA ED5 d   1      13.831 -74.213   2.545  0.00  0.00    -0.050 C 
ATOM     69  H25 ED5 d   1      14.449 -73.354   2.244  0.00  0.00     0.033 H 
ATOM     70  H26 ED5 d   1      12.953 -74.282   1.886  0.00  0.00     0.033 H 
ATOM     71  H27 ED5 d   1      14.423 -75.137   2.465  0.00  0.00     0.033 H 
ENDBRANCH  66  68
ENDBRANCH  55  58
ENDBRANCH  20  55
ENDBRANCH  17  20
ENDBRANCH  14  17
ENDBRANCH  13  14
BRANCH  13  72
ATOM     72  CBA ED5 d   1      18.524 -69.863   0.845  0.00  0.00     0.035 C 
ATOM     73  H36 ED5 d   1      19.483 -69.387   0.594  0.00  0.00     0.073 H 
ATOM     74  H37 ED5 d   1      17.926 -69.178   1.464  0.00  0.00     0.073 H 
BRANCH  72  75
ATOM     75  CBI ED5 d   1      17.778 -70.131  -0.426  0.00  0.00     0.047 A 
ATOM     76  CAS ED5 d   1      17.407 -71.415  -0.786  0.00  0.00     0.027 A 
ATOM     77  NBC ED5 d   1      16.777 -71.224  -1.971  0.00  0.00    -0.254 NA
ATOM     78  H38 ED5 d   1      17.579 -72.347  -0.250  0.00  0.00     0.117 H 
ATOM     79  CAT ED5 d   1      16.767 -69.896  -2.288  0.00  0.00     0.065 A 
ATOM     80  NBO ED5 d   1      17.398 -69.211  -1.319  0.00  0.00    -0.347 N 
ATOM     81  H39 ED5 d   1      16.320 -69.462  -3.181  0.00  0.00     0.143 H 
BRANCH  80  82
ATOM     82  CAB ED5 d   1      17.612 -67.741  -1.271  0.00  0.00    -0.013 C 
ATOM     83  H40 ED5 d   1      18.160 -67.480  -0.354  0.00  0.00     0.057 H 
ATOM     84  H41 ED5 d   1      16.639 -67.228  -1.275  0.00  0.00     0.057 H 
ATOM     85  H42 ED5 d   1      18.196 -67.427  -2.149  0.00  0.00     0.057 H 
ENDBRANCH  80  82
ENDBRANCH  72  75
ENDBRANCH  13  72
ENDBRANCH   1  13
TORSDOF 17
