REMARK  8 active torsions:
REMARK  status: ('A' for Active; 'I' for Inactive)
REMARK    1  A    between atoms: C3_3  and  N13_7 
REMARK    2  A    between atoms: C5_5  and  N15_8 
REMARK    3  A    between atoms: C27_14  and  C57_25 
REMARK    4  A    between atoms: C37_19  and  N44_21 
REMARK    5  A    between atoms: N44_21  and  C46_22 
REMARK    6  A    between atoms: C46_22  and  C48_23 
REMARK    7  A    between atoms: C46_22  and  C51_24 
REMARK    8  A    between atoms: C57_25  and  C59_26 
ROOT
ATOM      1  N13 CCK d   1     -26.230  24.788 -20.301  0.00  0.00    -0.214 N 
ATOM      2  C17 CCK d   1     -26.893  23.661 -20.701  0.00  0.00     0.074 A 
ATOM      3  C18 CCK d   1     -27.368  23.863 -22.018  0.00  0.00     0.012 A 
ATOM      4  C19 CCK d   1     -26.881  25.181 -22.289  0.00  0.00     0.034 C 
ATOM      5  N20 CCK d   1     -26.136  25.614 -21.234  0.00  0.00    -0.177 NA
ATOM      6  C35 CCK d   1     -28.120  22.921 -22.750  0.00  0.00    -0.067 A 
ATOM      7  C36 CCK d   1     -28.373  21.704 -22.069  0.00  0.00    -0.057 A 
ATOM      8  C37 CCK d   1     -27.898  21.454 -20.744  0.00  0.00     0.030 A 
ATOM      9  C38 CCK d   1     -27.155  22.436 -20.046  0.00  0.00    -0.029 A 
ATOM     10  H3  CCK d   1     -27.076  25.749 -23.197  0.00  0.00     0.118 H 
ATOM     11  H7  CCK d   1     -28.477  23.113 -23.756  0.00  0.00     0.085 H 
ATOM     12  H8  CCK d   1     -28.948  20.934 -22.571  0.00  0.00     0.086 H 
ATOM     13  H9  CCK d   1     -26.797  22.254 -19.039  0.00  0.00     0.090 H 
ENDROOT
BRANCH   1  14
ATOM     14  C3  CCK d   1     -25.832  25.029 -19.046  0.00  0.00     0.171 A 
ATOM     15  C2  CCK d   1     -24.952  26.067 -18.736  0.00  0.00     0.048 A 
ATOM     16  N1  CCK d   1     -24.595  26.243 -17.469  0.00  0.00    -0.265 NA
ATOM     17  H1  CCK d   1     -24.567  26.717 -19.514  0.00  0.00     0.120 H 
ATOM     18  C6  CCK d   1     -25.045  25.472 -16.493  0.00  0.00     0.047 A 
ATOM     19  C5  CCK d   1     -25.933  24.447 -16.837  0.00  0.00     0.153 A 
ATOM     20  H2  CCK d   1     -24.737  25.628 -15.465  0.00  0.00     0.120 H 
ATOM     21  N4  CCK d   1     -26.306  24.239 -18.077  0.00  0.00    -0.208 NA
BRANCH  19  22
ATOM     22  N15 CCK d   1     -26.409  23.653 -15.948  0.00  0.00    -0.316 N 
ATOM     23  C26 CCK d   1     -27.180  22.452 -16.095  0.00  0.00    -0.007 C 
ATOM     24  C27 CCK d   1     -27.373  21.756 -14.895  0.00  0.00    -0.031 C 
ATOM     25  H4  CCK d   1     -27.578  22.113 -17.050  0.00  0.00     0.113 H 
ATOM     26  C28 CCK d   1     -26.594  22.416 -13.915  0.00  0.00    -0.060 C 
ATOM     27  C29 CCK d   1     -26.155  23.590 -14.526  0.00  0.00    -0.013 C 
ATOM     28  H5  CCK d   1     -26.383  22.079 -12.901  0.00  0.00     0.086 H 
ATOM     29  H6  CCK d   1     -25.662  24.392 -13.978  0.00  0.00     0.112 H 
BRANCH  24  30
ATOM     30  C57 CCK d   1     -28.270  20.561 -14.689  0.00  0.00     0.041 C 
ATOM     31  H18 CCK d   1     -28.312  20.004 -15.636  0.00  0.00     0.056 H 
ATOM     32  H19 CCK d   1     -29.274  20.933 -14.437  0.00  0.00     0.056 H 
BRANCH  30  33
ATOM     33  C59 CCK d   1     -27.843  19.590 -13.594  0.00  0.00     0.177 C 
ATOM     34  O61 CCK d   1     -28.662  18.721 -13.291  0.00  0.00    -0.648 OA
ATOM     35  O63 CCK d   1     -26.733  19.677 -13.054  0.00  0.00    -0.648 OA
ENDBRANCH  30  33
ENDBRANCH  24  30
ENDBRANCH  19  22
ENDBRANCH   1  14
BRANCH   8  36
ATOM     36  N44 CCK d   1     -28.184  20.222 -20.188  0.00  0.00    -0.386 N 
ATOM     37  H10 CCK d   1     -28.071  19.413 -20.816  0.00  0.00     0.160 HD
BRANCH  36  38
ATOM     38  C46 CCK d   1     -28.628  19.908 -18.820  0.00  0.00     0.003 C 
ATOM     39  H11 CCK d   1     -27.764  19.870 -18.140  0.00  0.00     0.071 H 
BRANCH  38  40
ATOM     40  C48 CCK d   1     -29.395  18.608 -18.834  0.00  0.00    -0.058 C 
ATOM     41  H12 CCK d   1     -29.729  18.369 -17.814  0.00  0.00     0.030 H 
ATOM     42  H13 CCK d   1     -28.744  17.802 -19.205  0.00  0.00     0.030 H 
ATOM     43  H14 CCK d   1     -30.270  18.706 -19.493  0.00  0.00     0.030 H 
ENDBRANCH  38  40
BRANCH  38  44
ATOM     44  C51 CCK d   1     -29.662  20.883 -18.342  0.00  0.00    -0.058 C 
ATOM     45  H15 CCK d   1     -29.970  20.619 -17.320  0.00  0.00     0.030 H 
ATOM     46  H16 CCK d   1     -30.536  20.847 -19.009  0.00  0.00     0.030 H 
ATOM     47  H17 CCK d   1     -29.239  21.898 -18.347  0.00  0.00     0.030 H 
ENDBRANCH  38  44
ENDBRANCH  36  38
ENDBRANCH   8  36
TORSDOF 8
