REMARK  9 active torsions:
REMARK  status: ('A' for Active; 'I' for Inactive)
REMARK    1  A    between atoms: C27_2  and  C29_3 
REMARK       I    between atoms: C27_2  and  N17_13 
REMARK    2  A    between atoms: C29_3  and  C40_4 
REMARK    3  A    between atoms: C29_3  and  C31_8 
REMARK    4  A    between atoms: C40_4  and  C43_5 
REMARK    5  A    between atoms: C43_5  and  C46_6 
REMARK    6  A    between atoms: C46_6  and  C49_7 
REMARK    7  A    between atoms: C31_8  and  N34_9 
REMARK    8  A    between atoms: N34_9  and  O35_10 
REMARK       I    between atoms: N34_9  and  C37_11 
REMARK    9  A    between atoms: C15_14  and  C3_18 
ROOT
ATOM      1  O28 NVC d   1      20.362  53.795  15.913  0.00  0.00    -0.273 OA
ATOM      2  C27 NVC d   1      20.142  54.994  15.930  0.00  0.00     0.226 C 
ATOM      3  N17 NVC d   1      21.145  55.880  15.898  0.00  0.00    -0.339 N 
ATOM      4  C15 NVC d   1      22.533  55.408  15.859  0.00  0.00     0.078 C 
ATOM      5  C24 NVC d   1      23.373  56.655  15.621  0.00  0.00    -0.037 C 
ATOM      6  C21 NVC d   1      22.516  57.768  16.209  0.00  0.00    -0.048 C 
ATOM      7  C18 NVC d   1      21.080  57.351  15.888  0.00  0.00    -0.001 C 
ATOM      8  H15 NVC d   1      22.682  54.658  15.068  0.00  0.00     0.086 H 
ATOM      9  H16 NVC d   1      23.545  56.816  14.546  0.00  0.00     0.036 H 
ATOM     10  H17 NVC d   1      24.340  56.585  16.141  0.00  0.00     0.036 H 
ATOM     11  H18 NVC d   1      22.755  58.733  15.739  0.00  0.00     0.035 H 
ATOM     12  H19 NVC d   1      22.666  57.842  17.296  0.00  0.00     0.035 H 
ATOM     13  H20 NVC d   1      20.382  57.720  16.654  0.00  0.00     0.064 H 
ATOM     14  H21 NVC d   1      20.772  57.725  14.900  0.00  0.00     0.064 H 
ENDROOT
BRANCH   2  15
ATOM     15  C29 NVC d   1      18.709  55.504  15.926  0.00  0.00     0.041 C 
ATOM     16  H1  NVC d   1      18.717  56.603  15.871  0.00  0.00     0.057 H 
BRANCH  15  17
ATOM     17  C40 NVC d   1      17.901  55.091  17.160  0.00  0.00    -0.052 C 
ATOM     18  H2  NVC d   1      17.819  53.994  17.177  0.00  0.00     0.034 H 
ATOM     19  H3  NVC d   1      16.896  55.533  17.088  0.00  0.00     0.034 H 
BRANCH  17  20
ATOM     20  C43 NVC d   1      18.550  55.556  18.472  0.00  0.00    -0.065 C 
ATOM     21  H4  NVC d   1      18.604  56.654  18.491  0.00  0.00     0.033 H 
ATOM     22  H5  NVC d   1      19.564  55.138  18.554  0.00  0.00     0.033 H 
BRANCH  20  23
ATOM     23  C46 NVC d   1      17.692  55.061  19.632  0.00  0.00    -0.069 C 
ATOM     24  H6  NVC d   1      17.525  53.981  19.511  0.00  0.00     0.032 H 
ATOM     25  H7  NVC d   1      16.726  55.587  19.605  0.00  0.00     0.032 H 
BRANCH  23  26
ATOM     26  C49 NVC d   1      18.339  55.303  20.979  0.00  0.00    -0.077 C 
ATOM     27  H8  NVC d   1      17.679  54.928  21.775  0.00  0.00     0.027 H 
ATOM     28  H9  NVC d   1      18.505  56.382  21.118  0.00  0.00     0.027 H 
ATOM     29  H10 NVC d   1      19.303  54.775  21.023  0.00  0.00     0.027 H 
ENDBRANCH  23  26
ENDBRANCH  20  23
ENDBRANCH  17  20
ENDBRANCH  15  17
BRANCH  15  30
ATOM     30  C31 NVC d   1      18.069  54.923  14.659  0.00  0.00     0.034 C 
ATOM     31  H11 NVC d   1      17.948  53.837  14.786  0.00  0.00     0.069 H 
ATOM     32  H12 NVC d   1      18.730  55.120  13.803  0.00  0.00     0.069 H 
BRANCH  30  33
ATOM     33  N34 NVC d   1      16.763  55.517  14.395  0.00  0.00    -0.235 N 
ATOM     34  C37 NVC d   1      15.742  54.828  14.606  0.00  0.00     0.193 C 
ATOM     35  O39 NVC d   1      14.722  55.389  14.593  0.00  0.00    -0.281 OA
ATOM     36  H14 NVC d   1      15.803  53.757  14.793  0.00  0.00     0.183 H 
BRANCH  33  37
ATOM     37  O35 NVC d   1      16.757  56.832  13.917  0.00  0.00    -0.285 OA
ATOM     38  H13 NVC d   1      15.860  57.114  13.781  0.00  0.00     0.245 HD
ENDBRANCH  33  37
ENDBRANCH  30  33
ENDBRANCH  15  30
ENDBRANCH   2  15
BRANCH   4  39
ATOM     39  C3  NVC d   1      22.896  54.862  17.179  0.00  0.00     0.169 A 
ATOM     40  O1  NVC d   1      23.708  53.771  17.152  0.00  0.00    -0.291 OA
ATOM     41  C6  NVC d   1      23.892  53.472  18.508  0.00  0.00     0.106 A 
ATOM     42  C5  NVC d   1      23.200  54.364  19.305  0.00  0.00     0.093 A 
ATOM     43  C7  NVC d   1      24.656  52.427  19.007  0.00  0.00    -0.048 A 
ATOM     44  N4  NVC d   1      22.569  55.221  18.446  0.00  0.00    -0.224 NA
ATOM     45  C13 NVC d   1      23.234  54.242  20.689  0.00  0.00    -0.052 A 
ATOM     46  C11 NVC d   1      24.004  53.205  21.210  0.00  0.00    -0.081 A 
ATOM     47  H25 NVC d   1      22.687  54.922  21.332  0.00  0.00     0.087 H 
ATOM     48  C9  NVC d   1      24.698  52.311  20.395  0.00  0.00    -0.080 A 
ATOM     49  H24 NVC d   1      24.066  53.089  22.286  0.00  0.00     0.083 H 
ATOM     50  H23 NVC d   1      25.278  51.515  20.848  0.00  0.00     0.083 H 
ATOM     51  H22 NVC d   1      25.188  51.742  18.357  0.00  0.00     0.087 H 
ENDBRANCH   4  39
TORSDOF 9
