REMARK  16 active torsions:
REMARK  status: ('A' for Active; 'I' for Inactive)
REMARK       I    between atoms: C10_1  and  N09_28 
REMARK    1  A    between atoms: C12_30  and  C10_1 
REMARK    2  A    between atoms: C12_30  and  C13_2 
REMARK    3  A    between atoms: C13_2  and  C14_31 
REMARK       I    between atoms: C52_10  and  N53_11 
REMARK    4  A    between atoms: C46_12  and  C52_10 
REMARK    5  A    between atoms: N45_13  and  C46_12 
REMARK       I    between atoms: C43_14  and  N45_13 
REMARK    6  A    between atoms: C32_16  and  C43_14 
REMARK    7  A    between atoms: N31_17  and  C32_16 
REMARK       I    between atoms: C29_18  and  N31_17 
REMARK    8  A    between atoms: C08_20  and  C29_18 
REMARK    9  A    between atoms: C08_20  and  C07_21 
REMARK   10  A    between atoms: N09_28  and  C08_20 
REMARK   11  A    between atoms: C07_21  and  C06_22 
REMARK   12  A    between atoms: C06_22  and  C05_23 
REMARK   13  A    between atoms: C05_23  and  N04_24 
REMARK       I    between atoms: N04_24  and  C02_25 
REMARK       I    between atoms: C02_25  and  N03_26 
REMARK   14  A    between atoms: C18_35  and  C12_30 
REMARK       I    between atoms: C14_31  and  N16_32 
REMARK   15  A    between atoms: N16_32  and  O17_33 
REMARK   16  A    between atoms: C18_35  and  C19_36 
ROOT
ATOM      1  C08 QIX d   1     -81.967  69.822   6.741  0.00  0.00     0.089 C 
ATOM      2  H   QIX d   1     -80.983  69.377   6.888  0.00  0.00     0.087 H 
ENDROOT
BRANCH   1   3
ATOM      3  C29 QIX d   1     -82.964  68.772   6.219  0.00  0.00     0.240 C 
ATOM      4  N31 QIX d   1     -82.528  67.468   5.741  0.00  0.00    -0.351 N 
ATOM      5  H   QIX d   1     -81.579  67.101   5.817  0.00  0.00     0.163 HD
ATOM      6  O30 QIX d   1     -84.113  69.018   6.033  0.00  0.00    -0.271 OA
BRANCH   4   7
ATOM      7  C32 QIX d   1     -83.663  66.763   5.133  0.00  0.00     0.069 C 
ATOM      8  H   QIX d   1     -84.535  67.417   5.104  0.00  0.00     0.078 H 
ATOM      9  H   QIX d   1     -83.416  66.471   4.112  0.00  0.00     0.078 H 
BRANCH   7  10
ATOM     10  C43 QIX d   1     -83.972  65.511   5.979  0.00  0.00     0.235 C 
ATOM     11  N45 QIX d   1     -83.473  64.252   5.285  0.00  0.00    -0.351 N 
ATOM     12  H   QIX d   1     -82.502  64.225   4.972  0.00  0.00     0.163 HD
ATOM     13  O44 QIX d   1     -84.802  65.666   6.899  0.00  0.00    -0.272 OA
BRANCH  11  14
ATOM     14  C46 QIX d   1     -84.335  63.046   5.036  0.00  0.00     0.069 C 
ATOM     15  H   QIX d   1     -83.733  62.163   5.252  0.00  0.00     0.078 H 
ATOM     16  H   QIX d   1     -85.217  63.138   5.670  0.00  0.00     0.078 H 
BRANCH  14  17
ATOM     17  C52 QIX d   1     -84.839  62.924   3.530  0.00  0.00     0.233 C 
ATOM     18  O54 QIX d   1     -85.502  61.962   3.200  0.00  0.00    -0.272 OA
ATOM     19  N53 QIX d   1     -84.812  64.067   2.564  0.00  0.00    -0.369 N 
ATOM     20  H   QIX d   1     -85.332  64.007   1.689  0.00  0.00     0.159 HD
ATOM     21  H   QIX d   1     -84.273  64.906   2.781  0.00  0.00     0.159 HD
ENDBRANCH  14  17
ENDBRANCH  11  14
ENDBRANCH   7  10
ENDBRANCH   4   7
ENDBRANCH   1   3
BRANCH   1  22
ATOM     22  C07 QIX d   1     -82.439  70.434   8.101  0.00  0.00    -0.036 C 
ATOM     23  H   QIX d   1     -83.528  70.474   8.117  0.00  0.00     0.036 H 
ATOM     24  H   QIX d   1     -82.027  71.438   8.204  0.00  0.00     0.036 H 
BRANCH  22  25
ATOM     25  C06 QIX d   1     -81.942  69.553   9.282  0.00  0.00    -0.048 C 
ATOM     26  H   QIX d   1     -81.007  69.077   8.986  0.00  0.00     0.035 H 
ATOM     27  H   QIX d   1     -82.714  68.818   9.511  0.00  0.00     0.035 H 
BRANCH  25  28
ATOM     28  C05 QIX d   1     -81.676  70.406  10.569  0.00  0.00     0.009 C 
ATOM     29  H   QIX d   1     -82.441  70.193  11.316  0.00  0.00     0.064 H 
ATOM     30  H   QIX d   1     -81.710  71.467  10.321  0.00  0.00     0.064 H 
BRANCH  28  31
ATOM     31  N04 QIX d   1     -80.330  70.058  11.112  0.00  0.00    -0.227 N 
ATOM     32  C02 QIX d   1     -80.248  69.992  12.597  0.00  0.00     0.665 C 
ATOM     33  N03 QIX d   1     -80.823  68.779  13.273  0.00  0.00    -0.235 N 
ATOM     34  N01 QIX d   1     -79.576  70.900  13.233  0.00  0.00    -0.235 N 
ATOM     35  H   QIX d   1     -81.250  68.039  12.716  0.00  0.00     0.174 HD
ATOM     36  H   QIX d   1     -80.787  68.696  14.289  0.00  0.00     0.174 HD
ATOM     37  H   QIX d   1     -79.112  71.647  12.716  0.00  0.00     0.174 HD
ATOM     38  H   QIX d   1     -79.511  70.868  14.250  0.00  0.00     0.174 HD
ATOM     39  H   QIX d   1     -79.526  69.879  10.510  0.00  0.00     0.177 HD
ENDBRANCH  28  31
ENDBRANCH  25  28
ENDBRANCH  22  25
ENDBRANCH   1  22
BRANCH   1  40
ATOM     40  N09 QIX d   1     -82.016  70.905   5.743  0.00  0.00    -0.347 N 
ATOM     41  C10 QIX d   1     -81.071  71.030   4.622  0.00  0.00     0.223 C 
ATOM     42  O11 QIX d   1     -80.271  70.174   4.370  0.00  0.00    -0.273 OA
ATOM     43  H   QIX d   1     -82.748  71.609   5.835  0.00  0.00     0.163 HD
BRANCH  41  44
ATOM     44  C12 QIX d   1     -81.092  72.290   3.702  0.00  0.00     0.035 C 
ATOM     45  H   QIX d   1     -80.183  72.128   3.123  0.00  0.00     0.055 H 
BRANCH  44  46
ATOM     46  C13 QIX d   1     -82.448  72.383   2.933  0.00  0.00     0.023 C 
ATOM     47  H   QIX d   1     -82.761  73.427   2.932  0.00  0.00     0.048 H 
ATOM     48  H   QIX d   1     -83.162  71.730   3.434  0.00  0.00     0.048 H 
BRANCH  46  49
ATOM     49  C14 QIX d   1     -82.334  71.921   1.463  0.00  0.00     0.241 C 
ATOM     50  N16 QIX d   1     -82.376  72.993   0.508  0.00  0.00    -0.237 N 
ATOM     51  H   QIX d   1     -82.923  73.831   0.707  0.00  0.00     0.197 HD
ATOM     52  O15 QIX d   1     -81.733  70.938   1.183  0.00  0.00    -0.271 OA
BRANCH  50  53
ATOM     53  O17 QIX d   1     -81.672  72.891  -0.689  0.00  0.00    -0.287 OA
ATOM     54  H   QIX d   1     -80.737  72.785  -0.501  0.00  0.00     0.244 HD
ENDBRANCH  50  53
ENDBRANCH  46  49
ENDBRANCH  44  46
BRANCH  44  55
ATOM     55  C18 QIX d   1     -81.074  73.669   4.377  0.00  0.00    -0.029 C 
ATOM     56  H   QIX d   1     -82.003  73.827   4.925  0.00  0.00     0.041 H 
ATOM     57  H   QIX d   1     -80.980  74.451   3.623  0.00  0.00     0.041 H 
BRANCH  55  58
ATOM     58  C19 QIX d   1     -79.869  73.724   5.351  0.00  0.00    -0.057 A 
ATOM     59  C20 QIX d   1     -80.488  73.647   6.663  0.00  0.00    -0.076 A 
ATOM     60  C21 QIX d   1     -79.813  73.603   7.926  0.00  0.00    -0.072 A 
ATOM     61  H   QIX d   1     -81.577  73.620   6.689  0.00  0.00     0.084 H 
ATOM     62  C22 QIX d   1     -78.374  73.652   7.880  0.00  0.00    -0.026 A 
ATOM     63  H   QIX d   1     -80.357  73.536   8.868  0.00  0.00     0.084 H 
ATOM     64  C27 QIX d   1     -77.681  73.722   6.535  0.00  0.00    -0.025 A 
ATOM     65  C23 QIX d   1     -77.734  73.643   9.223  0.00  0.00    -0.072 A 
ATOM     66  C26 QIX d   1     -76.245  73.738   6.611  0.00  0.00    -0.072 A 
ATOM     67  C28 QIX d   1     -78.391  73.767   5.208  0.00  0.00    -0.066 A 
ATOM     68  C25 QIX d   1     -75.625  73.687   7.952  0.00  0.00    -0.082 A 
ATOM     69  H   QIX d   1     -75.634  73.786   5.710  0.00  0.00     0.084 H 
ATOM     70  C24 QIX d   1     -76.302  73.657   9.258  0.00  0.00    -0.082 A 
ATOM     71  H   QIX d   1     -74.535  73.669   7.976  0.00  0.00     0.083 H 
ATOM     72  H   QIX d   1     -75.747  73.646  10.196  0.00  0.00     0.083 H 
ATOM     73  H   QIX d   1     -77.877  73.825   4.248  0.00  0.00     0.085 H 
ATOM     74  H   QIX d   1     -78.327  73.626  10.137  0.00  0.00     0.084 H 
ENDBRANCH  55  58
ENDBRANCH  44  55
ENDBRANCH  41  44
ENDBRANCH   1  40
TORSDOF 16
