REMARK  11 active torsions:
REMARK  status: ('A' for Active; 'I' for Inactive)
REMARK    1  A    between atoms: C5_2  and  N27_16 
REMARK    2  A    between atoms: C7_4  and  C9_23 
REMARK    3  A    between atoms: C8_5  and  O33_32 
REMARK    4  A    between atoms: C10_6  and  N25_33 
REMARK    5  A    between atoms: C21_11  and  C17_9 
REMARK    6  A    between atoms: N26_28  and  C20_10 
REMARK    7  A    between atoms: C20_10  and  C19_29 
REMARK    8  A    between atoms: C19_29  and  C21_11 
REMARK    9  A    between atoms: C21_11  and  C16_30 
REMARK   10  A    between atoms: S35_13  and  C18_15 
REMARK   11  A    between atoms: N27_16  and  S35_13 
ROOT
ATOM      1  C7  N35 d   1      95.557   8.481  55.532  0.00  0.00     0.117 C 
ATOM      2  C8  N35 d   1      96.162   7.707  54.602  0.00  0.00     0.133 C 
ATOM      3  C10 N35 d   1      96.312   8.273  53.215  0.00  0.00     0.180 C 
ATOM      4  C11 N35 d   1      94.745   9.641  55.098  0.00  0.00     0.280 C 
ATOM      5  O28 N35 d   1      94.040  10.228  55.920  0.00  0.00    -0.265 OA
ATOM      6  N26 N35 d   1      94.900  10.032  53.783  0.00  0.00    -0.232 N 
ATOM      7  N23 N35 d   1      95.683   9.374  52.881  0.00  0.00    -0.148 NA
ENDROOT
BRANCH   1   8
ATOM      8  C9  N35 d   1      95.643   8.195  56.974  0.00  0.00     0.156 C 
ATOM      9  N24 N35 d   1      96.560   7.162  57.320  0.00  0.00    -0.263 N 
ATOM     10  S34 N35 d   1      96.707   6.662  58.934  0.00  0.00     0.266 S 
ATOM     11  H17 N35 d   1      97.118   6.731  56.611  0.00  0.00     0.180 HD
ATOM     12  C6  N35 d   1      96.090   8.042  59.834  0.00  0.00     0.110 A 
ATOM     13  O29 N35 d   1      98.109   6.580  59.250  0.00  0.00    -0.200 OA
ATOM     14  O30 N35 d   1      95.810   5.548  59.171  0.00  0.00    -0.200 OA
ATOM     15  C4  N35 d   1      95.257   8.948  59.171  0.00  0.00     0.082 A 
ATOM     16  C3  N35 d   1      96.434   8.213  61.191  0.00  0.00    -0.032 A 
ATOM     17  N22 N35 d   1      94.895   8.838  57.827  0.00  0.00    -0.228 NA
ATOM     18  C1  N35 d   1      94.751  10.047  59.892  0.00  0.00    -0.051 A 
ATOM     19  C2  N35 d   1      95.064  10.221  61.235  0.00  0.00    -0.054 A 
ATOM     20  H18 N35 d   1      94.110  10.765  59.394  0.00  0.00     0.087 H 
ATOM     21  C5  N35 d   1      95.899   9.318  61.886  0.00  0.00     0.043 A 
ATOM     22  H15 N35 d   1      94.655  11.065  61.779  0.00  0.00     0.087 H 
ATOM     23  H16 N35 d   1      97.094   7.512  61.688  0.00  0.00     0.089 H 
BRANCH  21  24
ATOM     24  N27 N35 d   1      96.187   9.569  63.267  0.00  0.00    -0.285 N 
ATOM     25  H14 N35 d   1      96.260  10.509  63.601  0.00  0.00     0.178 HD
BRANCH  24  26
ATOM     26  S35 N35 d   1      96.405   8.258  64.342  0.00  0.00     0.227 S 
ATOM     27  O32 N35 d   1      95.950   7.028  63.750  0.00  0.00    -0.206 OA
ATOM     28  O31 N35 d   1      95.929   8.629  65.664  0.00  0.00    -0.206 OA
BRANCH  26  29
ATOM     29  C18 N35 d   1      98.177   8.178  64.506  0.00  0.00     0.033 C 
ATOM     30  H11 N35 d   1      98.623   7.900  63.539  0.00  0.00     0.051 H 
ATOM     31  H12 N35 d   1      98.442   7.424  65.262  0.00  0.00     0.051 H 
ATOM     32  H13 N35 d   1      98.561   9.161  64.818  0.00  0.00     0.051 H 
ENDBRANCH  26  29
ENDBRANCH  24  26
ENDBRANCH  21  24
ENDBRANCH   1   8
BRANCH   2  33
ATOM     33  O33 N35 d   1      96.543   6.404  54.835  0.00  0.00    -0.356 OA
ATOM     34  H24 N35 d   1      97.466   6.304  54.634  0.00  0.00     0.218 HD
ENDBRANCH   2  33
BRANCH   3  35
ATOM     35  N25 N35 d   1      97.063   7.674  52.242  0.00  0.00    -0.362 N 
ATOM     36  C15 N35 d   1      97.369   8.331  50.974  0.00  0.00    -0.003 C 
ATOM     37  C13 N35 d   1      98.475   7.493  50.343  0.00  0.00    -0.049 C 
ATOM     38  H3  N35 d   1      96.481   8.348  50.325  0.00  0.00     0.064 H 
ATOM     39  H4  N35 d   1      97.717   9.360  51.147  0.00  0.00     0.064 H 
ATOM     40  C12 N35 d   1      99.208   6.991  51.572  0.00  0.00    -0.049 C 
ATOM     41  H1  N35 d   1      99.130   8.105  49.706  0.00  0.00     0.035 H 
ATOM     42  H2  N35 d   1      98.063   6.661  49.753  0.00  0.00     0.035 H 
ATOM     43  C14 N35 d   1      98.046   6.622  52.484  0.00  0.00    -0.003 C 
ATOM     44  H27 N35 d   1      99.834   7.778  52.017  0.00  0.00     0.035 H 
ATOM     45  H28 N35 d   1      99.831   6.115  51.339  0.00  0.00     0.035 H 
ATOM     46  H25 N35 d   1      97.638   5.636  52.218  0.00  0.00     0.064 H 
ATOM     47  H26 N35 d   1      98.362   6.616  53.538  0.00  0.00     0.064 H 
ENDBRANCH   3  35
BRANCH   6  48
ATOM     48  C20 N35 d   1      94.236  11.249  53.358  0.00  0.00     0.021 C 
ATOM     49  H8  N35 d   1      94.918  11.825  52.715  0.00  0.00     0.067 H 
ATOM     50  H9  N35 d   1      93.978  11.846  54.245  0.00  0.00     0.067 H 
BRANCH  48  51
ATOM     51  C19 N35 d   1      92.958  10.935  52.577  0.00  0.00    -0.045 C 
ATOM     52  H19 N35 d   1      93.261  10.586  51.579  0.00  0.00     0.036 H 
ATOM     53  H20 N35 d   1      92.393  11.874  52.481  0.00  0.00     0.036 H 
BRANCH  51  54
ATOM     54  C21 N35 d   1      92.001   9.882  53.160  0.00  0.00    -0.060 C 
ATOM     55  H10 N35 d   1      92.611   9.024  53.480  0.00  0.00     0.038 H 
BRANCH  54  56
ATOM     56  C17 N35 d   1      91.235  10.385  54.387  0.00  0.00    -0.073 C 
ATOM     57  H5  N35 d   1      90.570   9.590  54.756  0.00  0.00     0.028 H 
ATOM     58  H6  N35 d   1      90.635  11.265  54.110  0.00  0.00     0.028 H 
ATOM     59  H7  N35 d   1      91.949  10.662  55.177  0.00  0.00     0.028 H 
ENDBRANCH  54  56
BRANCH  54  60
ATOM     60  C16 N35 d   1      91.018   9.390  52.092  0.00  0.00    -0.073 C 
ATOM     61  H21 N35 d   1      90.345   8.639  52.531  0.00  0.00     0.028 H 
ATOM     62  H22 N35 d   1      91.577   8.939  51.259  0.00  0.00     0.028 H 
ATOM     63  H23 N35 d   1      90.426  10.239  51.719  0.00  0.00     0.028 H 
ENDBRANCH  54  60
ENDBRANCH  51  54
ENDBRANCH  48  51
ENDBRANCH   6  48
TORSDOF 11
