REMARK  1 active torsions:
REMARK  status: ('A' for Active; 'I' for Inactive)
REMARK    1  A    between atoms: C1_3  and  N1_4 
ROOT
ATOM      1  C7  5B1 d   1      33.756  40.677  36.476  0.00  0.00     0.041 A 
ATOM      2  C6  5B1 d   1      33.158  39.596  37.132  0.00  0.00    -0.050 A 
ATOM      3  C1  5B1 d   1      33.449  42.051  36.326  0.00  0.00     0.128 A 
ATOM      4  C5  5B1 d   1      33.783  38.350  37.023  0.00  0.00     0.012 A 
ATOM      5  C4  5B1 d   1      34.972  38.149  36.302  0.00  0.00    -0.064 A 
ATOM      6 BR1  5B1 d   1      32.945  36.907  37.913  0.00  0.00    -0.051 Br
ATOM      7  C3  5B1 d   1      35.584  39.227  35.642  0.00  0.00    -0.051 A 
ATOM      8  C2  5B1 d   1      34.940  40.472  35.755  0.00  0.00     0.091 A 
ATOM      9  N3  5B1 d   1      35.237  41.704  35.244  0.00  0.00    -0.172 NA
ATOM     10  N2  5B1 d   1      34.356  42.662  35.588  0.00  0.00    -0.262 N 
ATOM     11  H1  5B1 d   1      32.245  39.719  37.703  0.00  0.00     0.087 H 
ATOM     12  H4  5B1 d   1      35.417  37.162  36.255  0.00  0.00     0.085 H 
ATOM     13  H5  5B1 d   1      36.501  39.106  35.077  0.00  0.00     0.087 H 
ATOM     14  H6  5B1 d   1      34.384  43.659  35.330  0.00  0.00     0.191 HD
ENDROOT
BRANCH   3  15
ATOM     15  N1  5B1 d   1      32.380  42.661  36.863  0.00  0.00    -0.384 N 
ATOM     16  H2  5B1 d   1      32.228  43.668  36.706  0.00  0.00     0.157 HD
ATOM     17  H3  5B1 d   1      31.712  42.122  37.432  0.00  0.00     0.157 HD
ENDBRANCH   3  15
TORSDOF 1
