REMARK  2 active torsions:
REMARK  status: ('A' for Active; 'I' for Inactive)
REMARK    1  A    between atoms: C1_3  and  N1_4 
REMARK    2  A    between atoms: C5_5  and  C8_11 
ROOT
ATOM      1  C7  5B2 d   1      33.574  40.800  36.364  0.00  0.00     0.040 A 
ATOM      2  C6  5B2 d   1      32.897  39.753  37.026  0.00  0.00    -0.056 A 
ATOM      3  C1  5B2 d   1      33.357  42.187  36.156  0.00  0.00     0.128 A 
ATOM      4  C5  5B2 d   1      33.436  38.448  37.014  0.00  0.00    -0.025 A 
ATOM      5  C4  5B2 d   1      34.658  38.222  36.338  0.00  0.00    -0.070 A 
ATOM      6  C3  5B2 d   1      35.357  39.248  35.669  0.00  0.00    -0.052 A 
ATOM      7  C2  5B2 d   1      34.776  40.524  35.711  0.00  0.00     0.091 A 
ATOM      8  N3  5B2 d   1      35.169  41.725  35.175  0.00  0.00    -0.172 NA
ATOM      9  N2  5B2 d   1      34.322  42.740  35.431  0.00  0.00    -0.262 N 
ATOM     10  H1  5B2 d   1      31.965  39.951  37.543  0.00  0.00     0.086 H 
ATOM     11  H4  5B2 d   1      35.073  37.221  36.334  0.00  0.00     0.084 H 
ATOM     12  H5  5B2 d   1      36.291  39.061  35.151  0.00  0.00     0.087 H 
ATOM     13  H6  5B2 d   1      34.404  43.722  35.132  0.00  0.00     0.191 HD
ENDROOT
BRANCH   4  14
ATOM     14  C8  5B2 d   1      32.716  37.365  37.711  0.00  0.00    -0.026 A 
ATOM     15  C13 5B2 d   1      32.097  37.600  38.965  0.00  0.00    -0.072 A 
ATOM     16  C12 5B2 d   1      31.410  36.587  39.645  0.00  0.00    -0.082 A 
ATOM     17  H7  5B2 d   1      32.157  38.588  39.408  0.00  0.00     0.084 H 
ATOM     18  C11 5B2 d   1      31.314  35.318  39.069  0.00  0.00    -0.083 A 
ATOM     19  H8  5B2 d   1      30.957  36.786  40.609  0.00  0.00     0.083 H 
ATOM     20  C10 5B2 d   1      31.908  35.060  37.833  0.00  0.00    -0.082 A 
ATOM     21  H9  5B2 d   1      30.776  34.531  39.584  0.00  0.00     0.083 H 
ATOM     22  C9  5B2 d   1      32.607  36.074  37.150  0.00  0.00    -0.072 A 
ATOM     23  H10 5B2 d   1      31.831  34.071  37.395  0.00  0.00     0.083 H 
ATOM     24  H11 5B2 d   1      33.063  35.862  36.190  0.00  0.00     0.084 H 
ENDBRANCH   4  14
BRANCH   3  25
ATOM     25  N1  5B2 d   1      32.299  42.874  36.618  0.00  0.00    -0.384 N 
ATOM     26  H2  5B2 d   1      32.215  43.882  36.423  0.00  0.00     0.157 HD
ATOM     27  H3  5B2 d   1      31.572  42.393  37.167  0.00  0.00     0.157 HD
ENDBRANCH   3  25
TORSDOF 2
