REMARK  8 active torsions:
REMARK  status: ('A' for Active; 'I' for Inactive)
REMARK    1  A    between atoms: C2_10  and  C1_5 
REMARK    2  A    between atoms: N1_6  and  C2_10 
REMARK    3  A    between atoms: S1_11  and  N1_6 
REMARK    4  A    between atoms: C5_7  and  S1_11 
REMARK    5  A    between atoms: C2_10  and  C4_8 
REMARK    6  A    between atoms: C2_10  and  C3_9 
REMARK    7  A    between atoms: C8_14  and  C11_15 
REMARK    8  A    between atoms: C15_18  and  N4_19 
ROOT
ATOM      1  C7  5B3 d   1      32.636  36.398  37.006  0.00  0.00    -0.071 A 
ATOM      2  C6  5B3 d   1      31.848  35.409  37.603  0.00  0.00    -0.059 A 
ATOM      3  C5  5B3 d   1      31.270  35.655  38.851  0.00  0.00     0.079 A 
ATOM      4  C10 5B3 d   1      31.467  36.869  39.525  0.00  0.00    -0.059 A 
ATOM      5  C9  5B3 d   1      32.244  37.861  38.918  0.00  0.00    -0.071 A 
ATOM      6  C8  5B3 d   1      32.860  37.625  37.663  0.00  0.00    -0.026 A 
ATOM      7  H1  5B3 d   1      33.077  36.220  36.032  0.00  0.00     0.084 H 
ATOM      8  H2  5B3 d   1      31.687  34.461  37.102  0.00  0.00     0.085 H 
ATOM      9  H13 5B3 d   1      31.024  37.036  40.500  0.00  0.00     0.085 H 
ATOM     10  H14 5B3 d   1      32.376  38.817  39.411  0.00  0.00     0.084 H 
ENDROOT
BRANCH   3  11
ATOM     11  S1  5B3 d   1      30.276  34.375  39.591  0.00  0.00     0.259 S 
ATOM     12  O1  5B3 d   1      30.008  33.383  38.569  0.00  0.00    -0.201 OA
ATOM     13  O2  5B3 d   1      29.158  35.005  40.263  0.00  0.00    -0.201 OA
BRANCH  11  14
ATOM     14  N1  5B3 d   1      31.382  33.913  40.795  0.00  0.00    -0.307 N 
ATOM     15  H6  5B3 d   1      31.236  34.342  41.686  0.00  0.00     0.173 HD
BRANCH  14  16
ATOM     16  C2  5B3 d   1      32.537  32.969  40.735  0.00  0.00     0.029 C 
BRANCH  16  17
ATOM     17  C1  5B3 d   1      33.746  33.692  41.314  0.00  0.00    -0.053 C 
ATOM     18  H3  5B3 d   1      34.620  33.025  41.286  0.00  0.00     0.030 H 
ATOM     19  H4  5B3 d   1      33.537  33.980  42.355  0.00  0.00     0.030 H 
ATOM     20  H5  5B3 d   1      33.954  34.593  40.719  0.00  0.00     0.030 H 
ENDBRANCH  16  17
BRANCH  16  21
ATOM     21  C4  5B3 d   1      32.911  32.576  39.299  0.00  0.00    -0.053 C 
ATOM     22  H7  5B3 d   1      32.067  32.047  38.832  0.00  0.00     0.030 H 
ATOM     23  H8  5B3 d   1      33.792  31.917  39.317  0.00  0.00     0.030 H 
ATOM     24  H9  5B3 d   1      33.142  33.482  38.719  0.00  0.00     0.030 H 
ENDBRANCH  16  21
BRANCH  16  25
ATOM     25  C3  5B3 d   1      32.248  31.699  41.540  0.00  0.00    -0.053 C 
ATOM     26  H10 5B3 d   1      31.374  31.186  41.113  0.00  0.00     0.030 H 
ATOM     27  H11 5B3 d   1      32.041  31.967  42.587  0.00  0.00     0.030 H 
ATOM     28  H12 5B3 d   1      33.121  31.032  41.498  0.00  0.00     0.030 H 
ENDBRANCH  16  25
ENDBRANCH  14  16
ENDBRANCH  11  14
ENDBRANCH   3  11
BRANCH   6  29
ATOM     29  C11 5B3 d   1      33.639  38.662  36.979  0.00  0.00    -0.025 A 
ATOM     30  C17 5B3 d   1      33.098  39.966  37.008  0.00  0.00    -0.056 A 
ATOM     31  C16 5B3 d   1      33.758  41.015  36.333  0.00  0.00     0.040 A 
ATOM     32  H15 5B3 d   1      32.178  40.161  37.547  0.00  0.00     0.086 H 
ATOM     33  C15 5B3 d   1      33.539  42.405  36.131  0.00  0.00     0.128 A 
ATOM     34  C14 5B3 d   1      34.942  40.720  35.653  0.00  0.00     0.091 A 
ATOM     35  N3  5B3 d   1      34.507  42.943  35.384  0.00  0.00    -0.262 N 
ATOM     36  N2  5B3 d   1      35.336  41.921  35.109  0.00  0.00    -0.172 NA
ATOM     37  H18 5B3 d   1      34.598  43.924  35.085  0.00  0.00     0.191 HD
ATOM     38  C13 5B3 d   1      35.506  39.437  35.579  0.00  0.00    -0.052 A 
ATOM     39  C12 5B3 d   1      34.829  38.408  36.258  0.00  0.00    -0.070 A 
ATOM     40  H19 5B3 d   1      36.419  39.248  35.026  0.00  0.00     0.087 H 
ATOM     41  H20 5B3 d   1      35.227  37.400  36.228  0.00  0.00     0.084 H 
BRANCH  33  42
ATOM     42  N4  5B3 d   1      32.456  43.088  36.558  0.00  0.00    -0.384 N 
ATOM     43  H16 5B3 d   1      32.376  44.097  36.369  0.00  0.00     0.157 HD
ATOM     44  H17 5B3 d   1      31.709  42.600  37.073  0.00  0.00     0.157 HD
ENDBRANCH  33  42
ENDBRANCH   6  29
TORSDOF 8
