REMARK  10 active torsions:
REMARK  status: ('A' for Active; 'I' for Inactive)
REMARK    1  A    between atoms: N_1  and  CA_2 
REMARK    2  A    between atoms: CA_2  and  C_3 
REMARK    3  A    between atoms: CA_2  and  CB_6 
REMARK    4  A    between atoms: CB_6  and  CG_7 
REMARK    5  A    between atoms: CG_7  and  CD_8 
REMARK    6  A    between atoms: CD_8  and  CE_9 
REMARK    7  A    between atoms: CE_9  and  B_10 
REMARK    8  A    between atoms: B_10  and  O1_12 
REMARK    9  A    between atoms: B_10  and  O3_13 
REMARK   10  A    between atoms: B_10  and  O2_11 
ROOT
ATOM      1  CG  ABH d   1      22.314 -10.561   5.582  0.00  0.00    -0.063 C 
ATOM      2  H7  ABH d   1      22.726 -11.218   6.362  0.00  0.00     0.033 H 
ATOM      3  H8  ABH d   1      22.754 -10.827   4.609  0.00  0.00     0.033 H 
ENDROOT
BRANCH   1   4
ATOM      4  CB  ABH d   1      22.716  -9.124   5.909  0.00  0.00    -0.029 C 
ATOM      5  H5  ABH d   1      22.058  -8.454   5.336  0.00  0.00     0.036 H 
ATOM      6  H6  ABH d   1      22.551  -8.968   6.985  0.00  0.00     0.036 H 
BRANCH   4   7
ATOM      7  CA  ABH d   1      24.198  -8.722   5.591  0.00  0.00     0.182 C 
ATOM      8  H4  ABH d   1      24.430  -7.770   6.090  0.00  0.00     0.101 H 
BRANCH   7   9
ATOM      9  N   ABH d   1      24.393  -8.597   4.121  0.00  0.00    -0.065 N 
ATOM     10  H1  ABH d   1      23.770  -7.892   3.758  0.00  0.00     0.275 HD
ATOM     11  H2  ABH d   1      24.194  -9.481   3.679  0.00  0.00     0.275 HD
ATOM     12  H3  ABH d   1      25.347  -8.333   3.930  0.00  0.00     0.275 HD
ENDBRANCH   7   9
BRANCH   7  13
ATOM     13  C   ABH d   1      25.195  -9.824   6.051  0.00  0.00     0.204 C 
ATOM     14  O   ABH d   1      25.342 -10.219   7.171  0.00  0.00    -0.646 OA
ATOM     15  OT  ABH d   1      25.908 -10.316   5.013  0.00  0.00    -0.646 OA
ENDBRANCH   7  13
ENDBRANCH   4   7
ENDBRANCH   1   4
BRANCH   1  16
ATOM     16  CD  ABH d   1      20.817 -10.799   5.505  0.00  0.00    -0.071 C 
ATOM     17  H9  ABH d   1      20.416 -10.270   4.628  0.00  0.00     0.032 H 
ATOM     18  H10 ABH d   1      20.346 -10.406   6.418  0.00  0.00     0.032 H 
BRANCH  16  19
ATOM     19  CE  ABH d   1      20.488 -12.286   5.379  0.00  0.00    -0.069 C 
ATOM     20  H11 ABH d   1      20.750 -12.635   4.370  0.00  0.00     0.023 H 
ATOM     21  H13 ABH d   1      21.064 -12.853   6.125  0.00  0.00     0.023 H 
BRANCH  19  22
ATOM     22  B   ABH d   1      18.968 -12.699   5.275  0.00  0.00     0.318 B 
BRANCH  22  23
ATOM     23  O1  ABH d   1      18.472 -12.475   3.936  0.00  0.00     0.000 OA
ATOM     24  H16 ABH d   1      19.031 -12.925   3.313  0.00  0.00     0.000 HD
ATOM     25  H17 ABH d   1      19.031 -12.925   3.313  0.00  0.00     0.000 HD
ENDBRANCH  22  23
BRANCH  22  26
ATOM     26  O3  ABH d   1      18.082 -11.994   6.178  0.00  0.00     0.000 OA
ATOM     27  H18 ABH d   1      18.378 -12.119   7.072  0.00  0.00     0.000 HD
ATOM     28  H19 ABH d   1      18.378 -12.119   7.072  0.00  0.00     0.000 HD
ENDBRANCH  22  26
BRANCH  22  29
ATOM     29  O2  ABH d   1      18.829 -14.122   5.525  0.00  0.00    -0.467 OA
ATOM     30  H15 ABH d   1      18.634 -14.636   4.750  0.00  0.00     0.181 HD
ENDBRANCH  22  29
ENDBRANCH  19  22
ENDBRANCH  16  19
ENDBRANCH   1  16
TORSDOF 10
