REMARK  7 active torsions:
REMARK  status: ('A' for Active; 'I' for Inactive)
REMARK    1  A    between atoms: N_1  and  CA_2 
REMARK    2  A    between atoms: CA_2  and  C_3 
REMARK    3  A    between atoms: CA_2  and  CB_6 
REMARK    4  A    between atoms: CB_6  and  CG_7 
REMARK    5  A    between atoms: CG_7  and  CD_8 
REMARK    6  A    between atoms: CD_8  and  CE_9 
REMARK    7  A    between atoms: CE_9  and  B_10 
ROOT
ATOM      1  CG  ABH d   1      25.065 -12.505  -6.417  0.00  0.00    -0.062 C 
ATOM      2  H7  ABH d   1      24.364 -12.404  -7.259  0.00  0.00     0.033 H 
ATOM      3  H8  ABH d   1      24.555 -12.234  -5.481  0.00  0.00     0.033 H 
ENDROOT
BRANCH   1   4
ATOM      4  CB  ABH d   1      26.209 -11.522  -6.634  0.00  0.00    -0.029 C 
ATOM      5  H5  ABH d   1      27.091 -11.912  -6.106  0.00  0.00     0.036 H 
ATOM      6  H6  ABH d   1      26.416 -11.481  -7.714  0.00  0.00     0.036 H 
BRANCH   4   7
ATOM      7  CA  ABH d   1      25.966 -10.060  -6.140  0.00  0.00     0.182 C 
ATOM      8  H4  ABH d   1      26.705  -9.395  -6.611  0.00  0.00     0.101 H 
BRANCH   7   9
ATOM      9  N   ABH d   1      26.085  -9.998  -4.665  0.00  0.00    -0.065 N 
ATOM     10  H1  ABH d   1      27.003 -10.309  -4.389  0.00  0.00     0.275 HD
ATOM     11  H2  ABH d   1      25.388 -10.594  -4.246  0.00  0.00     0.275 HD
ATOM     12  H3  ABH d   1      25.945  -9.049  -4.356  0.00  0.00     0.275 HD
ENDBRANCH   7   9
BRANCH   7  13
ATOM     13  C   ABH d   1      24.518  -9.562  -6.467  0.00  0.00     0.204 C 
ATOM     14  O   ABH d   1      24.030  -9.469  -7.556  0.00  0.00    -0.646 OA
ATOM     15  OT  ABH d   1      23.826  -9.224  -5.347  0.00  0.00    -0.646 OA
ENDBRANCH   7  13
ENDBRANCH   4   7
ENDBRANCH   1   4
BRANCH   1  16
ATOM     16  CD  ABH d   1      25.479 -13.958  -6.322  0.00  0.00    -0.053 C 
ATOM     17  H9  ABH d   1      26.243 -14.062  -5.537  0.00  0.00     0.034 H 
ATOM     18  H10 ABH d   1      25.900 -14.274  -7.288  0.00  0.00     0.034 H 
BRANCH  16  19
ATOM     19  CE  ABH d   1      24.288 -14.855  -5.980  0.00  0.00     0.032 C 
ATOM     20  H11 ABH d   1      23.676 -15.011  -6.881  0.00  0.00     0.056 H 
ATOM     21  H12 ABH d   1      23.678 -14.373  -5.202  0.00  0.00     0.056 H 
BRANCH  19  22
ATOM     22 B    ABH d   1      24.565 -16.407  -5.827  0.00  0.00     0.201 Br
ATOM     23  O1  ABH d   1      25.378 -16.658  -4.667  0.00  0.00    -0.120 OA
ATOM     24  O3  ABH d   1      25.224 -17.014  -6.955  0.00  0.00    -0.120 OA
ATOM     25  O2  ABH d   1      23.335 -17.133  -5.605  0.00  0.00    -0.120 OA
ENDBRANCH  19  22
ENDBRANCH  16  19
ENDBRANCH   1  16
TORSDOF 7
