REMARK  15 active torsions:
REMARK  status: ('A' for Active; 'I' for Inactive)
REMARK    1  A    between atoms: N1_1  and  CA1_2 
REMARK    2  A    between atoms: CA1_2  and  C1_3 
REMARK    3  A    between atoms: CA1_2  and  CB1_6 
REMARK    4  A    between atoms: CB1_6  and  CG1_7 
REMARK    5  A    between atoms: CG1_7  and  CD1_8 
REMARK    6  A    between atoms: CD1_8  and  OE1_9 
REMARK    7  A    between atoms: CD1_8  and  N2_10 
REMARK    8  A    between atoms: N2_10  and  CA2_11 
REMARK    9  A    between atoms: CA2_11  and  C2_12 
REMARK   10  A    between atoms: CA2_11  and  CB2_14 
REMARK   11  A    between atoms: C2_12  and  O2_13 
REMARK   12  A    between atoms: C2_12  and  N3_16 
REMARK   13  A    between atoms: CB2_14  and  SG2_15 
REMARK   14  A    between atoms: N3_16  and  CA3_17 
REMARK   15  A    between atoms: CA3_17  and  C3_18 
ROOT
ATOM      1  N2  GSH d   1     134.127 254.908 137.003  0.00  0.00    -0.040 N 
ATOM      2  H11 GSH d   1     134.340 254.136 137.615  0.00  0.00     0.280 HD
ATOM      3  H12 GSH d   1     134.932 255.510 136.929  0.00  0.00     0.280 HD
ENDROOT
BRANCH   1   4
ATOM      4  CD1 GSH d   1     133.085 255.681 137.651  0.00  0.00     0.190 C 
ATOM      5  H9  GSH d   1     133.419 255.967 138.659  0.00  0.00     0.128 H 
BRANCH   4   6
ATOM      6  CG1 GSH d   1     132.791 256.940 136.843  0.00  0.00    -0.015 C 
ATOM      7  H7  GSH d   1     133.740 257.431 136.584  0.00  0.00     0.039 H 
ATOM      8  H8  GSH d   1     132.260 256.660 135.921  0.00  0.00     0.039 H 
BRANCH   6   9
ATOM      9  CB1 GSH d   1     131.928 257.911 137.640  0.00  0.00    -0.025 C 
ATOM     10  H5  GSH d   1     131.330 257.345 138.370  0.00  0.00     0.037 H 
ATOM     11  H6  GSH d   1     132.581 258.619 138.171  0.00  0.00     0.037 H 
BRANCH   9  12
ATOM     12  CA1 GSH d   1     130.991 258.688 136.723  0.00  0.00     0.182 C 
ATOM     13  H4  GSH d   1     130.731 258.067 135.853  0.00  0.00     0.101 H 
BRANCH  12  14
ATOM     14  N1  GSH d   1     131.649 259.899 136.273  0.00  0.00    -0.065 N 
ATOM     15  H1  GSH d   1     132.488 259.658 135.770  0.00  0.00     0.275 HD
ATOM     16  H2  GSH d   1     131.887 260.468 137.070  0.00  0.00     0.275 HD
ATOM     17  H3  GSH d   1     131.029 260.413 135.666  0.00  0.00     0.275 HD
ENDBRANCH  12  14
BRANCH  12  18
ATOM     18  C1  GSH d   1     129.742 259.047 137.472  0.00  0.00     0.204 C 
ATOM     19  O11 GSH d   1     129.845 259.750 138.500  0.00  0.00    -0.646 OA
ATOM     20  O12 GSH d   1     128.646 258.629 137.039  0.00  0.00    -0.646 OA
ENDBRANCH  12  18
ENDBRANCH   9  12
ENDBRANCH   6   9
ENDBRANCH   4   6
BRANCH   4  21
ATOM     21  OE1 GSH d   1     131.896 254.890 137.751  0.00  0.00    -0.370 OA
ATOM     22  H10 GSH d   1     131.610 254.639 136.881  0.00  0.00     0.212 HD
ENDBRANCH   4  21
ENDBRANCH   1   4
BRANCH   1  23
ATOM     23  CA2 GSH d   1     133.901 254.347 135.685  0.00  0.00     0.161 C 
ATOM     24  H13 GSH d   1     132.833 254.445 135.438  0.00  0.00     0.092 H 
BRANCH  23  25
ATOM     25  C2  GSH d   1     134.266 252.868 135.679  0.00  0.00     0.219 C 
ATOM     26  H14 GSH d   1     133.464 252.298 135.187  0.00  0.00     0.132 H 
BRANCH  25  27
ATOM     27  O2  GSH d   1     135.491 252.682 134.960  0.00  0.00    -0.368 OA
ATOM     28  H15 GSH d   1     135.385 252.995 134.069  0.00  0.00     0.212 HD
ENDBRANCH  25  27
BRANCH  25  29
ATOM     29  N3  GSH d   1     134.426 252.391 137.038  0.00  0.00    -0.037 N 
ATOM     30  H19 GSH d   1     133.929 251.516 137.100  0.00  0.00     0.280 HD
ATOM     31  H20 GSH d   1     133.986 253.071 137.638  0.00  0.00     0.280 HD
BRANCH  29  32
ATOM     32  CA3 GSH d   1     135.753 252.157 137.573  0.00  0.00     0.163 C 
ATOM     33  H21 GSH d   1     136.291 253.115 137.626  0.00  0.00     0.092 H 
ATOM     34  H22 GSH d   1     136.292 251.470 136.903  0.00  0.00     0.092 H 
BRANCH  32  35
ATOM     35  C3  GSH d   1     135.697 251.550 138.955  0.00  0.00     0.199 C 
ATOM     36  O31 GSH d   1     136.768 251.203 139.498  0.00  0.00    -0.647 OA
ATOM     37  O32 GSH d   1     134.581 251.417 139.503  0.00  0.00    -0.647 OA
ENDBRANCH  32  35
ENDBRANCH  29  32
ENDBRANCH  25  29
ENDBRANCH  23  25
BRANCH  23  38
ATOM     38  CB2 GSH d   1     134.710 255.114 134.646  0.00  0.00     0.005 C 
ATOM     39  H16 GSH d   1     135.764 254.809 134.724  0.00  0.00     0.051 H 
ATOM     40  H17 GSH d   1     134.623 256.190 134.856  0.00  0.00     0.051 H 
BRANCH  38  41
ATOM     41  SG2 GSH d   1     134.140 254.804 132.957  0.00  0.00    -0.180 SA
ATOM     42  H18 GSH d   1     134.705 255.332 132.311  0.00  0.00     0.101 HD
ENDBRANCH  38  41
ENDBRANCH  23  38
ENDBRANCH   1  23
TORSDOF 15
