REMARK  21 active torsions:
REMARK  status: ('A' for Active; 'I' for Inactive)
REMARK    1  A    between atoms: C2_4  and  C1_1 
REMARK    2  A    between atoms: C3_6  and  C4_9 
REMARK    3  A    between atoms: CA_11  and  CB_14 
REMARK    4  A    between atoms: CB_14  and  CG_15 
REMARK    5  A    between atoms: CG_15  and  CD_16 
REMARK    6  A    between atoms: CD_16  and  NE_17 
REMARK       I    between atoms: NE_17  and  CZ_18 
REMARK       I    between atoms: CZ_18  and  NH1_19 
REMARK    7  A    between atoms: C21_22  and  CM2_26 
REMARK    8  A    between atoms: C41_30  and  C31_25 
REMARK    9  A    between atoms: C8_33  and  C7_27 
REMARK   10  A    between atoms: C6_28  and  C51_29 
REMARK   11  A    between atoms: C6_28  and  CM6_43 
REMARK   12  A    between atoms: C'_31  and  C9_32 
REMARK   13  A    between atoms: C1'_37  and  C'_31 
REMARK   14  A    between atoms: C9_32  and  C8_33 
REMARK   15  A    between atoms: C9_32  and  O9_40 
REMARK   16  A    between atoms: C8_33  and  CM8_42 
REMARK   17  A    between atoms: O9_40  and  CM9_41 
REMARK   18  A    between atoms: CA1_45  and  CC_46 
REMARK   19  A    between atoms: N4_53  and  CM_54 
REMARK   20  A    between atoms: CA2_55  and  CB2_58 
REMARK   21  A    between atoms: CB2_58  and  CG2_59 
ROOT
ATOM      1  C2  ACB d   1      12.864 -39.822  10.566  0.00  0.00     0.108 C 
ATOM      2  N2  ACB d   1      11.639 -40.608  10.611  0.00  0.00    -0.340 N 
ATOM      3  C3  ACB d   1      13.635 -39.999  11.883  0.00  0.00     0.049 C 
ATOM      4  C   ACB d   1      12.796 -39.566  13.055  0.00  0.00     0.224 C 
ATOM      5  O   ACB d   1      11.744 -40.156  13.292  0.00  0.00    -0.273 OA
ATOM      6  H1  ACB d   1      13.487 -40.198   9.741  0.00  0.00     0.091 H 
ATOM      7  H2  ACB d   1      11.414 -41.078  11.464  0.00  0.00     0.163 HD
ATOM      8  H3  ACB d   1      14.533 -39.365  11.842  0.00  0.00     0.058 H 
ATOM      9  N   ARG d   1      13.229 -38.521  13.763  0.00  0.00    -0.347 N 
ATOM     10  CA  ARG d   1      12.464 -37.902  14.832  0.00  0.00     0.089 C 
ATOM     11  C5  ARG d   1      11.918 -36.535  14.477  0.00  0.00     0.241 C 
ATOM     12  O3  ARG d   1      11.005 -36.107  15.171  0.00  0.00    -0.271 OA
ATOM     13  H7  ARG d   1      14.129 -38.143  13.546  0.00  0.00     0.163 HD
ATOM     14  H8  ARG d   1      11.605 -38.556  15.043  0.00  0.00     0.087 H 
ATOM     15  N3  1ZN d   1      12.432 -35.866  13.432  0.00  0.00    -0.351 N 
ATOM     16  C21 1ZN d   1      10.916 -34.728  11.887  0.00  0.00     0.043 C 
ATOM     17  C11 1ZN d   1       9.696 -35.364  12.513  0.00  0.00     0.224 C 
ATOM     18  O11 1ZN d   1       8.949 -34.654  13.167  0.00  0.00    -0.273 OA
ATOM     19  C31 1ZN d   1      11.981 -34.549  12.982  0.00  0.00     0.040 C 
ATOM     20  H20 1ZN d   1      13.177 -36.300  12.925  0.00  0.00     0.163 HD
ATOM     21  H21 1ZN d   1      11.315 -35.397  11.110  0.00  0.00     0.057 H 
ATOM     22  H22 1ZN d   1      11.531 -34.017  13.833  0.00  0.00     0.080 H 
ATOM     23  N1  FGA d   1       9.471 -36.671  12.370  0.00  0.00    -0.346 N 
ATOM     24  CA1 FGA d   1       8.285 -37.300  12.961  0.00  0.00     0.096 C 
ATOM     25  CB1 FGA d   1       8.436 -38.825  13.109  0.00  0.00    -0.029 C 
ATOM     26  CG1 FGA d   1       8.554 -39.589  11.797  0.00  0.00     0.012 C 
ATOM     27  CD1 FGA d   1       8.768 -41.072  12.066  0.00  0.00     0.224 C 
ATOM     28  OE1 FGA d   1       8.494 -41.504  13.184  0.00  0.00    -0.273 OA
ATOM     29  H47 FGA d   1      10.120 -37.230  11.853  0.00  0.00     0.163 HD
ATOM     30  H48 FGA d   1       8.181 -36.881  13.973  0.00  0.00     0.089 H 
ATOM     31  H49 FGA d   1       7.555 -39.205  13.647  0.00  0.00     0.037 H 
ATOM     32  H50 FGA d   1       9.341 -39.023  13.702  0.00  0.00     0.037 H 
ATOM     33  H51 FGA d   1       9.408 -39.197  11.225  0.00  0.00     0.047 H 
ATOM     34  H52 FGA d   1       7.630 -39.456  11.215  0.00  0.00     0.047 H 
ATOM     35  N4  MDH d   1       9.232 -41.869  11.095  0.00  0.00    -0.318 N 
ATOM     36  CA2 MDH d   1       9.493 -41.362   9.862  0.00  0.00     0.101 C 
ATOM     37  CE  MDH d   1      10.804 -40.738   9.590  0.00  0.00     0.268 C 
ATOM     38  O5  MDH d   1      11.111 -40.304   8.483  0.00  0.00    -0.266 OA
ENDROOT
BRANCH  19  39
ATOM     39  C41 1ZN d   1      13.146 -33.732  12.464  0.00  0.00    -0.080 C 
ATOM     40  C51 1ZN d   1      13.693 -32.786  13.221  0.00  0.00    -0.079 C 
ATOM     41  H27 1ZN d   1      13.276 -32.605  14.210  0.00  0.00     0.083 H 
ATOM     42  H28 1ZN d   1      13.538 -33.920  11.466  0.00  0.00     0.080 H 
BRANCH  40  43
ATOM     43  C6  1ZN d   1      14.844 -31.968  12.778  0.00  0.00    -0.066 C 
ATOM     44  C7  1ZN d   1      15.316 -31.064  13.666  0.00  0.00    -0.091 C 
ATOM     45  H26 1ZN d   1      14.815 -30.982  14.629  0.00  0.00     0.078 H 
BRANCH  44  46
ATOM     46  C8  1ZN d   1      16.496 -30.163  13.400  0.00  0.00    -0.015 C 
ATOM     47  H32 1ZN d   1      16.863 -30.355  12.381  0.00  0.00     0.049 H 
BRANCH  46  48
ATOM     48  C9  1ZN d   1      16.141 -28.683  13.507  0.00  0.00     0.048 C 
ATOM     49  H31 1ZN d   1      15.736 -28.471  14.507  0.00  0.00     0.084 H 
BRANCH  48  50
ATOM     50  C'  1ZN d   1      15.104 -28.298  12.452  0.00  0.00    -0.016 C 
ATOM     51  H29 1ZN d   1      14.206 -28.916  12.602  0.00  0.00     0.043 H 
ATOM     52  H30 1ZN d   1      15.526 -28.500  11.457  0.00  0.00     0.043 H 
BRANCH  50  53
ATOM     53  C1' 1ZN d   1      14.700 -26.835  12.518  0.00  0.00    -0.056 A 
ATOM     54  C2' 1ZN d   1      15.041 -25.968  11.482  0.00  0.00    -0.077 A 
ATOM     55  C3' 1ZN d   1      14.664 -24.625  11.523  0.00  0.00    -0.082 A 
ATOM     56  H35 1ZN d   1      15.605 -26.341  10.635  0.00  0.00     0.084 H 
ATOM     57  C4' 1ZN d   1      13.924 -24.146  12.595  0.00  0.00    -0.083 A 
ATOM     58  H34 1ZN d   1      14.949 -23.957  10.719  0.00  0.00     0.083 H 
ATOM     59  C5' 1ZN d   1      13.580 -25.006  13.629  0.00  0.00    -0.082 A 
ATOM     60  H33 1ZN d   1      13.617 -23.107  12.625  0.00  0.00     0.083 H 
ATOM     61  C6' 1ZN d   1      13.963 -26.344  13.589  0.00  0.00    -0.077 A 
ATOM     62  H37 1ZN d   1      13.010 -24.634  14.473  0.00  0.00     0.083 H 
ATOM     63  H36 1ZN d   1      13.684 -27.008  14.399  0.00  0.00     0.084 H 
ENDBRANCH  50  53
ENDBRANCH  48  50
BRANCH  48  64
ATOM     64  O9  1ZN d   1      17.342 -27.935  13.301  0.00  0.00    -0.390 OA
BRANCH  64  65
ATOM     65  CM9 1ZN d   1      17.546 -26.988  14.357  0.00  0.00     0.004 C 
ATOM     66  H38 1ZN d   1      18.475 -26.428  14.173  0.00  0.00     0.066 H 
ATOM     67  H39 1ZN d   1      17.623 -27.520  15.317  0.00  0.00     0.066 H 
ATOM     68  H40 1ZN d   1      16.697 -26.289  14.392  0.00  0.00     0.066 H 
ENDBRANCH  64  65
ENDBRANCH  48  64
ENDBRANCH  46  48
BRANCH  46  69
ATOM     69  CM8 1ZN d   1      17.593 -30.523  14.404  0.00  0.00    -0.067 C 
ATOM     70  H41 1ZN d   1      17.836 -31.592  14.313  0.00  0.00     0.028 H 
ATOM     71  H42 1ZN d   1      17.240 -30.312  15.424  0.00  0.00     0.028 H 
ATOM     72  H43 1ZN d   1      18.491 -29.924  14.196  0.00  0.00     0.028 H 
ENDBRANCH  46  69
ENDBRANCH  44  46
BRANCH  43  73
ATOM     73  CM6 1ZN d   1      15.450 -32.195  11.413  0.00  0.00    -0.051 C 
ATOM     74  H44 1ZN d   1      16.288 -31.499  11.264  0.00  0.00     0.033 H 
ATOM     75  H45 1ZN d   1      14.687 -32.022  10.640  0.00  0.00     0.033 H 
ATOM     76  H46 1ZN d   1      15.816 -33.230  11.342  0.00  0.00     0.033 H 
ENDBRANCH  43  73
ENDBRANCH  40  43
ENDBRANCH  19  39
BRANCH  16  77
ATOM     77  CM2 1ZN d   1      10.535 -33.390  11.231  0.00  0.00    -0.062 C 
ATOM     78  H23 1ZN d   1       9.773 -33.565  10.457  0.00  0.00     0.028 H 
ATOM     79  H24 1ZN d   1      11.427 -32.939  10.772  0.00  0.00     0.028 H 
ATOM     80  H25 1ZN d   1      10.132 -32.709  11.995  0.00  0.00     0.028 H 
ENDBRANCH  16  77
BRANCH  10  81
ATOM     81  CB  ARG d   1      13.311 -37.805  16.099  0.00  0.00    -0.036 C 
ATOM     82  H9  ARG d   1      12.850 -37.086  16.792  0.00  0.00     0.036 H 
ATOM     83  H10 ARG d   1      14.323 -37.463  15.836  0.00  0.00     0.036 H 
BRANCH  81  84
ATOM     84  CG  ARG d   1      13.398 -39.179  16.775  0.00  0.00    -0.048 C 
ATOM     85  H11 ARG d   1      13.237 -39.959  16.017  0.00  0.00     0.035 H 
ATOM     86  H12 ARG d   1      12.614 -39.248  17.543  0.00  0.00     0.035 H 
BRANCH  84  87
ATOM     87  CD  ARG d   1      14.753 -39.404  17.433  0.00  0.00     0.009 C 
ATOM     88  H13 ARG d   1      14.740 -40.366  17.966  0.00  0.00     0.064 H 
ATOM     89  H14 ARG d   1      14.946 -38.591  18.148  0.00  0.00     0.064 H 
BRANCH  87  90
ATOM     90  NE  ARG d   1      15.810 -39.425  16.440  0.00  0.00    -0.227 N 
ATOM     91  CZ  ARG d   1      16.001 -40.456  15.616  0.00  0.00     0.665 C 
ATOM     92  NH1 ARG d   1      16.906 -40.332  14.647  0.00  0.00    -0.235 N 
ATOM     93  NH2 ARG d   1      15.275 -41.572  15.748  0.00  0.00    -0.235 N 
ATOM     94  H16 ARG d   1      17.074 -41.112  13.996  0.00  0.00     0.174 HD
ATOM     95  H17 ARG d   1      17.438 -39.456  14.548  0.00  0.00     0.174 HD
ATOM     96  H18 ARG d   1      14.580 -41.648  16.504  0.00  0.00     0.174 HD
ATOM     97  H19 ARG d   1      15.411 -42.355  15.093  0.00  0.00     0.174 HD
ATOM     98  H15 ARG d   1      16.438 -38.612  16.368  0.00  0.00     0.177 HD
ENDBRANCH  87  90
ENDBRANCH  84  87
ENDBRANCH  81  84
ENDBRANCH  10  81
BRANCH  24  99
ATOM     99  CC  FGA d   1       7.000 -36.996  12.218  0.00  0.00     0.196 C 
ATOM    100  O4  FGA d   1       5.940 -36.820  12.871  0.00  0.00    -0.646 OA
ATOM    101  OXT FGA d   1       7.028 -36.929  10.980  0.00  0.00    -0.646 OA
ENDBRANCH  24  99
BRANCH   3 102
ATOM    102  C4  ACB d   1      14.076 -41.453  12.082  0.00  0.00    -0.062 C 
ATOM    103  H4  ACB d   1      14.623 -41.543  13.032  0.00  0.00     0.028 H 
ATOM    104  H5  ACB d   1      14.731 -41.755  11.251  0.00  0.00     0.028 H 
ATOM    105  H6  ACB d   1      13.190 -42.105  12.106  0.00  0.00     0.028 H 
ENDBRANCH   3 102
BRANCH   1 106
ATOM    106  C1  ACB d   1      12.580 -38.356  10.314  0.00  0.00     0.197 C 
ATOM    107  O1  ACB d   1      13.484 -37.645   9.825  0.00  0.00    -0.646 OA
ATOM    108  O2  ACB d   1      11.445 -37.889  10.614  0.00  0.00    -0.646 OA
ENDBRANCH   1 106
BRANCH  35 109
ATOM    109  CM  MDH d   1       9.454 -43.286  11.358  0.00  0.00    -0.011 C 
ATOM    110  H53 MDH d   1       9.190 -43.511  12.402  0.00  0.00     0.057 H 
ATOM    111  H54 MDH d   1      10.513 -43.529  11.187  0.00  0.00     0.057 H 
ATOM    112  H55 MDH d   1       8.827 -43.887  10.683  0.00  0.00     0.057 H 
ENDBRANCH  35 109
BRANCH  36 113
ATOM    113  CB2 MDH d   1       8.536 -41.443   8.917  0.00  0.00    -0.075 C 
ATOM    114  H56 MDH d   1       8.732 -41.033   7.927  0.00  0.00     0.080 H 
BRANCH 113 115
ATOM    115  CG2 MDH d   1       7.196 -42.089   9.195  0.00  0.00    -0.057 C 
ATOM    116  H57 MDH d   1       6.573 -42.045   8.290  0.00  0.00     0.032 H 
ATOM    117  H58 MDH d   1       6.693 -41.552  10.013  0.00  0.00     0.032 H 
ATOM    118  H59 MDH d   1       7.348 -43.139   9.485  0.00  0.00     0.032 H 
ENDBRANCH 113 115
ENDBRANCH  36 113
TORSDOF 21
