REMARK WARNING: 32 MAX_TORS EXCEEDED!!!
REMARK  36 active torsions:
REMARK  status: ('A' for Active; 'I' for Inactive)
REMARK    1  A    between atoms: C1_1  and  C2_2 
REMARK    2  A    between atoms: C2_2  and  C3_4 
REMARK    3  A    between atoms: C3_4  and  C30_5 
REMARK    4  A    between atoms: C3_4  and  C4_6 
REMARK    5  A    between atoms: C4_6  and  C5_7 
REMARK    6  A    between atoms: C5_7  and  C6_8 
REMARK    7  A    between atoms: C7_10  and  C25_11 
REMARK    8  A    between atoms: C13_18  and  C28_19 
REMARK    9  A    between atoms: C14_20  and  C15_21 
REMARK   10  A    between atoms: C15_21  and  C26_22 
REMARK   11  A    between atoms: C15_21  and  C16_23 
REMARK   12  A    between atoms: C16_23  and  C17_24 
REMARK   13  A    between atoms: C17_24  and  C18_25 
REMARK   14  A    between atoms: C18_25  and  O4_26 
REMARK   15  A    between atoms: C18_25  and  C19_27 
REMARK   16  A    between atoms: C19_27  and  C27_28 
REMARK   17  A    between atoms: C19_27  and  C20_29 
REMARK   18  A    between atoms: C20_29  and  C21_31 
REMARK   19  A    between atoms: C21_31  and  C22_32 
REMARK   20  A    between atoms: C22_32  and  O5_33 
REMARK   21  A    between atoms: C22_32  and  C23_34 
REMARK   22  A    between atoms: C23_34  and  O6_35 
REMARK   23  A    between atoms: C23_34  and  C24_37 
REMARK   24  A    between atoms: O6_35  and  C29_36 
REMARK   25  A    between atoms: C24_37  and  C31_38 
REMARK   26  A    between atoms: C24_37  and  O7_41 
REMARK   27  A    between atoms: C31_38  and  C33_39 
REMARK   28  A    between atoms: C31_38  and  C32_40 
REMARK   29  A    between atoms: O7_41  and  C1'_42 
REMARK   30  A    between atoms: C1'_42  and  C2'_44 
REMARK   31  A    between atoms: C2'_44  and  C3'_45 
REMARK   32  A    between atoms: C3'_45  and  O11_46 
REMARK   33  A    between atoms: C3'_45  and  C4'_47 
REMARK   34  A    between atoms: C4'_47  and  C7'_48 
REMARK   35  A    between atoms: C5'_51  and  C41_52 
REMARK   36  A    between atoms: C5'_51  and  C6'_53 
ROOT
ATOM      1  C17 E7B d   1      14.069  32.305 -12.249  0.00  0.00    -0.040 C 
ATOM      2  H36 E7B d   1      14.715  33.039 -11.745  0.00  0.00     0.036 H 
ATOM      3  H37 E7B d   1      13.448  31.789 -11.502  0.00  0.00     0.036 H 
ENDROOT
BRANCH   1   4
ATOM      4  C16 E7B d   1      14.944  31.279 -12.967  0.00  0.00    -0.057 C 
ATOM      5  H34 E7B d   1      14.331  30.392 -13.188  0.00  0.00     0.033 H 
ATOM      6  H35 E7B d   1      15.300  31.723 -13.909  0.00  0.00     0.033 H 
BRANCH   4   7
ATOM      7  C15 E7B d   1      16.172  30.832 -12.142  0.00  0.00    -0.032 C 
ATOM      8  H30 E7B d   1      16.840  31.698 -12.025  0.00  0.00     0.043 H 
BRANCH   7   9
ATOM      9  C14 E7B d   1      16.946  29.721 -12.891  0.00  0.00     0.048 C 
ATOM     10  O1  E7B d   1      17.986  29.321 -12.000  0.00  0.00    -0.349 OA
ATOM     11  C10 E7B d   1      18.805  28.264 -12.423  0.00  0.00     0.165 C 
ATOM     12  O2  E7B d   1      18.057  27.038 -12.566  0.00  0.00    -0.349 OA
ATOM     13  C9  E7B d   1      19.865  28.131 -11.324  0.00  0.00    -0.012 C 
ATOM     14  C11 E7B d   1      19.477  28.604 -13.771  0.00  0.00    -0.012 C 
ATOM     15  C6  E7B d   1      17.368  26.632 -11.322  0.00  0.00     0.045 C 
ATOM     16  C7  E7B d   1      18.418  26.379 -10.219  0.00  0.00    -0.032 C 
ATOM     17  H12 E7B d   1      16.714  27.446 -10.975  0.00  0.00     0.084 H 
ATOM     18  C8  E7B d   1      19.250  27.656  -9.986  0.00  0.00    -0.055 C 
ATOM     19  H13 E7B d   1      19.103  25.605 -10.595  0.00  0.00     0.043 H 
ATOM     20  H17 E7B d   1      20.056  27.441  -9.269  0.00  0.00     0.033 H 
ATOM     21  H18 E7B d   1      18.601  28.446  -9.581  0.00  0.00     0.033 H 
ATOM     22  H19 E7B d   1      20.622  27.401 -11.646  0.00  0.00     0.041 H 
ATOM     23  H20 E7B d   1      20.342  29.110 -11.169  0.00  0.00     0.041 H 
ATOM     24  C12 E7B d   1      18.471  29.072 -14.823  0.00  0.00    -0.055 C 
ATOM     25  H21 E7B d   1      19.989  27.706 -14.147  0.00  0.00     0.041 H 
ATOM     26  H22 E7B d   1      20.214  29.404 -13.606  0.00  0.00     0.041 H 
ATOM     27  C13 E7B d   1      17.517  30.141 -14.276  0.00  0.00    -0.032 C 
ATOM     28  H23 E7B d   1      17.880  28.207 -15.157  0.00  0.00     0.033 H 
ATOM     29  H24 E7B d   1      19.021  29.492 -15.678  0.00  0.00     0.033 H 
ATOM     30  H25 E7B d   1      16.661  30.176 -14.966  0.00  0.00     0.043 H 
ATOM     31  H29 E7B d   1      16.266  28.873 -13.059  0.00  0.00     0.084 H 
BRANCH  15  32
ATOM     32  C5  E7B d   1      16.483  25.443 -11.724  0.00  0.00    -0.040 C 
ATOM     33  H10 E7B d   1      17.120  24.612 -12.062  0.00  0.00     0.036 H 
ATOM     34  H11 E7B d   1      15.889  25.121 -10.856  0.00  0.00     0.036 H 
BRANCH  32  35
ATOM     35  C4  E7B d   1      15.537  25.856 -12.864  0.00  0.00    -0.053 C 
ATOM     36  H8  E7B d   1      14.912  26.698 -12.530  0.00  0.00     0.034 H 
ATOM     37  H9  E7B d   1      16.133  26.165 -13.736  0.00  0.00     0.034 H 
BRANCH  35  38
ATOM     38  C3  E7B d   1      14.637  24.685 -13.257  0.00  0.00     0.000 C 
ATOM     39  H4  E7B d   1      15.266  23.804 -13.455  0.00  0.00     0.051 H 
BRANCH  38  40
ATOM     40  C2  E7B d   1      13.701  24.398 -12.084  0.00  0.00     0.126 C 
ATOM     41  O3  E7B d   1      12.787  25.181 -11.834  0.00  0.00    -0.298 OA
BRANCH  40  42
ATOM     42  C1  E7B d   1      13.928  23.138 -11.258  0.00  0.00    -0.021 C 
ATOM     43  H1  E7B d   1      14.794  22.590 -11.656  0.00  0.00     0.037 H 
ATOM     44  H2  E7B d   1      13.034  22.499 -11.310  0.00  0.00     0.037 H 
ATOM     45  H3  E7B d   1      14.120  23.416 -10.211  0.00  0.00     0.037 H 
ENDBRANCH  40  42
ENDBRANCH  38  40
BRANCH  38  46
ATOM     46  C30 E7B d   1      13.781  24.975 -14.512  0.00  0.00    -0.066 C 
ATOM     47  H5  E7B d   1      14.442  25.184 -15.366  0.00  0.00     0.028 H 
ATOM     48  H6  E7B d   1      13.138  25.848 -14.324  0.00  0.00     0.028 H 
ATOM     49  H7  E7B d   1      13.154  24.100 -14.739  0.00  0.00     0.028 H 
ENDBRANCH  38  46
ENDBRANCH  35  38
ENDBRANCH  32  35
ENDBRANCH  15  32
BRANCH  16  50
ATOM     50  C25 E7B d   1      17.811  25.835  -8.913  0.00  0.00    -0.071 C 
ATOM     51  H14 E7B d   1      18.611  25.678  -8.174  0.00  0.00     0.028 H 
ATOM     52  H15 E7B d   1      17.305  24.879  -9.114  0.00  0.00     0.028 H 
ATOM     53  H16 E7B d   1      17.083  26.559  -8.518  0.00  0.00     0.028 H 
ENDBRANCH  16  50
BRANCH  27  54
ATOM     54  C28 E7B d   1      18.128  31.556 -14.287  0.00  0.00    -0.070 C 
ATOM     55  H26 E7B d   1      17.398  32.274 -13.885  0.00  0.00     0.028 H 
ATOM     56  H27 E7B d   1      18.387  31.836 -15.319  0.00  0.00     0.028 H 
ATOM     57  H28 E7B d   1      19.035  31.569 -13.665  0.00  0.00     0.028 H 
ENDBRANCH  27  54
ENDBRANCH   7   9
BRANCH   7  58
ATOM     58  C26 E7B d   1      15.755  30.354 -10.730  0.00  0.00    -0.070 C 
ATOM     59  H31 E7B d   1      15.207  31.159 -10.217  0.00  0.00     0.028 H 
ATOM     60  H32 E7B d   1      16.653  30.095 -10.150  0.00  0.00     0.028 H 
ATOM     61  H33 E7B d   1      15.108  29.469 -10.819  0.00  0.00     0.028 H 
ENDBRANCH   7  58
ENDBRANCH   4   7
ENDBRANCH   1   4
BRANCH   1  62
ATOM     62  C18 E7B d   1      13.160  33.034 -13.238  0.00  0.00     0.045 C 
ATOM     63  H38 E7B d   1      12.693  32.306 -13.917  0.00  0.00     0.084 H 
BRANCH  62  64
ATOM     64  O4  E7B d   1      13.946  33.967 -13.996  0.00  0.00    -0.395 OA
ATOM     65  H39 E7B d   1      14.347  34.595 -13.406  0.00  0.00     0.210 HD
ENDBRANCH  62  64
BRANCH  62  66
ATOM     66  C19 E7B d   1      12.075  33.788 -12.472  0.00  0.00     0.025 C 
ATOM     67  H40 E7B d   1      12.553  34.366 -11.667  0.00  0.00     0.055 H 
BRANCH  66  68
ATOM     68  C27 E7B d   1      11.043  32.809 -11.830  0.00  0.00    -0.064 C 
ATOM     69  H41 E7B d   1      10.279  33.386 -11.288  0.00  0.00     0.028 H 
ATOM     70  H42 E7B d   1      11.561  32.138 -11.129  0.00  0.00     0.028 H 
ATOM     71  H43 E7B d   1      10.562  32.214 -12.620  0.00  0.00     0.028 H 
ENDBRANCH  66  68
BRANCH  66  72
ATOM     72  C20 E7B d   1      11.364  34.757 -13.420  0.00  0.00     0.135 C 
ATOM     73  O13 E7B d   1      10.826  34.374 -14.472  0.00  0.00    -0.297 OA
BRANCH  72  74
ATOM     74  C21 E7B d   1      11.388  36.221 -13.004  0.00  0.00     0.017 C 
ATOM     75  H44 E7B d   1      12.438  36.535 -12.917  0.00  0.00     0.048 H 
ATOM     76  H45 E7B d   1      10.897  36.307 -12.023  0.00  0.00     0.048 H 
BRANCH  74  77
ATOM     77  C22 E7B d   1      10.689  37.166 -13.968  0.00  0.00     0.069 C 
ATOM     78  H46 E7B d   1       9.713  36.730 -14.228  0.00  0.00     0.087 H 
BRANCH  77  79
ATOM     79  O5  E7B d   1      10.479  38.402 -13.254  0.00  0.00    -0.393 OA
ATOM     80  H47 E7B d   1       9.940  38.237 -12.490  0.00  0.00     0.210 HD
ENDBRANCH  77  79
BRANCH  77  81
ATOM     81  C23 E7B d   1      11.454  37.431 -15.303  0.00  0.00     0.088 C 
ATOM     82  H48 E7B d   1      11.518  36.480 -15.853  0.00  0.00     0.091 H 
BRANCH  81  83
ATOM     83  O6  E7B d   1      12.866  37.882 -15.072  0.00  0.00    -0.386 OA
BRANCH  83  84
ATOM     84  C29 E7B d   1      12.956  39.252 -14.573  0.00  0.00     0.005 C 
ATOM     85  H49 E7B d   1      14.013  39.520 -14.425  0.00  0.00     0.066 H 
ATOM     86  H50 E7B d   1      12.421  39.329 -13.615  0.00  0.00     0.066 H 
ATOM     87  H51 E7B d   1      12.502  39.939 -15.303  0.00  0.00     0.066 H 
ENDBRANCH  83  84
ENDBRANCH  81  83
BRANCH  81  88
ATOM     88  C24 E7B d   1      10.565  38.413 -16.160  0.00  0.00     0.078 C 
ATOM     89  H52 E7B d   1      10.618  39.406 -15.691  0.00  0.00     0.088 H 
BRANCH  88  90
ATOM     90  C31 E7B d   1      10.657  38.532 -17.698  0.00  0.00    -0.033 C 
ATOM     91  H53 E7B d   1       9.677  38.204 -18.075  0.00  0.00     0.043 H 
BRANCH  90  92
ATOM     92  C33 E7B d   1      11.663  37.586 -18.342  0.00  0.00    -0.071 C 
ATOM     93  H54 E7B d   1      11.663  37.737 -19.431  0.00  0.00     0.028 H 
ATOM     94  H55 E7B d   1      11.385  36.546 -18.116  0.00  0.00     0.028 H 
ATOM     95  H56 E7B d   1      12.667  37.792 -17.943  0.00  0.00     0.028 H 
ENDBRANCH  90  92
BRANCH  90  96
ATOM     96  C32 E7B d   1      10.798  39.976 -18.143  0.00  0.00    -0.071 C 
ATOM     97  H57 E7B d   1      10.040  40.592 -17.636  0.00  0.00     0.028 H 
ATOM     98  H58 E7B d   1      10.654  40.040 -19.232  0.00  0.00     0.028 H 
ATOM     99  H59 E7B d   1      11.802  40.343 -17.884  0.00  0.00     0.028 H 
ENDBRANCH  90  96
ENDBRANCH  88  90
BRANCH  88 100
ATOM    100  O7  E7B d   1       9.230  37.868 -16.240  0.00  0.00    -0.313 OA
BRANCH 100 101
ATOM    101  C1' E7B d   1       8.151  38.633 -15.990  0.00  0.00     0.262 C 
ATOM    102  O12 E7B d   1       8.216  39.812 -15.697  0.00  0.00    -0.265 OA
BRANCH 101 103
ATOM    103  C2' E7B d   1       6.783  37.923 -16.060  0.00  0.00     0.044 C 
ATOM    104  H60 E7B d   1       6.954  36.839 -16.137  0.00  0.00     0.052 H 
ATOM    105  H61 E7B d   1       6.251  38.275 -16.956  0.00  0.00     0.052 H 
BRANCH 103 106
ATOM    106  C3' E7B d   1       5.904  38.194 -14.831  0.00  0.00     0.076 C 
ATOM    107  H62 E7B d   1       5.689  39.270 -14.749  0.00  0.00     0.091 H 
BRANCH 106 108
ATOM    108  O11 E7B d   1       4.690  37.441 -14.984  0.00  0.00    -0.390 OA
ATOM    109  H63 E7B d   1       4.898  36.516 -15.043  0.00  0.00     0.210 HD
ENDBRANCH 106 108
BRANCH 106 110
ATOM    110  C4' E7B d   1       6.588  37.693 -13.563  0.00  0.00     0.060 C 
ATOM    111  C5' E7B d   1       6.941  38.591 -12.560  0.00  0.00     0.030 C 
BRANCH 110 112
ATOM    112  C7' E7B d   1       6.828  36.177 -13.425  0.00  0.00     0.208 C 
ATOM    113  O14 E7B d   1       7.750  35.739 -12.701  0.00  0.00    -0.644 OA
ATOM    114  O9  E7B d   1       6.088  35.434 -14.089  0.00  0.00    -0.644 OA
ENDBRANCH 110 112
BRANCH 111 115
ATOM    115  C41 E7B d   1       6.704  40.095 -12.659  0.00  0.00    -0.044 C 
ATOM    116  H64 E7B d   1       6.214  40.327 -13.616  0.00  0.00     0.033 H 
ATOM    117  H65 E7B d   1       7.668  40.623 -12.603  0.00  0.00     0.033 H 
ATOM    118  H66 E7B d   1       6.059  40.420 -11.829  0.00  0.00     0.033 H 
ENDBRANCH 111 115
BRANCH 111 119
ATOM    119  C6' E7B d   1       7.604  38.076 -11.317  0.00  0.00     0.205 C 
ATOM    120  O10 E7B d   1       6.879  37.599 -10.412  0.00  0.00    -0.644 OA
ATOM    121  O8  E7B d   1       8.848  38.160 -11.282  0.00  0.00    -0.644 OA
ENDBRANCH 111 119
ENDBRANCH 106 110
ENDBRANCH 103 106
ENDBRANCH 101 103
ENDBRANCH 100 101
ENDBRANCH  88 100
ENDBRANCH  81  88
ENDBRANCH  77  81
ENDBRANCH  74  77
ENDBRANCH  72  74
ENDBRANCH  66  72
ENDBRANCH  62  66
ENDBRANCH   1  62
TORSDOF 36
