REMARK  4 active torsions:
REMARK  status: ('A' for Active; 'I' for Inactive)
REMARK    1  A    between atoms: C10_4  and  C9_20 
REMARK    2  A    between atoms: C1_25  and  C17_7 
REMARK    3  A    between atoms: C22_9  and  C24_10 
REMARK       I    between atoms: N16_16  and  C22_9 
REMARK    4  A    between atoms: N16_16  and  C12_17 
ROOT
ATOM      1  C10 35F d   1     -30.905 -33.219  23.257  0.00  0.00    -0.003 A 
ATOM      2  C13 35F d   1     -32.945 -34.908  24.143  0.00  0.00    -0.057 A 
ATOM      3  C15 35F d   1     -30.589 -34.350  24.015  0.00  0.00    -0.071 A 
ATOM      4  C12 35F d   1     -33.260 -33.767  23.399  0.00  0.00     0.035 A 
ATOM      5  C11 35F d   1     -32.236 -32.937  22.961  0.00  0.00    -0.045 A 
ATOM      6  C14 35F d   1     -31.611 -35.193  24.453  0.00  0.00    -0.080 A 
ATOM      7  H2  35F d   1     -33.734 -35.571  24.479  0.00  0.00     0.086 H 
ATOM      8  H3  35F d   1     -29.557 -34.571  24.261  0.00  0.00     0.084 H 
ATOM      9  H9  35F d   1     -32.477 -32.055  22.379  0.00  0.00     0.088 H 
ATOM     10  H10 35F d   1     -31.370 -36.074  25.037  0.00  0.00     0.083 H 
ENDROOT
BRANCH   1  11
ATOM     11  C9  35F d   1     -29.900 -32.226  22.758  0.00  0.00     0.099 A 
ATOM     12  C5  35F d   1     -28.662 -31.894  23.291  0.00  0.00     0.024 A 
ATOM     13  C4  35F d   1     -27.982 -32.405  24.393  0.00  0.00    -0.055 A 
ATOM     14  C6  35F d   1     -28.114 -30.884  22.509  0.00  0.00     0.062 A 
ATOM     15  C1  35F d   1     -26.730 -31.881  24.692  0.00  0.00     0.012 A 
ATOM     16  H1  35F d   1     -28.417 -33.190  25.001  0.00  0.00     0.086 H 
ATOM     17  C2  35F d   1     -26.171 -30.873  23.910  0.00  0.00    -0.067 A 
ATOM     18  C3  35F d   1     -26.858 -30.371  22.814  0.00  0.00    -0.054 A 
ATOM     19  H13 35F d   1     -25.193 -30.478  24.159  0.00  0.00     0.085 H 
ATOM     20  H12 35F d   1     -26.421 -29.589  22.203  0.00  0.00     0.087 H 
ATOM     21  N7  35F d   1     -28.982 -30.598  21.531  0.00  0.00    -0.277 N 
ATOM     22  N8  35F d   1     -30.092 -31.425  21.684  0.00  0.00    -0.173 NA
ATOM     23  H11 35F d   1     -28.852 -29.890  20.794  0.00  0.00     0.189 HD
BRANCH  15  24
ATOM     24  C17 35F d   1     -25.947 -32.387  25.851  0.00  0.00     0.155 A 
ATOM     25  N21 35F d   1     -26.327 -33.364  26.705  0.00  0.00    -0.221 NA
ATOM     26  C20 35F d   1     -25.351 -33.534  27.625  0.00  0.00     0.108 A 
ATOM     27  N19 35F d   1     -24.341 -32.673  27.347  0.00  0.00    -0.166 NA
ATOM     28  H4  35F d   1     -25.372 -34.243  28.451  0.00  0.00     0.149 H 
ATOM     29  N18 35F d   1     -24.722 -31.939  26.212  0.00  0.00    -0.259 N 
ATOM     30  H14 35F d   1     -24.175 -31.202  25.745  0.00  0.00     0.191 HD
ENDBRANCH  15  24
ENDBRANCH   1  11
BRANCH   4  31
ATOM     31  N16 35F d   1     -34.529 -33.425  23.047  0.00  0.00    -0.321 N 
ATOM     32  C22 35F d   1     -35.619 -33.556  23.820  0.00  0.00     0.279 C 
ATOM     33  O23 35F d   1     -35.625 -34.121  24.911  0.00  0.00    -0.265 OA
ATOM     34  H8  35F d   1     -34.661 -33.043  22.133  0.00  0.00     0.169 HD
BRANCH  32  35
ATOM     35  C24 35F d   1     -36.768 -33.056  23.366  0.00  0.00     0.142 A 
ATOM     36  O28 35F d   1     -38.051 -33.205  23.992  0.00  0.00    -0.317 OA
ATOM     37  C27 35F d   1     -38.911 -32.473  23.082  0.00  0.00     0.020 A 
ATOM     38  C26 35F d   1     -38.187 -32.034  22.141  0.00  0.00    -0.059 A 
ATOM     39  H6  35F d   1     -39.985 -32.327  23.189  0.00  0.00     0.123 H 
ATOM     40  C25 35F d   1     -36.958 -32.340  22.252  0.00  0.00    -0.043 A 
ATOM     41  H5  35F d   1     -38.581 -31.448  21.312  0.00  0.00     0.086 H 
ATOM     42  H7  35F d   1     -36.177 -32.061  21.546  0.00  0.00     0.088 H 
ENDBRANCH  32  35
ENDBRANCH   4  31
TORSDOF 4
