REMARK  11 active torsions:
REMARK  status: ('A' for Active; 'I' for Inactive)
REMARK    1  A    between atoms: C2_2  and  C1_1 
REMARK    2  A    between atoms: C2_2  and  O2_15 
REMARK    3  A    between atoms: C4_4  and  O4_16 
REMARK    4  A    between atoms: N5_12  and  C5_5 
REMARK    5  A    between atoms: C6_6  and  C7_7 
REMARK    6  A    between atoms: C7_7  and  C8_8 
REMARK    7  A    between atoms: C7_7  and  O7_18 
REMARK    8  A    between atoms: C8_8  and  C9_9 
REMARK    9  A    between atoms: C8_8  and  O8_19 
REMARK   10  A    between atoms: C9_9  and  O9_20 
REMARK   11  A    between atoms: C10_10  and  C11_11 
REMARK       I    between atoms: C10_10  and  N5_12 
ROOT
ATOM      1  C2  SLB d   1     -29.271  21.065  -2.492  0.00  0.00     0.256 C 
ATOM      2  C3  SLB d   1     -28.946  20.603  -1.064  0.00  0.00     0.023 C 
ATOM      3  C4  SLB d   1     -29.916  21.259  -0.058  0.00  0.00     0.063 C 
ATOM      4  C5  SLB d   1     -31.394  21.269  -0.525  0.00  0.00     0.064 C 
ATOM      5  C6  SLB d   1     -31.465  21.745  -1.985  0.00  0.00     0.091 C 
ATOM      6  O6  SLB d   1     -30.648  20.891  -2.792  0.00  0.00    -0.336 OA
ATOM      7  H1  SLB d   1     -27.914  20.891  -0.815  0.00  0.00     0.045 H 
ATOM      8  H2  SLB d   1     -29.046  19.509  -1.004  0.00  0.00     0.045 H 
ATOM      9  H3  SLB d   1     -29.611  22.309   0.060  0.00  0.00     0.086 H 
ATOM     10  H4  SLB d   1     -31.847  20.273  -0.411  0.00  0.00     0.080 H 
ATOM     11  H5  SLB d   1     -31.062  22.768  -2.020  0.00  0.00     0.090 H 
ENDROOT
BRANCH   5  12
ATOM     12  C7  SLB d   1     -32.876  21.771  -2.616  0.00  0.00     0.089 C 
ATOM     13  H6  SLB d   1     -33.611  22.193  -1.915  0.00  0.00     0.091 H 
BRANCH  12  14
ATOM     14  C8  SLB d   1     -32.796  22.673  -3.893  0.00  0.00     0.083 C 
ATOM     15  H7  SLB d   1     -31.892  22.374  -4.443  0.00  0.00     0.090 H 
BRANCH  14  16
ATOM     16  C9  SLB d   1     -33.988  22.567  -4.877  0.00  0.00     0.043 C 
ATOM     17  H8  SLB d   1     -34.917  22.615  -4.290  0.00  0.00     0.078 H 
ATOM     18  H9  SLB d   1     -33.924  21.593  -5.384  0.00  0.00     0.078 H 
BRANCH  16  19
ATOM     19  O9  SLB d   1     -34.048  23.583  -5.881  0.00  0.00    -0.398 OA
ATOM     20  H18 SLB d   1     -33.259  23.551  -6.410  0.00  0.00     0.209 HD
ENDBRANCH  16  19
ENDBRANCH  14  16
BRANCH  14  21
ATOM     21  O8  SLB d   1     -32.660  24.013  -3.506  0.00  0.00    -0.391 OA
ATOM     22  H17 SLB d   1     -31.932  24.095  -2.901  0.00  0.00     0.210 HD
ENDBRANCH  14  21
ENDBRANCH  12  14
BRANCH  12  23
ATOM     23  O7  SLB d   1     -33.209  20.427  -2.901  0.00  0.00    -0.390 OA
ATOM     24  H16 SLB d   1     -32.550  20.054  -3.475  0.00  0.00     0.210 HD
ENDBRANCH  12  23
ENDBRANCH   5  12
BRANCH   4  25
ATOM     25  N5  SLB d   1     -32.102  22.272   0.270  0.00  0.00    -0.352 N 
ATOM     26  C10 SLB d   1     -33.239  21.887   1.096  0.00  0.00     0.214 C 
ATOM     27  O10 SLB d   1     -33.497  20.736   1.245  0.00  0.00    -0.274 OA
ATOM     28  H13 SLB d   1     -31.804  23.226   0.247  0.00  0.00     0.163 HD
BRANCH  26  29
ATOM     29  C11 SLB d   1     -34.014  22.966   1.863  0.00  0.00    -0.003 C 
ATOM     30  H10 SLB d   1     -34.833  22.497   2.429  0.00  0.00     0.040 H 
ATOM     31  H11 SLB d   1     -34.430  23.694   1.151  0.00  0.00     0.040 H 
ATOM     32  H12 SLB d   1     -33.335  23.480   2.559  0.00  0.00     0.040 H 
ENDBRANCH  26  29
ENDBRANCH   4  25
BRANCH   3  33
ATOM     33  O4  SLB d   1     -29.767  20.619   1.190  0.00  0.00    -0.393 OA
ATOM     34  H15 SLB d   1     -30.065  19.720   1.121  0.00  0.00     0.210 HD
ENDBRANCH   3  33
BRANCH   1  35
ATOM     35  C1  SLB d   1     -28.500  20.225  -3.489  0.00  0.00     0.238 C 
ATOM     36  O1A SLB d   1     -29.076  19.009  -3.851  0.00  0.00    -0.644 OA
ATOM     37  O1B SLB d   1     -27.632  20.710  -4.141  0.00  0.00    -0.644 OA
ENDBRANCH   1  35
BRANCH   1  38
ATOM     38  O2  SLB d   1     -28.885  22.424  -2.639  0.00  0.00    -0.357 OA
ATOM     39  H14 SLB d   1     -29.039  22.701  -3.535  0.00  0.00     0.213 HD
ENDBRANCH   1  38
TORSDOF 11
