REMARK  2 active torsions:
REMARK  status: ('A' for Active; 'I' for Inactive)
REMARK       I    between atoms: N7_1  and  C8_2 
REMARK    1  A    between atoms: N7_1  and  C5_5 
REMARK       I    between atoms: C8_2  and  N9_3 
REMARK    2  A    between atoms: N9_3  and  C10_11 
ROOT
ATOM      1  N7  BSU d   1      20.015  12.688  60.757  0.00  0.00    -0.309 N 
ATOM      2  C8  BSU d   1      20.602  11.510  60.866  0.00  0.00     0.325 C 
ATOM      3  N9  BSU d   1      19.963  10.863  61.865  0.00  0.00    -0.309 N 
ATOM      4  O11 BSU d   1      21.509  11.088  60.193  0.00  0.00    -0.247 OA
ATOM      5  H1  BSU d   1      19.301  12.793  61.449  0.00  0.00     0.170 HD
ATOM      6  H2  BSU d   1      19.211  11.417  62.222  0.00  0.00     0.170 HD
ENDROOT
BRANCH   1   7
ATOM      7  C5  BSU d   1      20.101  13.841  59.949  0.00  0.00     0.036 A 
ATOM      8  C4  BSU d   1      19.520  15.000  60.392  0.00  0.00    -0.057 A 
ATOM      9  C3  BSU d   1      19.526  16.153  59.668  0.00  0.00    -0.081 A 
ATOM     10  H3  BSU d   1      19.034  14.999  61.361  0.00  0.00     0.086 H 
ATOM     11  C2  BSU d   1      20.136  16.131  58.461  0.00  0.00    -0.083 A 
ATOM     12  H4  BSU d   1      19.059  17.056  60.045  0.00  0.00     0.083 H 
ATOM     13  C1  BSU d   1      20.730  14.960  58.010  0.00  0.00    -0.081 A 
ATOM     14  H5  BSU d   1      20.161  17.025  57.848  0.00  0.00     0.083 H 
ATOM     15  C6  BSU d   1      20.693  13.790  58.753  0.00  0.00    -0.057 A 
ATOM     16  H6  BSU d   1      21.236  14.960  57.051  0.00  0.00     0.083 H 
ATOM     17  H7  BSU d   1      21.127  12.870  58.378  0.00  0.00     0.086 H 
ENDBRANCH   1   7
BRANCH   3  18
ATOM     18  C10 BSU d   1      20.047   9.636  62.550  0.00  0.00     0.036 A 
ATOM     19  C16 BSU d   1      19.330   9.652  63.712  0.00  0.00    -0.057 A 
ATOM     20  C15 BSU d   1      19.303   8.561  64.524  0.00  0.00    -0.081 A 
ATOM     21  H8  BSU d   1      18.777  10.542  63.990  0.00  0.00     0.086 H 
ATOM     22  C14 BSU d   1      19.986   7.436  64.189  0.00  0.00    -0.083 A 
ATOM     23  H9  BSU d   1      18.732   8.590  65.445  0.00  0.00     0.083 H 
ATOM     24  C13 BSU d   1      20.699   7.407  63.034  0.00  0.00    -0.081 A 
ATOM     25  H10 BSU d   1      19.962   6.568  64.838  0.00  0.00     0.083 H 
ATOM     26  C12 BSU d   1      20.744   8.525  62.207  0.00  0.00    -0.057 A 
ATOM     27  H11 BSU d   1      21.236   6.508  62.755  0.00  0.00     0.083 H 
ATOM     28  H12 BSU d   1      21.331   8.508  61.296  0.00  0.00     0.086 H 
ENDBRANCH   3  18
TORSDOF 2
