REMARK  12 active torsions:
REMARK  status: ('A' for Active; 'I' for Inactive)
REMARK    1  A    between atoms: C2_2  and  N7_7 
REMARK    2  A    between atoms: N7_7  and  C8_8 
REMARK    3  A    between atoms: C9_9  and  N18_18 
REMARK    4  A    between atoms: C10_10  and  O30_30 
REMARK    5  A    between atoms: N18_18  and  S19_19 
REMARK    6  A    between atoms: S19_19  and  C22_22 
REMARK    7  A    between atoms: C22_22  and  C25_25 
REMARK    8  A    between atoms: C25_25  and  C26_26 
REMARK    9  A    between atoms: C26_26  and  C27_27 
REMARK   10  A    between atoms: C26_26  and  O29_29 
REMARK   11  A    between atoms: C27_27  and  O28_28 
REMARK   12  A    between atoms: O30_30  and  C31_31 
ROOT
ATOM      1  C8  VRA d   1      31.918  26.820  40.334  0.00  0.00     0.105 A 
ATOM      2  C9  VRA d   1      31.168  27.414  39.235  0.00  0.00     0.105 A 
ATOM      3  C10 VRA d   1      30.501  26.555  38.280  0.00  0.00     0.101 A 
ATOM      4  C11 VRA d   1      30.593  25.110  38.411  0.00  0.00    -0.008 A 
ATOM      5  C12 VRA d   1      31.347  24.532  39.503  0.00  0.00     0.160 A 
ATOM      6  C13 VRA d   1      31.998  25.366  40.452  0.00  0.00     0.183 A 
ATOM      7  F16 VRA d   1      32.703  24.762  41.479  0.00  0.00    -0.200 F 
ATOM      8  F17 VRA d   1      31.441  23.171  39.625  0.00  0.00    -0.203 F 
ATOM      9  H   VRA d   1      30.095  24.463  37.688  0.00  0.00     0.092 H 
ENDROOT
BRANCH   2  10
ATOM     10  N18 VRA d   1      31.076  28.842  39.055  0.00  0.00    -0.279 N 
ATOM     11  H   VRA d   1      31.606  29.256  38.288  0.00  0.00     0.179 HD
BRANCH  10  12
ATOM     12  S19 VRA d   1      30.193  29.839  39.981  0.00  0.00     0.239 S 
ATOM     13  O20 VRA d   1      30.630  31.332  39.660  0.00  0.00    -0.205 OA
ATOM     14  O21 VRA d   1      30.453  29.545  41.498  0.00  0.00    -0.205 OA
BRANCH  12  15
ATOM     15  C22 VRA d   1      28.424  29.611  39.608  0.00  0.00     0.085 A 
ATOM     16  C23 VRA d   1      27.754  28.442  40.308  0.00  0.00    -0.042 A 
ATOM     17  C24 VRA d   1      27.476  29.854  40.758  0.00  0.00    -0.042 A 
ATOM     18  H   VRA d   1      28.030  27.483  40.746  0.00  0.00     0.035 H 
ATOM     19  H   VRA d   1      27.198  27.541  40.047  0.00  0.00     0.035 H 
ATOM     20  H   VRA d   1      26.614  30.482  40.984  0.00  0.00     0.035 H 
ATOM     21  H   VRA d   1      27.453  30.422  41.688  0.00  0.00     0.035 H 
BRANCH  15  22
ATOM     22  C25 VRA d   1      27.919  29.954  38.160  0.00  0.00    -0.017 C 
ATOM     23  H   VRA d   1      26.848  29.757  38.116  0.00  0.00     0.039 H 
ATOM     24  H   VRA d   1      28.474  29.341  37.450  0.00  0.00     0.039 H 
BRANCH  22  25
ATOM     25  C26 VRA d   1      28.158  31.464  37.800  0.00  0.00     0.057 C 
ATOM     26  H   VRA d   1      29.227  31.666  37.865  0.00  0.00     0.086 H 
BRANCH  25  27
ATOM     27  C27 VRA d   1      27.662  31.760  36.358  0.00  0.00     0.041 C 
ATOM     28  H   VRA d   1      26.678  32.226  36.406  0.00  0.00     0.077 H 
ATOM     29  H   VRA d   1      27.605  30.826  35.799  0.00  0.00     0.077 H 
BRANCH  27  30
ATOM     30  O28 VRA d   1      28.581  32.657  35.693  0.00  0.00    -0.398 OA
ATOM     31  H   VRA d   1      29.450  32.250  35.651  0.00  0.00     0.209 HD
ENDBRANCH  27  30
ENDBRANCH  25  27
BRANCH  25  32
ATOM     32  O29 VRA d   1      27.444  32.313  38.724  0.00  0.00    -0.393 OA
ATOM     33  H   VRA d   1      27.745  32.136  39.618  0.00  0.00     0.210 HD
ENDBRANCH  25  32
ENDBRANCH  22  25
ENDBRANCH  15  22
ENDBRANCH  12  15
ENDBRANCH  10  12
ENDBRANCH   2  10
BRANCH   1  34
ATOM     34  N7  VRA d   1      32.569  27.713  41.286  0.00  0.00    -0.349 N 
ATOM     35  H   VRA d   1      32.006  28.460  41.692  0.00  0.00     0.166 HD
BRANCH  34  36
ATOM     36  C2  VRA d   1      33.964  27.619  41.701  0.00  0.00     0.071 A 
ATOM     37  C1  VRA d   1      34.340  28.455  42.853  0.00  0.00     0.144 A 
ATOM     38  C6  VRA d   1      35.701  28.417  43.312  0.00  0.00    -0.027 A 
ATOM     39  F15 VRA d   1      33.418  29.241  43.482  0.00  0.00    -0.204 F 
ATOM     40  C5  VRA d   1      36.682  27.586  42.623  0.00  0.00     0.009 A 
ATOM     41  H   VRA d   1      36.001  29.010  44.176  0.00  0.00     0.090 H 
ATOM     42  C4  VRA d   1      36.314  26.747  41.472  0.00  0.00    -0.065 A 
ATOM     43  I14 VRA d   1      38.722  27.571  43.310  0.00  0.00    -0.044 I 
ATOM     44  C3  VRA d   1      35.017  26.780  41.033  0.00  0.00    -0.053 A 
ATOM     45  H   VRA d   1      37.054  26.115  40.981  0.00  0.00     0.085 H 
ATOM     46  H   VRA d   1      34.739  26.177  40.169  0.00  0.00     0.087 H 
ENDBRANCH  34  36
ENDBRANCH   1  34
BRANCH   3  47
ATOM     47  O30 VRA d   1      29.757  27.153  37.203  0.00  0.00    -0.353 OA
BRANCH  47  48
ATOM     48  C31 VRA d   1      28.515  26.459  36.972  0.00  0.00     0.010 C 
ATOM     49  H   VRA d   1      28.723  25.421  36.714  0.00  0.00     0.066 H 
ATOM     50  H   VRA d   1      27.906  26.496  37.876  0.00  0.00     0.066 H 
ATOM     51  H   VRA d   1      27.980  26.938  36.152  0.00  0.00     0.066 H 
ENDBRANCH  47  48
ENDBRANCH   3  47
TORSDOF 12
