REMARK  9 active torsions:
REMARK  status: ('A' for Active; 'I' for Inactive)
REMARK    1  A    between atoms: C7_1  and  O3_14 
REMARK    2  A    between atoms: C22_30  and  C1_4 
REMARK       I    between atoms: C1_4  and  N3_33 
REMARK       I    between atoms: C3_9  and  N2_6 
REMARK    3  A    between atoms: N2_6  and  O4_32 
REMARK    4  A    between atoms: C21_29  and  C3_9 
REMARK    5  A    between atoms: C2_13  and  C4_15 
REMARK    6  A    between atoms: C22_30  and  C2_13 
REMARK    7  A    between atoms: O3_14  and  C10_19 
REMARK    8  A    between atoms: C10_19  and  C11_20 
REMARK    9  A    between atoms: C12_21  and  C20_28 
ROOT
ATOM      1  C7  615 d   1       8.134   8.219  28.613  0.00  0.00     0.069 A 
ATOM      2  C8  615 d   1       9.012   7.478  27.795  0.00  0.00    -0.050 A 
ATOM      3  C4  615 d   1       7.583   7.855  25.849  0.00  0.00    -0.057 A 
ATOM      4  C5  615 d   1       6.679   8.577  26.657  0.00  0.00    -0.074 A 
ATOM      5  C6  615 d   1       6.965   8.767  28.032  0.00  0.00    -0.050 A 
ATOM      6  C9  615 d   1       8.743   7.291  26.429  0.00  0.00    -0.074 A 
ATOM      7  H3  615 d   1       9.908   7.046  28.227  0.00  0.00     0.087 H 
ATOM      8  H9  615 d   1       5.771   8.984  26.228  0.00  0.00     0.084 H 
ATOM      9  H10 615 d   1       6.280   9.339  28.647  0.00  0.00     0.087 H 
ATOM     10  H11 615 d   1       9.427   6.713  25.818  0.00  0.00     0.084 H 
ENDROOT
BRANCH   1  11
ATOM     11  O3  615 d   1       8.513   8.448  29.902  0.00  0.00    -0.347 OA
BRANCH  11  12
ATOM     12  C10 615 d   1       9.592   7.932  30.649  0.00  0.00     0.051 C 
ATOM     13  H12 615 d   1       9.457   8.262  31.690  0.00  0.00     0.082 H 
ATOM     14  H13 615 d   1      10.513   8.373  30.241  0.00  0.00     0.082 H 
BRANCH  12  15
ATOM     15  C11 615 d   1       9.783   6.437  30.674  0.00  0.00    -0.019 A 
ATOM     16  C13 615 d   1       8.627   5.674  30.856  0.00  0.00    -0.045 A 
ATOM     17  C12 615 d   1       8.716   4.280  30.937  0.00  0.00     0.068 A 
ATOM     18  H14 615 d   1       7.662   6.162  30.934  0.00  0.00     0.088 H 
ATOM     19  N1  615 d   1       9.905   3.639  30.855  0.00  0.00    -0.248 NA
ATOM     20  C14 615 d   1      11.043   4.350  30.677  0.00  0.00     0.068 A 
ATOM     21  C15 615 d   1      11.038   5.774  30.576  0.00  0.00     0.001 A 
ATOM     22  C19 615 d   1      12.282   3.672  30.595  0.00  0.00    -0.054 A 
ATOM     23  C16 615 d   1      12.259   6.474  30.383  0.00  0.00    -0.070 A 
ATOM     24  C17 615 d   1      13.482   5.774  30.285  0.00  0.00    -0.082 A 
ATOM     25  H15 615 d   1      12.252   7.556  30.310  0.00  0.00     0.084 H 
ATOM     26  C18 615 d   1      13.490   4.372  30.402  0.00  0.00    -0.081 A 
ATOM     27  H2  615 d   1      14.408   6.313  30.121  0.00  0.00     0.083 H 
ATOM     28  H16 615 d   1      14.427   3.829  30.344  0.00  0.00     0.083 H 
ATOM     29  H17 615 d   1      12.303   2.592  30.682  0.00  0.00     0.087 H 
BRANCH  17  30
ATOM     30  C20 615 d   1       7.500   3.458  31.098  0.00  0.00    -0.007 A 
ATOM     31  C28 615 d   1       6.252   4.081  31.346  0.00  0.00    -0.071 A 
ATOM     32  C27 615 d   1       5.077   3.317  31.465  0.00  0.00    -0.082 A 
ATOM     33  H5  615 d   1       6.202   5.159  31.445  0.00  0.00     0.084 H 
ATOM     34  C26 615 d   1       5.138   1.924  31.331  0.00  0.00    -0.083 A 
ATOM     35  H1  615 d   1       4.128   3.804  31.660  0.00  0.00     0.083 H 
ATOM     36  C25 615 d   1       6.365   1.287  31.105  0.00  0.00    -0.082 A 
ATOM     37  H6  615 d   1       4.231   1.335  31.403  0.00  0.00     0.083 H 
ATOM     38  C24 615 d   1       7.538   2.050  30.983  0.00  0.00    -0.071 A 
ATOM     39  H25 615 d   1       6.409   0.207  31.024  0.00  0.00     0.083 H 
ATOM     40  H24 615 d   1       8.483   1.553  30.799  0.00  0.00     0.084 H 
ENDBRANCH  17  30
ENDBRANCH  12  15
ENDBRANCH  11  12
ENDBRANCH   1  11
BRANCH   3  41
ATOM     41  C2  615 d   1       7.315   7.682  24.363  0.00  0.00    -0.025 C 
ATOM     42  H7  615 d   1       7.295   6.604  24.143  0.00  0.00     0.042 H 
ATOM     43  H8  615 d   1       8.140   8.154  23.810  0.00  0.00     0.042 H 
BRANCH  41  44
ATOM     44  C22 615 d   1       6.018   8.285  23.876  0.00  0.00     0.057 A 
ATOM     45  C21 615 d   1       5.729   9.618  23.026  0.00  0.00     0.043 A 
ATOM     46  C23 615 d   1       5.513   8.254  22.492  0.00  0.00    -0.036 A 
ATOM     47  H18 615 d   1       4.741  10.097  22.963  0.00  0.00     0.056 H 
ATOM     48  H19 615 d   1       6.172   7.884  21.692  0.00  0.00     0.036 H 
ATOM     49  H20 615 d   1       4.484   7.911  22.308  0.00  0.00     0.036 H 
BRANCH  44  50
ATOM     50  C1  615 d   1       4.956   7.349  24.414  0.00  0.00     0.225 C 
ATOM     51  O1  615 d   1       3.785   7.678  24.534  0.00  0.00    -0.273 OA
ATOM     52  N3  615 d   1       5.399   6.141  24.773  0.00  0.00    -0.369 N 
ATOM     53  H22 615 d   1       6.365   5.909  24.660  0.00  0.00     0.159 HD
ATOM     54  H23 615 d   1       4.765   5.469  25.155  0.00  0.00     0.159 HD
ENDBRANCH  44  50
BRANCH  45  55
ATOM     55  C3  615 d   1       6.456  10.640  23.848  0.00  0.00     0.246 C 
ATOM     56  N2  615 d   1       5.736  11.683  24.303  0.00  0.00    -0.237 N 
ATOM     57  H4  615 d   1       4.750  11.758  24.156  0.00  0.00     0.197 HD
ATOM     58  O2  615 d   1       7.688  10.590  23.985  0.00  0.00    -0.271 OA
BRANCH  56  59
ATOM     59  O4  615 d   1       6.478  12.670  25.008  0.00  0.00    -0.287 OA
ATOM     60  H21 615 d   1       5.893  13.363  25.290  0.00  0.00     0.244 HD
ENDBRANCH  56  59
ENDBRANCH  45  55
ENDBRANCH  41  44
ENDBRANCH   3  41
TORSDOF 9
