REMARK WARNING: 32 MAX_TORS EXCEEDED!!!
REMARK  34 active torsions:
REMARK  status: ('A' for Active; 'I' for Inactive)
REMARK    1  A    between atoms: CA_1  and  C_2 
REMARK       I    between atoms: C_2  and  N_4 
REMARK    2  A    between atoms: N_4  and  CA_5 
REMARK    3  A    between atoms: CA_5  and  C_6 
REMARK    4  A    between atoms: CA_5  and  CB_8 
REMARK       I    between atoms: C_6  and  N_11 
REMARK    5  A    between atoms: CB_8  and  CG1_9 
REMARK    6  A    between atoms: CB_8  and  CG2_10 
REMARK    7  A    between atoms: N_11  and  CA_12 
REMARK    8  A    between atoms: CA_12  and  C_13 
REMARK    9  A    between atoms: CA_12  and  CB_15 
REMARK       I    between atoms: C_13  and  N_20 
REMARK   10  A    between atoms: CB_15  and  CG_16 
REMARK   11  A    between atoms: CG_16  and  CD_17 
REMARK       I    between atoms: CD_17  and  NE2_19 
REMARK   12  A    between atoms: N_20  and  CA_21 
REMARK   13  A    between atoms: CA_21  and  C_22 
REMARK       I    between atoms: C_22  and  N_24 
REMARK   14  A    between atoms: N_24  and  CA_25 
REMARK   15  A    between atoms: CA_25  and  C_26 
REMARK   16  A    between atoms: CA_25  and  CB_28 
REMARK       I    between atoms: C_26  and  N_30 
REMARK   17  A    between atoms: CB_28  and  OG_29 
REMARK   18  A    between atoms: N_30  and  CA_31 
REMARK   19  A    between atoms: CA_31  and  C_32 
REMARK       I    between atoms: C_32  and  N_34 
REMARK   20  A    between atoms: N_34  and  CA_35 
REMARK   21  A    between atoms: CA_35  and  C_36 
REMARK   22  A    between atoms: CA_35  and  CB_38 
REMARK       I    between atoms: C_36  and  N_39 
REMARK   23  A    between atoms: N_39  and  CA_40 
REMARK   24  A    between atoms: CA_40  and  C_41 
REMARK   25  A    between atoms: CA_40  and  CB_43 
REMARK       I    between atoms: C_41  and  N_50 
REMARK   26  A    between atoms: CB_43  and  CG_44 
REMARK   27  A    between atoms: N_50  and  CA_51 
REMARK   28  A    between atoms: CA_51  and  C_52 
REMARK       I    between atoms: C_52  and  N_54 
REMARK   29  A    between atoms: N_54  and  CA_55 
REMARK   30  A    between atoms: CA_55  and  C_56 
REMARK   31  A    between atoms: CA_55  and  CB_58 
REMARK       I    between atoms: C_56  and  N_65 
REMARK   32  A    between atoms: CB_58  and  CG_59 
REMARK   33  A    between atoms: CG_59  and  CD_60 
REMARK   34  A    between atoms: CD_60  and  NE_61 
REMARK       I    between atoms: NE_61  and  CZ_62 
REMARK       I    between atoms: CZ_62  and  NH1_63 
ROOT
ATOM      1  C   GLY d   1      23.375  40.064  54.625  0.00  0.00     0.236 C 
ATOM      2  O   GLY d   1      24.340  39.417  54.224  0.00  0.00    -0.272 OA
ATOM      3  N   ALA d   1      23.274  40.540  55.865  0.00  0.00    -0.347 N 
ATOM      4  H32 ALA d   1      22.445  41.035  56.123  0.00  0.00     0.163 HD
ENDROOT
BRANCH   1   5
ATOM      5  CA  GLY d   1      22.195  40.317  53.711  0.00  0.00     0.069 C 
ATOM      6  H30 GLY d   1      21.404  40.813  54.292  0.00  0.00     0.078 H 
ATOM      7  H31 GLY d   1      22.521  40.979  52.895  0.00  0.00     0.078 H 
BRANCH   5   8
ATOM      8  N   GLY d   1      21.646  39.101  53.127  0.00  0.00    -0.350 N 
ATOM      9  C   SER d   1      21.320  38.031  53.853  0.00  0.00     0.242 C 
ATOM     10  O   SER d   1      21.555  37.925  55.061  0.00  0.00    -0.271 OA
ATOM     11  H29 GLY d   1      21.507  39.067  52.137  0.00  0.00     0.163 HD
BRANCH   9  12
ATOM     12  CA  SER d   1      20.626  36.899  53.095  0.00  0.00     0.109 C 
ATOM     13  H25 SER d   1      20.979  36.908  52.053  0.00  0.00     0.090 H 
BRANCH  12  14
ATOM     14  N   SER d   1      20.971  35.620  53.687  0.00  0.00    -0.344 N 
ATOM     15  C   GLY d   1      22.144  35.033  53.430  0.00  0.00     0.236 C 
ATOM     16  O   GLY d   1      22.966  35.478  52.623  0.00  0.00    -0.272 OA
ATOM     17  H24 SER d   1      20.320  35.170  54.298  0.00  0.00     0.163 HD
BRANCH  15  18
ATOM     18  CA  GLY d   1      22.418  33.754  54.186  0.00  0.00     0.069 C 
ATOM     19  H22 GLY d   1      23.199  33.940  54.938  0.00  0.00     0.078 H 
ATOM     20  H23 GLY d   1      21.496  33.428  54.689  0.00  0.00     0.078 H 
BRANCH  18  21
ATOM     21  N   GLY d   1      22.865  32.705  53.283  0.00  0.00    -0.351 N 
ATOM     22  C   GLN d   1      21.997  31.945  52.624  0.00  0.00     0.240 C 
ATOM     23  O   GLN d   1      20.769  32.085  52.730  0.00  0.00    -0.271 OA
ATOM     24  H21 GLY d   1      23.845  32.553  53.156  0.00  0.00     0.163 HD
BRANCH  22  25
ATOM     25  CA  GLN d   1      22.579  30.880  51.691  0.00  0.00     0.090 C 
ATOM     26  H14 GLN d   1      21.750  30.212  51.417  0.00  0.00     0.087 H 
BRANCH  25  27
ATOM     27  N   GLN d   1      23.081  31.459  50.455  0.00  0.00    -0.346 N 
ATOM     28  C   VAL d   1      22.231  31.759  49.480  0.00  0.00     0.241 C 
ATOM     29  O   VAL d   1      21.041  31.463  49.540  0.00  0.00    -0.271 OA
ATOM     30  H13 GLN d   1      24.060  31.630  50.340  0.00  0.00     0.163 HD
BRANCH  28  31
ATOM     31  CA  VAL d   1      22.790  32.503  48.266  0.00  0.00     0.092 C 
ATOM     32  H5  VAL d   1      23.831  32.797  48.468  0.00  0.00     0.088 H 
BRANCH  31  33
ATOM     33  N   VAL d   1      22.772  31.608  47.108  0.00  0.00    -0.348 N 
ATOM     34  C   GLY d   1      23.770  31.534  46.231  0.00  0.00     0.214 C 
ATOM     35  O   GLY d   1      24.779  32.254  46.289  0.00  0.00    -0.274 OA
ATOM     36  H4  VAL d   1      21.972  31.024  46.969  0.00  0.00     0.163 HD
BRANCH  34  37
ATOM     37  CA  GLY d   1      23.609  30.511  45.110  0.00  0.00    -0.003 C 
ATOM     38  H1  GLY d   1      22.655  29.977  45.235  0.00  0.00     0.040 H 
ATOM     39  H2  GLY d   1      24.440  29.791  45.148  0.00  0.00     0.040 H 
ATOM     40  H3  GLY d   1      23.616  31.027  44.139  0.00  0.00     0.040 H 
ENDBRANCH  34  37
ENDBRANCH  31  33
BRANCH  31  41
ATOM     41  CB  VAL d   1      21.943  33.797  48.025  0.00  0.00    -0.033 C 
ATOM     42  H6  VAL d   1      20.895  33.501  47.873  0.00  0.00     0.042 H 
BRANCH  41  43
ATOM     43  CG1 VAL d   1      22.018  34.714  49.218  0.00  0.00    -0.071 C 
ATOM     44  H7  VAL d   1      21.416  35.615  49.026  0.00  0.00     0.028 H 
ATOM     45  H8  VAL d   1      23.065  35.003  49.393  0.00  0.00     0.028 H 
ATOM     46  H9  VAL d   1      21.627  34.194  50.105  0.00  0.00     0.028 H 
ENDBRANCH  41  43
BRANCH  41  47
ATOM     47  CG2 VAL d   1      22.418  34.539  46.799  0.00  0.00    -0.071 C 
ATOM     48  H10 VAL d   1      22.365  33.874  45.925  0.00  0.00     0.028 H 
ATOM     49  H11 VAL d   1      23.457  34.867  46.948  0.00  0.00     0.028 H 
ATOM     50  H12 VAL d   1      21.777  35.417  46.631  0.00  0.00     0.028 H 
ENDBRANCH  41  47
ENDBRANCH  31  41
ENDBRANCH  28  31
ENDBRANCH  25  27
BRANCH  25  51
ATOM     51  CB  GLN d   1      23.640  30.009  52.385  0.00  0.00    -0.030 C 
ATOM     52  H15 GLN d   1      23.342  29.870  53.435  0.00  0.00     0.037 H 
ATOM     53  H16 GLN d   1      24.604  30.538  52.344  0.00  0.00     0.037 H 
BRANCH  51  54
ATOM     54  CG  GLN d   1      23.821  28.621  51.745  0.00  0.00     0.011 C 
ATOM     55  H17 GLN d   1      24.615  28.086  52.287  0.00  0.00     0.047 H 
ATOM     56  H18 GLN d   1      24.120  28.756  50.695  0.00  0.00     0.047 H 
BRANCH  54  57
ATOM     57  CD  GLN d   1      22.561  27.782  51.784  0.00  0.00     0.215 C 
ATOM     58  OE1 GLN d   1      21.663  28.021  52.602  0.00  0.00    -0.274 OA
ATOM     59  NE2 GLN d   1      22.494  26.775  50.914  0.00  0.00    -0.370 N 
ATOM     60  H19 GLN d   1      21.686  26.186  50.892  0.00  0.00     0.159 HD
ATOM     61  H20 GLN d   1      23.251  26.608  50.283  0.00  0.00     0.159 HD
ENDBRANCH  54  57
ENDBRANCH  51  54
ENDBRANCH  25  51
ENDBRANCH  22  25
ENDBRANCH  18  21
ENDBRANCH  15  18
ENDBRANCH  12  14
BRANCH  12  62
ATOM     62  CB  SER d   1      19.106  37.107  53.093  0.00  0.00     0.044 C 
ATOM     63  H26 SER d   1      18.731  37.061  54.126  0.00  0.00     0.077 H 
ATOM     64  H27 SER d   1      18.631  36.316  52.494  0.00  0.00     0.077 H 
BRANCH  62  65
ATOM     65  OG  SER d   1      18.792  38.365  52.538  0.00  0.00    -0.398 OA
ATOM     66  H28 SER d   1      17.850  38.485  52.541  0.00  0.00     0.209 HD
ENDBRANCH  62  65
ENDBRANCH  12  62
ENDBRANCH   9  12
ENDBRANCH   5   8
ENDBRANCH   1   5
BRANCH   3  67
ATOM     67  CA  ALA d   1      24.334  40.366  56.871  0.00  0.00     0.086 C 
ATOM     68  H33 ALA d   1      25.196  40.955  56.526  0.00  0.00     0.086 H 
BRANCH  67  69
ATOM     69  C   ALA d   1      24.828  38.927  57.044  0.00  0.00     0.240 C 
ATOM     70  O   ALA d   1      26.001  38.708  57.329  0.00  0.00    -0.271 OA
ATOM     71  N   PHE d   1      23.946  37.951  56.859  0.00  0.00    -0.346 N 
ATOM     72  H37 PHE d   1      23.009  38.187  56.601  0.00  0.00     0.163 HD
BRANCH  71  73
ATOM     73  CA  PHE d   1      24.305  36.538  57.022  0.00  0.00     0.093 C 
ATOM     74  H38 PHE d   1      24.930  36.473  57.925  0.00  0.00     0.088 H 
BRANCH  73  75
ATOM     75  C   PHE d   1      25.123  35.947  55.873  0.00  0.00     0.241 C 
ATOM     76  O   PHE d   1      25.709  34.869  56.023  0.00  0.00    -0.271 OA
ATOM     77  N   GLY d   1      25.140  36.634  54.731  0.00  0.00    -0.351 N 
ATOM     78  H46 GLY d   1      24.598  37.472  54.665  0.00  0.00     0.163 HD
BRANCH  77  79
ATOM     79  CA  GLY d   1      25.921  36.208  53.573  0.00  0.00     0.069 C 
ATOM     80  H47 GLY d   1      25.375  36.482  52.658  0.00  0.00     0.078 H 
ATOM     81  H48 GLY d   1      26.045  35.116  53.613  0.00  0.00     0.078 H 
BRANCH  79  82
ATOM     82  C   GLY d   1      27.294  36.854  53.533  0.00  0.00     0.236 C 
ATOM     83  O   GLY d   1      28.021  36.725  52.537  0.00  0.00    -0.272 OA
ATOM     84  N   ARG d   1      27.653  37.532  54.623  0.00  0.00    -0.346 N 
ATOM     85  H49 ARG d   1      27.011  37.584  55.388  0.00  0.00     0.163 HD
BRANCH  84  86
ATOM     86  CA  ARG d   1      28.947  38.204  54.747  0.00  0.00     0.089 C 
ATOM     87  H50 ARG d   1      29.205  38.619  53.762  0.00  0.00     0.087 H 
BRANCH  86  88
ATOM     88  C   ARG d   1      30.043  37.206  55.131  0.00  0.00     0.238 C 
ATOM     89  O   ARG d   1      30.982  36.994  54.357  0.00  0.00    -0.271 OA
ATOM     90  N   GLY d   1      29.913  36.584  56.306  0.00  0.00    -0.368 N 
ATOM     91  H62 GLY d   1      30.603  35.923  56.601  0.00  0.00     0.159 HD
ATOM     92  H63 GLY d   1      29.125  36.779  56.891  0.00  0.00     0.159 HD
ENDBRANCH  86  88
BRANCH  86  93
ATOM     93  CB  ARG d   1      28.873  39.372  55.736  0.00  0.00    -0.036 C 
ATOM     94  H51 ARG d   1      29.890  39.595  56.091  0.00  0.00     0.036 H 
ATOM     95  H52 ARG d   1      28.245  39.070  56.587  0.00  0.00     0.036 H 
BRANCH  93  96
ATOM     96  CG  ARG d   1      28.284  40.640  55.124  0.00  0.00    -0.048 C 
ATOM     97  H53 ARG d   1      27.383  40.372  54.553  0.00  0.00     0.035 H 
ATOM     98  H54 ARG d   1      29.028  41.085  54.448  0.00  0.00     0.035 H 
BRANCH  96  99
ATOM     99  CD  ARG d   1      27.904  41.672  56.185  0.00  0.00     0.009 C 
ATOM    100  H55 ARG d   1      28.799  42.246  56.465  0.00  0.00     0.064 H 
ATOM    101  H56 ARG d   1      27.511  41.150  57.070  0.00  0.00     0.064 H 
BRANCH  99 102
ATOM    102  NE  ARG d   1      26.883  42.594  55.680  0.00  0.00    -0.227 N 
ATOM    103  CZ  ARG d   1      26.233  43.490  56.417  0.00  0.00     0.665 C 
ATOM    104  NH1 ARG d   1      26.487  43.632  57.721  0.00  0.00    -0.235 N 
ATOM    105  NH2 ARG d   1      25.325  44.257  55.842  0.00  0.00    -0.235 N 
ATOM    106  H58 ARG d   1      25.971  44.333  58.273  0.00  0.00     0.174 HD
ATOM    107  H59 ARG d   1      27.198  43.041  58.175  0.00  0.00     0.174 HD
ATOM    108  H60 ARG d   1      25.124  44.153  54.837  0.00  0.00     0.174 HD
ATOM    109  H61 ARG d   1      24.817  44.960  56.398  0.00  0.00     0.174 HD
ATOM    110  H57 ARG d   1      26.651  42.544  54.678  0.00  0.00     0.177 HD
ENDBRANCH  99 102
ENDBRANCH  96  99
ENDBRANCH  93  96
ENDBRANCH  86  93
ENDBRANCH  84  86
ENDBRANCH  79  82
ENDBRANCH  77  79
ENDBRANCH  73  75
BRANCH  73 111
ATOM    111  CB  PHE d   1      23.052  35.684  57.260  0.00  0.00    -0.014 C 
ATOM    112  H39 PHE d   1      23.346  34.624  57.244  0.00  0.00     0.043 H 
ATOM    113  H40 PHE d   1      22.339  35.879  56.446  0.00  0.00     0.043 H 
BRANCH 111 114
ATOM    114  CG  PHE d   1      22.368  35.968  58.569  0.00  0.00    -0.056 A 
ATOM    115  CD1 PHE d   1      21.242  36.778  58.617  0.00  0.00    -0.077 A 
ATOM    116  CE1 PHE d   1      20.610  37.050  59.818  0.00  0.00    -0.082 A 
ATOM    117  H41 PHE d   1      20.852  37.204  57.700  0.00  0.00     0.084 H 
ATOM    118  CZ  PHE d   1      21.106  36.496  61.003  0.00  0.00    -0.083 A 
ATOM    119  H43 PHE d   1      19.735  37.689  59.840  0.00  0.00     0.083 H 
ATOM    120  CE2 PHE d   1      22.233  35.685  60.970  0.00  0.00    -0.082 A 
ATOM    121  H45 PHE d   1      20.611  36.700  61.946  0.00  0.00     0.083 H 
ATOM    122  CD2 PHE d   1      22.858  35.425  59.758  0.00  0.00    -0.077 A 
ATOM    123  H44 PHE d   1      22.623  35.257  61.886  0.00  0.00     0.083 H 
ATOM    124  H42 PHE d   1      23.738  34.792  59.735  0.00  0.00     0.084 H 
ENDBRANCH 111 114
ENDBRANCH  73 111
ENDBRANCH  71  73
ENDBRANCH  67  69
BRANCH  67 125
ATOM    125  CB  ALA d   1      23.891  40.943  58.209  0.00  0.00    -0.049 C 
ATOM    126  H34 ALA d   1      24.692  40.806  58.950  0.00  0.00     0.030 H 
ATOM    127  H35 ALA d   1      22.983  40.424  58.550  0.00  0.00     0.030 H 
ATOM    128  H36 ALA d   1      23.678  42.016  58.093  0.00  0.00     0.030 H 
ENDBRANCH  67 125
ENDBRANCH   3  67
TORSDOF 34
