REMARK  22 active torsions:
REMARK  status: ('A' for Active; 'I' for Inactive)
REMARK    1  A    between atoms: CAV_33  and  CAW_1 
REMARK    2  A    between atoms: CAW_1  and  OAX_34 
REMARK    3  A    between atoms: CAA_12  and  CBK_11 
REMARK       I    between atoms: N_14  and  CAA_12 
REMARK    4  A    between atoms: CA_15  and  N_14 
REMARK    5  A    between atoms: CA_15  and  CB_16 
REMARK    6  A    between atoms: C_21  and  CA_15 
REMARK    7  A    between atoms: CB_16  and  CG_17 
REMARK    8  A    between atoms: CG_17  and  CD_18 
REMARK    9  A    between atoms: CD_18  and  CE_19 
REMARK   10  A    between atoms: CE_19  and  NZ_20 
REMARK       I    between atoms: NAL_23  and  C_21 
REMARK   11  A    between atoms: CAM_24  and  NAL_23 
REMARK   12  A    between atoms: CAM_24  and  CAP_25 
REMARK   13  A    between atoms: CAN_30  and  CAM_24 
REMARK   14  A    between atoms: CAP_25  and  CAQ_26 
REMARK   15  A    between atoms: CAQ_26  and  CAR_27 
REMARK   16  A    between atoms: CAR_27  and  CAS_28 
REMARK   17  A    between atoms: CAS_28  and  NAT_29 
REMARK       I    between atoms: NAU_32  and  CAN_30 
REMARK   18  A    between atoms: NAU_32  and  CAV_33 
REMARK   19  A    between atoms: CAV_33  and  CAY_35 
REMARK   20  A    between atoms: CAY_35  and  CAZ_36 
REMARK   21  A    between atoms: CAZ_36  and  CBA_37 
REMARK   22  A    between atoms: CBA_37  and  NBB_38 
REMARK       I    between atoms: NBB_38  and  CBC_39 
REMARK       I    between atoms: CBC_39  and  NBE_40 
ROOT
ATOM      1  CAM NKK d   1      17.688  55.680   2.975  0.00  0.00     0.089 C 
ATOM      2  H24 NKK d   1      17.317  56.514   3.589  0.00  0.00     0.087 H 
ENDROOT
BRANCH   1   3
ATOM      3  NAL NKK d   1      17.121  54.416   3.467  0.00  0.00    -0.346 N 
ATOM      4  C   NKK d   1      16.288  54.367   4.501  0.00  0.00     0.241 C 
ATOM      5  O   NKK d   1      15.946  55.356   5.147  0.00  0.00    -0.271 OA
ATOM      6  H23 NKK d   1      17.371  53.564   3.008  0.00  0.00     0.163 HD
BRANCH   4   7
ATOM      7  CA  NKK d   1      15.763  52.968   4.834  0.00  0.00     0.089 C 
ATOM      8  H11 NKK d   1      14.691  53.037   5.069  0.00  0.00     0.087 H 
BRANCH   7   9
ATOM      9  N   NKK d   1      15.957  52.094   3.669  0.00  0.00    -0.344 N 
ATOM     10  CAA NKK d   1      15.206  52.184   2.574  0.00  0.00     0.252 C 
ATOM     11  OAB NKK d   1      14.257  52.958   2.454  0.00  0.00    -0.268 OA
ATOM     12  H10 NKK d   1      16.681  51.405   3.700  0.00  0.00     0.163 HD
BRANCH  10  13
ATOM     13  CBK NKK d   1      15.566  51.194   1.466  0.00  0.00     0.032 A 
ATOM     14  CBJ NKK d   1      15.166  51.425   0.154  0.00  0.00    -0.057 A 
ATOM     15  CBI NKK d   1      15.469  50.503  -0.841  0.00  0.00    -0.025 A 
ATOM     16  H3  NKK d   1      14.617  52.326  -0.093  0.00  0.00     0.086 H 
ATOM     17  CBL NKK d   1      15.081  50.740  -2.155  0.00  0.00    -0.072 A 
ATOM     18  CBH NKK d   1      16.171  49.344  -0.528  0.00  0.00    -0.026 A 
ATOM     19  CBM NKK d   1      15.392  49.819  -3.149  0.00  0.00    -0.082 A 
ATOM     20  H4  NKK d   1      14.536  51.643  -2.405  0.00  0.00     0.084 H 
ATOM     21  CBO NKK d   1      16.088  48.657  -2.834  0.00  0.00    -0.082 A 
ATOM     22  H5  NKK d   1      15.091  50.007  -4.173  0.00  0.00     0.083 H 
ATOM     23  CBN NKK d   1      16.479  48.420  -1.521  0.00  0.00    -0.072 A 
ATOM     24  H6  NKK d   1      16.325  47.938  -3.610  0.00  0.00     0.083 H 
ATOM     25  H7  NKK d   1      17.023  47.516  -1.272  0.00  0.00     0.084 H 
ATOM     26  CBG NKK d   1      16.572  49.113   0.783  0.00  0.00    -0.071 A 
ATOM     27  CBF NKK d   1      16.272  50.037   1.777  0.00  0.00    -0.067 A 
ATOM     28  H8  NKK d   1      17.119  48.211   1.030  0.00  0.00     0.084 H 
ATOM     29  H9  NKK d   1      16.589  49.855   2.797  0.00  0.00     0.085 H 
ENDBRANCH  10  13
ENDBRANCH   7   9
BRANCH   7  30
ATOM     30  CB  NKK d   1      16.495  52.353   6.028  0.00  0.00    -0.038 C 
ATOM     31  H12 NKK d   1      16.398  53.011   6.904  0.00  0.00     0.036 H 
ATOM     32  H13 NKK d   1      17.560  52.220   5.785  0.00  0.00     0.036 H 
BRANCH  30  33
ATOM     33  CG  NKK d   1      15.857  50.995   6.325  0.00  0.00    -0.061 C 
ATOM     34  H14 NKK d   1      15.826  50.410   5.394  0.00  0.00     0.033 H 
ATOM     35  H15 NKK d   1      14.832  51.160   6.689  0.00  0.00     0.033 H 
BRANCH  33  36
ATOM     36  CD  NKK d   1      16.626  50.195   7.378  0.00  0.00    -0.043 C 
ATOM     37  H16 NKK d   1      17.657  50.045   7.026  0.00  0.00     0.035 H 
ATOM     38  H17 NKK d   1      16.137  49.218   7.508  0.00  0.00     0.035 H 
BRANCH  36  39
ATOM     39  CE  NKK d   1      16.666  50.910   8.729  0.00  0.00     0.080 C 
ATOM     40  H18 NKK d   1      15.641  51.083   9.088  0.00  0.00     0.075 H 
ATOM     41  H19 NKK d   1      17.186  51.874   8.624  0.00  0.00     0.075 H 
BRANCH  39  42
ATOM     42  NZ  NKK d   1      17.389  50.058   9.684  0.00  0.00    -0.079 N 
ATOM     43  H20 NKK d   1      17.425  50.515  10.582  0.00  0.00     0.274 HD
ATOM     44  H21 NKK d   1      18.327  49.900   9.350  0.00  0.00     0.274 HD
ATOM     45  H22 NKK d   1      16.911  49.175   9.775  0.00  0.00     0.274 HD
ENDBRANCH  39  42
ENDBRANCH  36  39
ENDBRANCH  33  36
ENDBRANCH  30  33
ENDBRANCH   7  30
ENDBRANCH   4   7
ENDBRANCH   1   3
BRANCH   1  46
ATOM     46  CAP NKK d   1      19.218  55.661   3.016  0.00  0.00    -0.038 C 
ATOM     47  H25 NKK d   1      19.595  56.540   2.472  0.00  0.00     0.036 H 
ATOM     48  H26 NKK d   1      19.571  54.745   2.521  0.00  0.00     0.036 H 
BRANCH  46  49
ATOM     49  CAQ NKK d   1      19.777  55.692   4.441  0.00  0.00    -0.061 C 
ATOM     50  H27 NKK d   1      19.454  54.787   4.976  0.00  0.00     0.033 H 
ATOM     51  H28 NKK d   1      19.393  56.582   4.961  0.00  0.00     0.033 H 
BRANCH  49  52
ATOM     52  CAR NKK d   1      21.306  55.744   4.418  0.00  0.00    -0.043 C 
ATOM     53  H29 NKK d   1      21.623  56.644   3.871  0.00  0.00     0.035 H 
ATOM     54  H30 NKK d   1      21.685  54.849   3.903  0.00  0.00     0.035 H 
BRANCH  52  55
ATOM     55  CAS NKK d   1      21.895  55.789   5.829  0.00  0.00     0.080 C 
ATOM     56  H31 NKK d   1      22.993  55.825   5.768  0.00  0.00     0.075 H 
ATOM     57  H32 NKK d   1      21.588  54.890   6.384  0.00  0.00     0.075 H 
BRANCH  55  58
ATOM     58  NAT NKK d   1      21.403  56.986   6.524  0.00  0.00    -0.079 N 
ATOM     59  H33 NKK d   1      21.790  57.017   7.454  0.00  0.00     0.274 HD
ATOM     60  H34 NKK d   1      20.397  56.953   6.580  0.00  0.00     0.274 HD
ATOM     61  H35 NKK d   1      21.684  57.809   6.015  0.00  0.00     0.274 HD
ENDBRANCH  55  58
ENDBRANCH  52  55
ENDBRANCH  49  52
ENDBRANCH  46  49
ENDBRANCH   1  46
BRANCH   1  62
ATOM     62  CAN NKK d   1      17.237  55.854   1.525  0.00  0.00     0.240 C 
ATOM     63  OAO NKK d   1      17.228  54.903   0.746  0.00  0.00    -0.271 OA
ATOM     64  NAU NKK d   1      16.838  57.082   1.205  0.00  0.00    -0.353 N 
ATOM     65  H36 NKK d   1      16.847  57.801   1.900  0.00  0.00     0.163 HD
BRANCH  64  66
ATOM     66  CAV NKK d   1      16.385  57.395  -0.155  0.00  0.00     0.032 C 
ATOM     67  H37 NKK d   1      16.728  56.612  -0.848  0.00  0.00     0.075 H 
BRANCH  66  68
ATOM     68  CAW NKK d   1      16.991  58.735  -0.573  0.00  0.00     0.035 C 
ATOM     69  H1  NKK d   1      18.088  58.683  -0.512  0.00  0.00     0.077 H 
ATOM     70  H2  NKK d   1      16.624  59.532   0.090  0.00  0.00     0.077 H 
BRANCH  68  71
ATOM     71  OAX NKK d   1      16.594  59.004  -1.919  0.00  0.00    -0.399 OA
ATOM     72  H38 NKK d   1      16.962  59.835  -2.196  0.00  0.00     0.209 HD
ENDBRANCH  68  71
ENDBRANCH  66  68
BRANCH  66  73
ATOM     73  CAY NKK d   1      14.855  57.442  -0.172  0.00  0.00    -0.043 C 
ATOM     74  H39 NKK d   1      14.498  57.544  -1.207  0.00  0.00     0.036 H 
ATOM     75  H40 NKK d   1      14.503  58.297   0.423  0.00  0.00     0.036 H 
BRANCH  73  76
ATOM     76  CAZ NKK d   1      14.326  56.139   0.432  0.00  0.00    -0.048 C 
ATOM     77  H41 NKK d   1      14.692  56.067   1.467  0.00  0.00     0.035 H 
ATOM     78  H42 NKK d   1      14.725  55.300  -0.158  0.00  0.00     0.035 H 
BRANCH  76  79
ATOM     79  CBA NKK d   1      12.801  56.022   0.456  0.00  0.00     0.009 C 
ATOM     80  H43 NKK d   1      12.396  56.139  -0.560  0.00  0.00     0.064 H 
ATOM     81  H44 NKK d   1      12.372  56.793   1.113  0.00  0.00     0.064 H 
BRANCH  79  82
ATOM     82  NBB NKK d   1      12.485  54.683   0.975  0.00  0.00    -0.227 N 
ATOM     83  CBC NKK d   1      11.230  54.251   1.037  0.00  0.00     0.665 C 
ATOM     84  NBE NKK d   1      10.983  53.023   1.486  0.00  0.00    -0.235 N 
ATOM     85  NBD NKK d   1      10.238  55.037   0.631  0.00  0.00    -0.235 N 
ATOM     86  H46 NKK d   1      10.014  52.679   1.538  0.00  0.00     0.174 HD
ATOM     87  H47 NKK d   1      11.761  52.416   1.782  0.00  0.00     0.174 HD
ATOM     88  H48 NKK d   1      10.441  55.986   0.285  0.00  0.00     0.174 HD
ATOM     89  H49 NKK d   1       9.266  54.697   0.662  0.00  0.00     0.174 HD
ATOM     90  H45 NKK d   1      13.248  54.070   1.296  0.00  0.00     0.177 HD
ENDBRANCH  79  82
ENDBRANCH  76  79
ENDBRANCH  73  76
ENDBRANCH  66  73
ENDBRANCH  64  66
ENDBRANCH   1  62
TORSDOF 22
