REMARK  10 active torsions:
REMARK  status: ('A' for Active; 'I' for Inactive)
REMARK    1  A    between atoms: CA_3  and  N_2 
REMARK    2  A    between atoms: CA_3  and  C_4 
REMARK    3  A    between atoms: CA_3  and  CB_6 
REMARK    4  A    between atoms: CB_6  and  SG_7 
REMARK    5  A    between atoms: SG_7  and  CD_8 
REMARK    6  A    between atoms: CD_8  and  CE_9 
REMARK    7  A    between atoms: CE_9  and  B_10 
REMARK    8  A    between atoms: B_10  and  O1_11 
REMARK    9  A    between atoms: B_10  and  O2_12 
REMARK   10  A    between atoms: B_10  and  O3_13 
ROOT
ATOM      1  CD  S2C d   1      40.384 -19.830   5.660  0.00  0.00    -0.029 C 
ATOM      2  H7  S2C d   1      40.485 -19.216   4.753  0.00  0.00     0.047 H 
ATOM      3  H8  S2C d   1      39.940 -19.226   6.465  0.00  0.00     0.047 H 
ENDROOT
BRANCH   1   4
ATOM      4  SG  S2C d   1      42.006 -20.419   6.173  0.00  0.00    -0.167 SA
BRANCH   4   5
ATOM      5  CB  S2C d   1      42.923 -19.716   4.805  0.00  0.00     0.013 C 
ATOM      6  H5  S2C d   1      42.515 -20.130   3.871  0.00  0.00     0.052 H 
ATOM      7  H6  S2C d   1      42.776 -18.626   4.818  0.00  0.00     0.052 H 
BRANCH   5   8
ATOM      8  CA  S2C d   1      44.437 -19.996   4.833  0.00  0.00     0.190 C 
ATOM      9  H4  S2C d   1      44.956 -19.148   5.303  0.00  0.00     0.102 H 
BRANCH   8  10
ATOM     10  N   S2C d   1      44.761 -20.078   3.385  0.00  0.00    -0.065 N 
ATOM     11  H1  S2C d   1      44.458 -19.234   2.925  0.00  0.00     0.275 HD
ATOM     12  H2  S2C d   1      44.288 -20.870   2.979  0.00  0.00     0.275 HD
ATOM     13  H3  S2C d   1      45.757 -20.185   3.269  0.00  0.00     0.275 HD
ENDBRANCH   8  10
BRANCH   8  14
ATOM     14  C   S2C d   1      44.907 -21.308   5.555  0.00  0.00     0.205 C 
ATOM     15  OXT S2C d   1      44.662 -21.300   6.866  0.00  0.00    -0.646 OA
ATOM     16  O   S2C d   1      45.476 -22.302   4.999  0.00  0.00    -0.646 OA
ENDBRANCH   8  14
ENDBRANCH   5   8
ENDBRANCH   4   5
ENDBRANCH   1   4
BRANCH   1  17
ATOM     17  CE  S2C d   1      39.490 -21.028   5.368  0.00  0.00    -0.061 C 
ATOM     18  H9  S2C d   1      39.426 -21.181   4.281  0.00  0.00     0.024 H 
ATOM     19  H11 S2C d   1      39.915 -21.926   5.840  0.00  0.00     0.024 H 
BRANCH  17  20
ATOM     20  B   S2C d   1      38.041 -20.710   4.901  0.00  0.00     0.319 B 
BRANCH  20  21
ATOM     21  O1  S2C d   1      37.990 -20.184   3.558  0.00  0.00     0.000 OA
ATOM     22  H12 S2C d   1      38.347 -20.825   2.954  0.00  0.00     0.000 HD
ATOM     23  H13 S2C d   1      38.347 -20.825   2.954  0.00  0.00     0.000 HD
ENDBRANCH  20  21
BRANCH  20  24
ATOM     24  O2  S2C d   1      37.258 -21.911   4.920  0.00  0.00     0.000 OA
ATOM     25  H14 S2C d   1      37.622 -22.535   4.303  0.00  0.00     0.000 HD
ATOM     26  H15 S2C d   1      37.622 -22.535   4.303  0.00  0.00     0.000 HD
ENDBRANCH  20  24
BRANCH  20  27
ATOM     27  O3  S2C d   1      37.357 -19.750   5.776  0.00  0.00    -0.467 OA
ATOM     28  H17 S2C d   1      37.047 -19.761   6.674  0.00  0.00     0.181 HD
ENDBRANCH  20  27
ENDBRANCH  17  20
ENDBRANCH   1  17
TORSDOF 10
