REMARK  15 active torsions:
REMARK  status: ('A' for Active; 'I' for Inactive)
REMARK    1  A    between atoms: NZ_1  and  CE_2 
REMARK    2  A    between atoms: CE_2  and  CD_3 
REMARK    3  A    between atoms: CD_3  and  CG_4 
REMARK    4  A    between atoms: CG_4  and  CB_5 
REMARK    5  A    between atoms: CB_5  and  CA_6 
REMARK    6  A    between atoms: CA_6  and  N_7 
REMARK    7  A    between atoms: CA_6  and  C_8 
REMARK       I    between atoms: C_8  and  N8_10 
REMARK    8  A    between atoms: N8_10  and  S1_11 
REMARK    9  A    between atoms: S1_11  and  O5'_14 
REMARK   10  A    between atoms: O5'_14  and  C5'_15 
REMARK   11  A    between atoms: C5'_15  and  C4'_16 
REMARK   12  A    between atoms: C3'_18  and  O3'_19 
REMARK   13  A    between atoms: C2'_20  and  O2'_21 
REMARK   14  A    between atoms: C1'_22  and  N9_23 
REMARK   15  A    between atoms: C6_31  and  N6_32 
ROOT
ATOM      1  O5' KAA d   1      59.163 -74.745  23.182  0.00  0.00    -0.257 OA
ENDROOT
BRANCH   1   2
ATOM      2  S1  KAA d   1      58.604 -73.791  22.265  0.00  0.00     0.364 S 
ATOM      3  O1S KAA d   1      57.744 -72.916  23.125  0.00  0.00    -0.175 OA
ATOM      4  O2S KAA d   1      57.785 -74.457  21.202  0.00  0.00    -0.175 OA
BRANCH   2   5
ATOM      5  N8  KAA d   1      59.740 -72.825  21.618  0.00  0.00    -0.230 N 
ATOM      6  C   KAA d   1      60.766 -72.400  22.348  0.00  0.00     0.263 C 
ATOM      7  O   KAA d   1      60.732 -72.321  23.574  0.00  0.00    -0.270 OA
ATOM      8  H16 KAA d   1      59.666 -72.547  20.660  0.00  0.00     0.183 HD
BRANCH   6   9
ATOM      9  CA  KAA d   1      61.832 -71.648  21.545  0.00  0.00     0.177 C 
ATOM     10  H12 KAA d   1      61.373 -71.029  20.760  0.00  0.00     0.099 H 
BRANCH   9  11
ATOM     11  CB  KAA d   1      62.742 -72.722  20.939  0.00  0.00    -0.030 C 
ATOM     12  H10 KAA d   1      63.316 -73.186  21.755  0.00  0.00     0.036 H 
ATOM     13  H11 KAA d   1      62.106 -73.481  20.460  0.00  0.00     0.036 H 
BRANCH  11  14
ATOM     14  CG  KAA d   1      63.732 -72.200  19.894  0.00  0.00    -0.061 C 
ATOM     15  H8  KAA d   1      64.327 -71.394  20.348  0.00  0.00     0.033 H 
ATOM     16  H9  KAA d   1      64.397 -73.025  19.600  0.00  0.00     0.033 H 
BRANCH  14  17
ATOM     17  CD  KAA d   1      63.050 -71.652  18.635  0.00  0.00    -0.043 C 
ATOM     18  H6  KAA d   1      62.484 -72.462  18.152  0.00  0.00     0.035 H 
ATOM     19  H7  KAA d   1      62.361 -70.845  18.923  0.00  0.00     0.035 H 
BRANCH  17  20
ATOM     20  CE  KAA d   1      64.081 -71.099  17.640  0.00  0.00     0.080 C 
ATOM     21  H4  KAA d   1      64.776 -71.903  17.356  0.00  0.00     0.075 H 
ATOM     22  H5  KAA d   1      63.558 -70.734  16.744  0.00  0.00     0.075 H 
BRANCH  20  23
ATOM     23  NZ  KAA d   1      64.843 -69.991  18.240  0.00  0.00    -0.079 N 
ATOM     24  H1  KAA d   1      65.513 -69.643  17.572  0.00  0.00     0.274 HD
ATOM     25  H2  KAA d   1      65.327 -70.321  19.060  0.00  0.00     0.274 HD
ATOM     26  H3  KAA d   1      64.211 -69.250  18.499  0.00  0.00     0.274 HD
ENDBRANCH  20  23
ENDBRANCH  17  20
ENDBRANCH  14  17
ENDBRANCH  11  14
ENDBRANCH   9  11
BRANCH   9  27
ATOM     27  N   KAA d   1      62.621 -70.816  22.462  0.00  0.00    -0.066 N 
ATOM     28  H13 KAA d   1      62.029 -70.106  22.865  0.00  0.00     0.275 HD
ATOM     29  H14 KAA d   1      63.373 -70.377  21.955  0.00  0.00     0.275 HD
ATOM     30  H15 KAA d   1      63.002 -71.393  23.196  0.00  0.00     0.275 HD
ENDBRANCH   9  27
ENDBRANCH   6   9
ENDBRANCH   2   5
ENDBRANCH   1   2
BRANCH   1  31
ATOM     31  C5' KAA d   1      59.908 -75.867  22.678  0.00  0.00     0.066 C 
ATOM     32  H17 KAA d   1      60.875 -75.897  23.202  0.00  0.00     0.080 H 
ATOM     33  H18 KAA d   1      60.078 -75.708  21.603  0.00  0.00     0.080 H 
BRANCH  31  34
ATOM     34  C4' KAA d   1      59.232 -77.230  22.854  0.00  0.00     0.090 C 
ATOM     35  O4' KAA d   1      59.196 -77.622  24.229  0.00  0.00    -0.353 OA
ATOM     36  C1' KAA d   1      58.110 -78.547  24.420  0.00  0.00     0.139 C 
ATOM     37  C2' KAA d   1      57.361 -78.654  23.091  0.00  0.00     0.105 C 
ATOM     38  H24 KAA d   1      58.492 -79.540  24.700  0.00  0.00     0.122 H 
ATOM     39  C3' KAA d   1      57.801 -77.394  22.339  0.00  0.00     0.091 C 
ATOM     40  H22 KAA d   1      56.272 -78.656  23.243  0.00  0.00     0.093 H 
ATOM     41  H20 KAA d   1      57.164 -76.521  22.547  0.00  0.00     0.091 H 
ATOM     42  H19 KAA d   1      59.856 -77.950  22.305  0.00  0.00     0.090 H 
BRANCH  36  43
ATOM     43  N9  KAA d   1      57.286 -78.009  25.528  0.00  0.00    -0.294 N 
ATOM     44  C8  KAA d   1      56.856 -76.756  25.653  0.00  0.00     0.071 A 
ATOM     45  N7  KAA d   1      56.192 -76.631  26.801  0.00  0.00    -0.236 NA
ATOM     46  H25 KAA d   1      57.021 -75.958  24.930  0.00  0.00     0.144 H 
ATOM     47  C5  KAA d   1      56.193 -77.814  27.410  0.00  0.00     0.149 A 
ATOM     48  C4  KAA d   1      56.896 -78.693  26.601  0.00  0.00     0.167 A 
ATOM     49  C6  KAA d   1      55.658 -78.301  28.598  0.00  0.00     0.155 A 
ATOM     50  N3  KAA d   1      57.045 -79.969  26.991  0.00  0.00    -0.222 NA
ATOM     51  C2  KAA d   1      56.532 -80.406  28.130  0.00  0.00     0.091 A 
ATOM     52  N1  KAA d   1      55.850 -79.590  28.919  0.00  0.00    -0.222 NA
ATOM     53  H26 KAA d   1      56.671 -81.441  28.420  0.00  0.00     0.146 H 
BRANCH  49  54
ATOM     54  N6  KAA d   1      54.941 -77.508  29.391  0.00  0.00    -0.382 N 
ATOM     55  H27 KAA d   1      54.548 -77.877  30.269  0.00  0.00     0.157 HD
ATOM     56  H28 KAA d   1      54.779 -76.526  29.127  0.00  0.00     0.157 HD
ENDBRANCH  49  54
ENDBRANCH  36  43
BRANCH  37  57
ATOM     57  O2' KAA d   1      57.753 -79.857  22.421  0.00  0.00    -0.388 OA
ATOM     58  H23 KAA d   1      57.360 -79.879  21.556  0.00  0.00     0.210 HD
ENDBRANCH  37  57
BRANCH  39  59
ATOM     59  O3' KAA d   1      57.848 -77.692  20.941  0.00  0.00    -0.390 OA
ATOM     60  H21 KAA d   1      56.963 -77.796  20.611  0.00  0.00     0.210 HD
ENDBRANCH  39  59
ENDBRANCH  31  34
ENDBRANCH   1  31
TORSDOF 15
