REMARK  17 active torsions:
REMARK  status: ('A' for Active; 'I' for Inactive)
REMARK    1  A    between atoms: N_1  and  CA_2 
REMARK    2  A    between atoms: CA_2  and  C_3 
REMARK    3  A    between atoms: CA_2  and  CB_5 
REMARK       I    between atoms: C_3  and  N_9 
REMARK    4  A    between atoms: CB_5  and  CG_6 
REMARK    5  A    between atoms: N_9  and  CA_10 
REMARK    6  A    between atoms: CA_10  and  C_11 
REMARK    7  A    between atoms: CA_10  and  CB_13 
REMARK       I    between atoms: C_11  and  N_17 
REMARK    8  A    between atoms: CB_13  and  CG_14 
REMARK    9  A    between atoms: CG_14  and  CD1_15 
REMARK   10  A    between atoms: CG_14  and  CD2_16 
REMARK   11  A    between atoms: N_17  and  CA_18 
REMARK   12  A    between atoms: CA_18  and  C_19 
REMARK   13  A    between atoms: CA_18  and  CB_21 
REMARK       I    between atoms: C_19  and  N_29 
REMARK   14  A    between atoms: CB_21  and  CG_22 
REMARK   15  A    between atoms: CZ_27  and  OH_28 
REMARK   16  A    between atoms: N_29  and  CA_30 
REMARK   17  A    between atoms: CA_30  and  C_31 
ROOT
ATOM      1  CA  LEU d   1      12.485 -13.740  33.164  0.00  0.00     0.089 C 
ATOM      2  H8  LEU d   1      13.075 -14.574  33.572  0.00  0.00     0.087 H 
ENDROOT
BRANCH   1   3
ATOM      3  N   LEU d   1      11.086 -14.017  33.490  0.00  0.00    -0.346 N 
ATOM      4  C   ASP d   1      10.693 -14.315  34.724  0.00  0.00     0.249 C 
ATOM      5  O   ASP d   1      11.462 -14.297  35.694  0.00  0.00    -0.271 OA
ATOM      6  H7  LEU d   1      10.403 -13.981  32.760  0.00  0.00     0.163 HD
BRANCH   4   7
ATOM      7  CA  ASP d   1       9.208 -14.681  34.895  0.00  0.00     0.185 C 
ATOM      8  H4  ASP d   1       8.808 -14.086  35.729  0.00  0.00     0.100 H 
BRANCH   7   9
ATOM      9  N   ASP d   1       8.402 -14.370  33.681  0.00  0.00    -0.066 N 
ATOM     10  H1  ASP d   1       7.440 -14.626  33.841  0.00  0.00     0.275 HD
ATOM     11  H2  ASP d   1       8.762 -14.890  32.896  0.00  0.00     0.275 HD
ATOM     12  H3  ASP d   1       8.458 -13.383  33.484  0.00  0.00     0.275 HD
ENDBRANCH   7   9
BRANCH   7  13
ATOM     13  CB  ASP d   1       9.061 -16.165  35.246  0.00  0.00     0.050 C 
ATOM     14  H5  ASP d   1       9.913 -16.713  34.818  0.00  0.00     0.052 H 
ATOM     15  H6  ASP d   1       8.126 -16.540  34.805  0.00  0.00     0.052 H 
BRANCH  13  16
ATOM     16  CG  ASP d   1       9.025 -16.417  36.754  0.00  0.00     0.175 C 
ATOM     17  OD1 ASP d   1       8.394 -17.421  37.161  0.00  0.00    -0.648 OA
ATOM     18  OD2 ASP d   1       9.615 -15.623  37.529  0.00  0.00    -0.648 OA
ENDBRANCH  13  16
ENDBRANCH   7  13
ENDBRANCH   4   7
ENDBRANCH   1   3
BRANCH   1  19
ATOM     19  C   LEU d   1      13.069 -12.452  33.773  0.00  0.00     0.241 C 
ATOM     20  O   LEU d   1      14.225 -12.448  34.210  0.00  0.00    -0.271 OA
ATOM     21  N   TYR d   1      12.277 -11.378  33.802  0.00  0.00    -0.346 N 
ATOM     22  H18 TYR d   1      11.297 -11.498  33.644  0.00  0.00     0.163 HD
BRANCH  21  23
ATOM     23  CA  TYR d   1      12.795 -10.021  34.059  0.00  0.00     0.093 C 
ATOM     24  H19 TYR d   1      13.877 -10.110  34.233  0.00  0.00     0.088 H 
BRANCH  23  25
ATOM     25  C   TYR d   1      12.186  -9.334  35.296  0.00  0.00     0.241 C 
ATOM     26  O   TYR d   1      11.165  -9.796  35.811  0.00  0.00    -0.271 OA
ATOM     27  N   GLY d   1      12.802  -8.247  35.785  0.00  0.00    -0.349 N 
ATOM     28  H27 GLY d   1      12.350  -7.748  36.524  0.00  0.00     0.163 HD
BRANCH  27  29
ATOM     29  CA  GLY d   1      14.105  -7.736  35.305  0.00  0.00     0.075 C 
ATOM     30  H28 GLY d   1      14.540  -8.494  34.636  0.00  0.00     0.080 H 
ATOM     31  H29 GLY d   1      14.758  -7.601  36.180  0.00  0.00     0.080 H 
BRANCH  29  32
ATOM     32  C   GLY d   1      14.059  -6.416  34.548  0.00  0.00     0.191 C 
ATOM     33  O   GLY d   1      13.052  -5.692  34.571  0.00  0.00    -0.647 OA
ATOM     34  O1  GLY d   1      15.066  -6.051  33.884  0.00  0.00    -0.647 OA
ENDBRANCH  29  32
ENDBRANCH  27  29
ENDBRANCH  23  25
BRANCH  23  35
ATOM     35  CB  TYR d   1      12.577  -9.144  32.819  0.00  0.00    -0.014 C 
ATOM     36  H20 TYR d   1      12.962  -8.136  33.031  0.00  0.00     0.043 H 
ATOM     37  H21 TYR d   1      11.498  -9.089  32.614  0.00  0.00     0.043 H 
BRANCH  35  38
ATOM     38  CG  TYR d   1      13.273  -9.675  31.590  0.00  0.00    -0.056 A 
ATOM     39  CD1 TYR d   1      14.653  -9.516  31.417  0.00  0.00    -0.074 A 
ATOM     40  CE1 TYR d   1      15.297 -10.019  30.287  0.00  0.00    -0.051 A 
ATOM     41  H22 TYR d   1      15.229  -8.994  32.172  0.00  0.00     0.084 H 
ATOM     42  CZ  TYR d   1      14.557 -10.691  29.320  0.00  0.00     0.065 A 
ATOM     43  H24 TYR d   1      16.366  -9.887  30.163  0.00  0.00     0.087 H 
ATOM     44  CE2 TYR d   1      13.195 -10.859  29.472  0.00  0.00    -0.051 A 
ATOM     45  CD2 TYR d   1      12.559 -10.348  30.604  0.00  0.00    -0.074 A 
ATOM     46  H25 TYR d   1      12.623 -11.385  28.716  0.00  0.00     0.087 H 
ATOM     47  H23 TYR d   1      11.489 -10.478  30.717  0.00  0.00     0.084 H 
BRANCH  42  48
ATOM     48  OH  TYR d   1      15.169 -11.192  28.192  0.00  0.00    -0.361 OA
ATOM     49  H26 TYR d   1      14.790 -10.786  27.421  0.00  0.00     0.217 HD
ENDBRANCH  42  48
ENDBRANCH  35  38
ENDBRANCH  23  35
ENDBRANCH  21  23
ENDBRANCH   1  19
BRANCH   1  50
ATOM     50  CB  LEU d   1      12.670 -13.738  31.641  0.00  0.00    -0.035 C 
ATOM     51  H9  LEU d   1      13.433 -12.976  31.424  0.00  0.00     0.037 H 
ATOM     52  H10 LEU d   1      11.706 -13.424  31.213  0.00  0.00     0.037 H 
BRANCH  50  53
ATOM     53  CG  LEU d   1      13.092 -15.003  30.872  0.00  0.00    -0.059 C 
ATOM     54  H11 LEU d   1      14.156 -14.888  30.617  0.00  0.00     0.038 H 
BRANCH  53  55
ATOM     55  CD1 LEU d   1      12.967 -16.292  31.682  0.00  0.00    -0.073 C 
ATOM     56  H12 LEU d   1      13.286 -17.145  31.065  0.00  0.00     0.028 H 
ATOM     57  H13 LEU d   1      11.920 -16.432  31.989  0.00  0.00     0.028 H 
ATOM     58  H14 LEU d   1      13.605 -16.227  32.575  0.00  0.00     0.028 H 
ENDBRANCH  53  55
BRANCH  53  59
ATOM     59  CD2 LEU d   1      12.315 -15.098  29.574  0.00  0.00    -0.073 C 
ATOM     60  H15 LEU d   1      12.423 -14.158  29.013  0.00  0.00     0.028 H 
ATOM     61  H16 LEU d   1      11.252 -15.273  29.795  0.00  0.00     0.028 H 
ATOM     62  H17 LEU d   1      12.707 -15.931  28.972  0.00  0.00     0.028 H 
ENDBRANCH  53  59
ENDBRANCH  50  53
ENDBRANCH   1  50
TORSDOF 17
