REMARK  5 active torsions:
REMARK  status: ('A' for Active; 'I' for Inactive)
REMARK    1  A    between atoms: N3_6  and  C11_13 
REMARK    2  A    between atoms: N1_8  and  C10_12 
REMARK    3  A    between atoms: C11_13  and  C12_14 
REMARK    4  A    between atoms: C12_14  and  C13_15 
REMARK    5  A    between atoms: C12_14  and  C14_16 
ROOT
ATOM      1  N9  IBM d   1      -1.371 -10.265  19.113  0.00  0.00    -0.224 NA
ATOM      2  C8  IBM d   1      -1.688  -9.545  20.239  0.00  0.00     0.067 A 
ATOM      3  N7  IBM d   1      -1.596 -10.234  21.349  0.00  0.00    -0.343 N 
ATOM      4  C5  IBM d   1      -1.191 -11.492  20.925  0.00  0.00     0.149 A 
ATOM      5  C4  IBM d   1      -1.049 -11.528  19.553  0.00  0.00     0.167 A 
ATOM      6  N3  IBM d   1      -0.676 -12.581  18.792  0.00  0.00    -0.281 N 
ATOM      7  C2  IBM d   1      -0.400 -13.721  19.495  0.00  0.00     0.333 A 
ATOM      8  N1  IBM d   1      -0.519 -13.780  20.889  0.00  0.00    -0.269 N 
ATOM      9  C6  IBM d   1      -0.915 -12.674  21.604  0.00  0.00     0.281 A 
ATOM     10  O6  IBM d   1      -1.017 -12.723  22.826  0.00  0.00    -0.265 OA
ATOM     11  O2  IBM d   1      -0.040 -14.723  18.887  0.00  0.00    -0.246 OA
ATOM     12  H1  IBM d   1      -1.988  -8.498  20.211  0.00  0.00     0.143 H 
ATOM     13  H2  IBM d   1      -1.781  -9.917  22.311  0.00  0.00     0.167 HD
ENDROOT
BRANCH   6  14
ATOM     14  C11 IBM d   1      -0.619 -12.514  17.334  0.00  0.00     0.009 C 
ATOM     15  H6  IBM d   1      -1.212 -11.655  16.986  0.00  0.00     0.065 H 
ATOM     16  H7  IBM d   1      -1.033 -13.441  16.911  0.00  0.00     0.065 H 
BRANCH  14  17
ATOM     17  C12 IBM d   1       0.832 -12.349  16.869  0.00  0.00    -0.045 C 
ATOM     18  H8  IBM d   1       1.418 -11.903  17.686  0.00  0.00     0.041 H 
BRANCH  17  19
ATOM     19  C13 IBM d   1       1.434 -13.706  16.519  0.00  0.00    -0.072 C 
ATOM     20  H9  IBM d   1       2.474 -13.571  16.188  0.00  0.00     0.028 H 
ATOM     21  H10 IBM d   1       0.849 -14.169  15.711  0.00  0.00     0.028 H 
ATOM     22  H11 IBM d   1       1.413 -14.356  17.406  0.00  0.00     0.028 H 
ENDBRANCH  17  19
BRANCH  17  23
ATOM     23  C14 IBM d   1       0.887 -11.419  15.658  0.00  0.00    -0.072 C 
ATOM     24  H12 IBM d   1       0.450 -10.445  15.924  0.00  0.00     0.028 H 
ATOM     25  H13 IBM d   1       0.317 -11.863  14.829  0.00  0.00     0.028 H 
ATOM     26  H14 IBM d   1       1.934 -11.280  15.350  0.00  0.00     0.028 H 
ENDBRANCH  17  23
ENDBRANCH  14  17
ENDBRANCH   6  14
BRANCH   8  27
ATOM     27  C10 IBM d   1      -0.228 -15.023  21.586  0.00  0.00    -0.007 C 
ATOM     28  H3  IBM d   1       0.071 -15.791  20.857  0.00  0.00     0.057 H 
ATOM     29  H4  IBM d   1      -1.125 -15.360  22.126  0.00  0.00     0.057 H 
ATOM     30  H5  IBM d   1       0.591 -14.859  22.302  0.00  0.00     0.057 H 
ENDBRANCH   8  27
TORSDOF 5
