REMARK  10 active torsions:
REMARK  status: ('A' for Active; 'I' for Inactive)
REMARK    1  A    between atoms: N1_1  and  C29_32 
REMARK    2  A    between atoms: C14_30  and  C7_6 
REMARK    3  A    between atoms: C20_12  and  O2_19 
REMARK    4  A    between atoms: O1_21  and  C26_16 
REMARK    5  A    between atoms: C9_34  and  C28_17 
REMARK    6  A    between atoms: C28_17  and  C1_35 
REMARK    7  A    between atoms: O2_19  and  C27_18 
REMARK    8  A    between atoms: C19_20  and  O1_21 
REMARK    9  A    between atoms: O3_25  and  C25_24 
REMARK   10  A    between atoms: C11_26  and  O3_25 
ROOT
ATOM      1  C13 MT3 d   1      62.399  13.191 114.265  0.00  0.00    -0.032 A 
ATOM      2  C15 MT3 d   1      62.072  15.419 115.128  0.00  0.00    -0.069 A 
ATOM      3  C11 MT3 d   1      61.818  13.545 116.602  0.00  0.00     0.114 A 
ATOM      4  C12 MT3 d   1      62.111  12.707 115.540  0.00  0.00     0.150 A 
ATOM      5  F1  MT3 d   1      62.122  11.392 115.793  0.00  0.00    -0.203 F 
ATOM      6  C16 MT3 d   1      61.784  14.924 116.404  0.00  0.00    -0.046 A 
ATOM      7  C14 MT3 d   1      62.388  14.569 114.054  0.00  0.00    -0.016 A 
ATOM      8  H5  MT3 d   1      62.627  12.509 113.454  0.00  0.00     0.089 H 
ATOM      9  H6  MT3 d   1      62.051  16.490 114.962  0.00  0.00     0.085 H 
ATOM     10  H19 MT3 d   1      61.540  15.596 117.219  0.00  0.00     0.087 H 
ENDROOT
BRANCH   7  11
ATOM     11  C7  MT3 d   1      62.671  15.132 112.797  0.00  0.00     0.060 A 
ATOM     12  C8  MT3 d   1      62.169  14.620 111.594  0.00  0.00     0.261 A 
ATOM     13  N1  MT3 d   1      62.491  15.263 110.379  0.00  0.00    -0.306 N 
ATOM     14  O4  MT3 d   1      61.450  13.614 111.580  0.00  0.00    -0.267 OA
ATOM     15  C9  MT3 d   1      63.326  16.406 110.407  0.00  0.00     0.112 A 
ATOM     16  N2  MT3 d   1      63.768  16.854 111.594  0.00  0.00    -0.246 NA
ATOM     17  C10 MT3 d   1      63.473  16.265 112.742  0.00  0.00     0.020 A 
ATOM     18  H4  MT3 d   1      63.869  16.679 113.668  0.00  0.00     0.116 H 
BRANCH  13  19
ATOM     19  C29 MT3 d   1      61.955  14.714 109.100  0.00  0.00    -0.010 C 
ATOM     20  H20 MT3 d   1      61.335  13.831 109.312  0.00  0.00     0.057 H 
ATOM     21  H21 MT3 d   1      62.791  14.427 108.445  0.00  0.00     0.057 H 
ATOM     22  H22 MT3 d   1      61.344  15.480 108.600  0.00  0.00     0.057 H 
ENDBRANCH  13  19
BRANCH  15  23
ATOM     23  C28 MT3 d   1      63.717  17.212 109.150  0.00  0.00     0.014 C 
ATOM     24  H12 MT3 d   1      63.991  18.227 109.474  0.00  0.00     0.051 H 
ATOM     25  H13 MT3 d   1      62.835  17.262 108.495  0.00  0.00     0.051 H 
BRANCH  23  26
ATOM     26  C1  MT3 d   1      64.873  16.658 108.331  0.00  0.00    -0.051 A 
ATOM     27  C6  MT3 d   1      64.719  16.552 106.952  0.00  0.00    -0.076 A 
ATOM     28  C5  MT3 d   1      65.757  16.058 106.168  0.00  0.00    -0.082 A 
ATOM     29  H3  MT3 d   1      63.788  16.855 106.487  0.00  0.00     0.084 H 
ATOM     30  C4  MT3 d   1      66.958  15.679 106.763  0.00  0.00    -0.083 A 
ATOM     31  H2  MT3 d   1      65.631  15.968 105.095  0.00  0.00     0.083 H 
ATOM     32  C3  MT3 d   1      67.118  15.791 108.144  0.00  0.00    -0.082 A 
ATOM     33  H1  MT3 d   1      67.768  15.297 106.153  0.00  0.00     0.083 H 
ATOM     34  C2  MT3 d   1      66.075  16.286 108.928  0.00  0.00    -0.076 A 
ATOM     35  H24 MT3 d   1      68.052  15.494 108.608  0.00  0.00     0.083 H 
ATOM     36  H23 MT3 d   1      66.200  16.381 110.001  0.00  0.00     0.084 H 
ENDBRANCH  23  26
ENDBRANCH  15  23
ENDBRANCH   7  11
BRANCH   3  37
ATOM     37  O3  MT3 d   1      61.523  12.945 117.791  0.00  0.00    -0.307 OA
BRANCH  37  38
ATOM     38  C25 MT3 d   1      62.370  12.924 118.868  0.00  0.00     0.090 A 
ATOM     39  C17 MT3 d   1      61.886  12.484 120.107  0.00  0.00     0.029 A 
ATOM     40  C22 MT3 d   1      62.733  12.468 121.215  0.00  0.00     0.072 A 
ATOM     41  C18 MT3 d   1      60.557  12.083 120.257  0.00  0.00    -0.033 A 
ATOM     42  N3  MT3 d   1      64.007  12.863 121.090  0.00  0.00    -0.260 NA
ATOM     43  C21 MT3 d   1      62.264  12.049 122.455  0.00  0.00    -0.019 A 
ATOM     44  C23 MT3 d   1      64.491  13.281 119.924  0.00  0.00     0.005 A 
ATOM     45  C24 MT3 d   1      63.697  13.326 118.780  0.00  0.00    -0.032 A 
ATOM     46  H18 MT3 d   1      65.527  13.594 119.862  0.00  0.00     0.114 H 
ATOM     47  H8  MT3 d   1      64.108  13.669 117.837  0.00  0.00     0.090 H 
ATOM     48  C20 MT3 d   1      60.934  11.639 122.597  0.00  0.00     0.103 A 
ATOM     49  H7  MT3 d   1      62.929  12.040 123.311  0.00  0.00     0.091 H 
ATOM     50  C19 MT3 d   1      60.089  11.663 121.505  0.00  0.00     0.102 A 
ATOM     51  H17 MT3 d   1      59.888  12.098 119.404  0.00  0.00     0.089 H 
BRANCH  48  52
ATOM     52  O2  MT3 d   1      60.396  11.209 123.776  0.00  0.00    -0.353 OA
BRANCH  52  53
ATOM     53  C27 MT3 d   1      61.293  10.538 124.684  0.00  0.00     0.010 C 
ATOM     54  H14 MT3 d   1      60.744  10.243 125.590  0.00  0.00     0.066 H 
ATOM     55  H15 MT3 d   1      62.114  11.217 124.958  0.00  0.00     0.066 H 
ATOM     56  H16 MT3 d   1      61.706   9.642 124.197  0.00  0.00     0.066 H 
ENDBRANCH  52  53
ENDBRANCH  48  52
BRANCH  50  57
ATOM     57  O1  MT3 d   1      58.817  11.244 121.732  0.00  0.00    -0.353 OA
BRANCH  57  58
ATOM     58  C26 MT3 d   1      57.905  11.298 120.635  0.00  0.00     0.010 C 
ATOM     59  H9  MT3 d   1      56.920  10.932 120.959  0.00  0.00     0.066 H 
ATOM     60  H10 MT3 d   1      58.279  10.667 119.816  0.00  0.00     0.066 H 
ATOM     61  H11 MT3 d   1      57.813  12.337 120.285  0.00  0.00     0.066 H 
ENDBRANCH  57  58
ENDBRANCH  50  57
ENDBRANCH  37  38
ENDBRANCH   3  37
TORSDOF 10
