REMARK  10 active torsions:
REMARK  status: ('A' for Active; 'I' for Inactive)
REMARK    1  A    between atoms: O3_25  and  C5_4 
REMARK    2  A    between atoms: C6_5  and  O1_19 
REMARK    3  A    between atoms: C7_6  and  O2_18 
REMARK    4  A    between atoms: O2_18  and  C10_8 
REMARK    5  A    between atoms: C18_30  and  C15_10 
REMARK    6  A    between atoms: N4_34  and  C20_12 
REMARK    7  A    between atoms: N2_33  and  C22_14 
REMARK    8  A    between atoms: O1_19  and  C11_20 
REMARK    9  A    between atoms: C12_26  and  O3_25 
REMARK   10  A    between atoms: N4_34  and  C23_35 
ROOT
ATOM      1  C13 MT4 d   1      62.735  12.844 115.485  0.00  0.00     0.150 A 
ATOM      2  C15 MT4 d   1      63.338  14.826 114.274  0.00  0.00    -0.016 A 
ATOM      3  C17 MT4 d   1      62.746  14.937 116.660  0.00  0.00    -0.046 A 
ATOM      4  C12 MT4 d   1      62.541  13.557 116.659  0.00  0.00     0.114 A 
ATOM      5  C14 MT4 d   1      63.135  13.450 114.302  0.00  0.00    -0.032 A 
ATOM      6  F2  MT4 d   1      62.524  11.525 115.518  0.00  0.00    -0.203 F 
ATOM      7  C16 MT4 d   1      63.159  15.544 115.468  0.00  0.00    -0.069 A 
ATOM      8  H7  MT4 d   1      62.590  15.523 117.559  0.00  0.00     0.087 H 
ATOM      9  H19 MT4 d   1      63.288  12.856 113.408  0.00  0.00     0.089 H 
ATOM     10  H20 MT4 d   1      63.348  16.611 115.466  0.00  0.00     0.085 H 
ENDROOT
BRANCH   2  11
ATOM     11  C18 MT4 d   1      63.797  15.447 113.096  0.00  0.00     0.059 A 
ATOM     12  C21 MT4 d   1      64.509  14.677 112.170  0.00  0.00     0.010 A 
ATOM     13  N3  MT4 d   1      65.008  15.189 111.051  0.00  0.00    -0.200 N 
ATOM     14  H8  MT4 d   1      64.660  13.618 112.375  0.00  0.00     0.113 H 
ATOM     15  C20 MT4 d   1      64.891  16.495 110.742  0.00  0.00     0.687 A 
ATOM     16  H1  MT4 d   1      65.502  14.566 110.396  0.00  0.00     0.183 HD
ATOM     17  N2  MT4 d   1      64.208  17.348 111.636  0.00  0.00    -0.151 N 
ATOM     18  C19 MT4 d   1      63.663  16.816 112.826  0.00  0.00     0.274 A 
ATOM     19  O4  MT4 d   1      63.070  17.570 113.594  0.00  0.00    -0.267 OA
BRANCH  15  20
ATOM     20  N4  MT4 d   1      65.400  17.008 109.604  0.00  0.00    -0.191 N 
ATOM     21  H21 MT4 d   1      65.059  17.937 109.319  0.00  0.00     0.184 HD
BRANCH  20  22
ATOM     22  C23 MT4 d   1      66.307  16.425 108.808  0.00  0.00     0.049 A 
ATOM     23  C24 MT4 d   1      66.066  16.351 107.432  0.00  0.00    -0.054 A 
ATOM     24  C25 MT4 d   1      67.002  15.751 106.588  0.00  0.00    -0.043 A 
ATOM     25  H12 MT4 d   1      65.151  16.760 107.020  0.00  0.00     0.087 H 
ATOM     26  C26 MT4 d   1      68.185  15.236 107.125  0.00  0.00     0.116 A 
ATOM     27  H22 MT4 d   1      66.812  15.685 105.523  0.00  0.00     0.088 H 
ATOM     28  F1  MT4 d   1      69.100  14.658 106.325  0.00  0.00    -0.206 F 
ATOM     29  C27 MT4 d   1      68.435  15.315 108.492  0.00  0.00    -0.043 A 
ATOM     30  C28 MT4 d   1      67.497  15.906 109.329  0.00  0.00    -0.054 A 
ATOM     31  H23 MT4 d   1      69.357  14.918 108.901  0.00  0.00     0.088 H 
ATOM     32  H13 MT4 d   1      67.689  15.966 110.394  0.00  0.00     0.087 H 
ENDBRANCH  20  22
ENDBRANCH  15  20
BRANCH  17  33
ATOM     33  C22 MT4 d   1      64.048  18.797 111.331  0.00  0.00     0.006 C 
ATOM     34  H9  MT4 d   1      64.534  19.025 110.371  0.00  0.00     0.058 H 
ATOM     35  H10 MT4 d   1      64.515  19.393 112.129  0.00  0.00     0.058 H 
ATOM     36  H11 MT4 d   1      62.978  19.043 111.268  0.00  0.00     0.058 H 
ENDBRANCH  17  33
ENDBRANCH   2  11
BRANCH   4  37
ATOM     37  O3  MT4 d   1      62.132  12.855 117.758  0.00  0.00    -0.307 OA
BRANCH  37  38
ATOM     38  C5  MT4 d   1      62.965  12.754 118.851  0.00  0.00     0.090 A 
ATOM     39  C4  MT4 d   1      64.320  13.094 118.809  0.00  0.00    -0.032 A 
ATOM     40  C3  MT4 d   1      65.103  12.973 119.960  0.00  0.00     0.005 A 
ATOM     41  H2  MT4 d   1      64.762  13.451 117.886  0.00  0.00     0.090 H 
ATOM     42  N1  MT4 d   1      64.582  12.524 121.095  0.00  0.00    -0.260 NA
ATOM     43  H18 MT4 d   1      66.150  13.250 119.925  0.00  0.00     0.114 H 
ATOM     44  C2  MT4 d   1      63.286  12.174 121.185  0.00  0.00     0.072 A 
ATOM     45  C8  MT4 d   1      62.775  11.709 122.398  0.00  0.00    -0.019 A 
ATOM     46  C1  MT4 d   1      62.448  12.285 120.066  0.00  0.00     0.029 A 
ATOM     47  C7  MT4 d   1      61.423  11.357 122.503  0.00  0.00     0.103 A 
ATOM     48  H3  MT4 d   1      63.426  11.620 123.260  0.00  0.00     0.091 H 
ATOM     49  C6  MT4 d   1      60.595  11.461 121.388  0.00  0.00     0.102 A 
ATOM     50  C9  MT4 d   1      61.105  11.924 120.172  0.00  0.00    -0.033 A 
ATOM     51  H17 MT4 d   1      60.455  12.003 119.308  0.00  0.00     0.089 H 
BRANCH  47  52
ATOM     52  O2  MT4 d   1      60.856  10.885 123.664  0.00  0.00    -0.353 OA
BRANCH  52  53
ATOM     53  C10 MT4 d   1      61.658  10.872 124.854  0.00  0.00     0.010 C 
ATOM     54  H4  MT4 d   1      61.067  10.470 125.690  0.00  0.00     0.066 H 
ATOM     55  H5  MT4 d   1      61.979  11.897 125.091  0.00  0.00     0.066 H 
ATOM     56  H6  MT4 d   1      62.543  10.239 124.693  0.00  0.00     0.066 H 
ENDBRANCH  52  53
ENDBRANCH  47  52
BRANCH  49  57
ATOM     57  O1  MT4 d   1      59.283  11.106 121.527  0.00  0.00    -0.353 OA
BRANCH  57  58
ATOM     58  C11 MT4 d   1      58.519  11.188 120.322  0.00  0.00     0.010 C 
ATOM     59  H14 MT4 d   1      57.481  10.886 120.525  0.00  0.00     0.066 H 
ATOM     60  H15 MT4 d   1      58.954  10.518 119.566  0.00  0.00     0.066 H 
ATOM     61  H16 MT4 d   1      58.534  12.222 119.948  0.00  0.00     0.066 H 
ENDBRANCH  57  58
ENDBRANCH  49  57
ENDBRANCH  37  38
ENDBRANCH   4  37
TORSDOF 10
