REMARK  5 active torsions:
REMARK  status: ('A' for Active; 'I' for Inactive)
REMARK    1  A    between atoms: C11_1  and  C10_4 
REMARK    2  A    between atoms: C10_4  and  C9_5 
REMARK    3  A    between atoms: C9_5  and  C8_6 
REMARK    4  A    between atoms: C8_6  and  C7_7 
REMARK    5  A    between atoms: C7_7  and  C2_8 
ROOT
ATOM      1  C2  BTN d   1      13.207   3.781  18.184  0.00  0.00     0.012 C 
ATOM      2  S1  BTN d   1      14.456   3.377  19.216  0.00  0.00    -0.160 SA
ATOM      3  C6  BTN d   1      13.471   3.736  20.692  0.00  0.00    -0.002 C 
ATOM      4  C5  BTN d   1      11.991   3.708  20.369  0.00  0.00     0.041 A 
ATOM      5  N1  BTN d   1      11.385   2.458  20.783  0.00  0.00    -0.347 N 
ATOM      6  C3  BTN d   1      10.995   1.737  19.739  0.00  0.00     0.248 A 
ATOM      7  O3  BTN d   1      10.404   0.458  19.809  0.00  0.00    -0.152 OA
ATOM      8  N2  BTN d   1      11.241   2.391  18.612  0.00  0.00    -0.347 N 
ATOM      9  C4  BTN d   1      11.847   3.682  18.861  0.00  0.00     0.045 A 
ATOM     10  H9  BTN d   1      13.351   4.815  17.838  0.00  0.00     0.059 H 
ATOM     11  H10 BTN d   1      13.739   4.733  21.071  0.00  0.00     0.052 H 
ATOM     12  H11 BTN d   1      13.687   2.981  21.462  0.00  0.00     0.052 H 
ATOM     13  H12 BTN d   1      11.480   4.572  20.820  0.00  0.00     0.076 H 
ATOM     14  H13 BTN d   1      11.271   2.166  21.764  0.00  0.00     0.163 HD
ATOM     15  H14 BTN d   1      11.033   2.036  17.701  0.00  0.00     0.163 HD
ATOM     16  H15 BTN d   1      11.199   4.499  18.510  0.00  0.00     0.077 H 
ENDROOT
BRANCH   1  17
ATOM     17  C7  BTN d   1      13.256   2.839  16.991  0.00  0.00    -0.051 C 
ATOM     18  H7  BTN d   1      13.944   2.013  17.223  0.00  0.00     0.034 H 
ATOM     19  H8  BTN d   1      12.247   2.438  16.817  0.00  0.00     0.034 H 
BRANCH  17  20
ATOM     20  C8  BTN d   1      13.733   3.529  15.718  0.00  0.00    -0.063 C 
ATOM     21  H5  BTN d   1      14.737   3.945  15.888  0.00  0.00     0.033 H 
ATOM     22  H6  BTN d   1      13.774   2.792  14.902  0.00  0.00     0.033 H 
BRANCH  20  23
ATOM     23  C9  BTN d   1      12.787   4.655  15.325  0.00  0.00    -0.056 C 
ATOM     24  H3  BTN d   1      12.004   4.757  16.091  0.00  0.00     0.033 H 
ATOM     25  H4  BTN d   1      13.352   5.596  15.251  0.00  0.00     0.033 H 
BRANCH  23  26
ATOM     26  C10 BTN d   1      12.140   4.349  13.981  0.00  0.00     0.016 C 
ATOM     27  H1  BTN d   1      11.664   3.358  14.029  0.00  0.00     0.049 H 
ATOM     28  H2  BTN d   1      11.378   5.112  13.767  0.00  0.00     0.049 H 
BRANCH  26  29
ATOM     29  C11 BTN d   1      13.166   4.351  12.871  0.00  0.00     0.172 C 
ATOM     30  O11 BTN d   1      13.080   5.189  11.947  0.00  0.00    -0.648 OA
ATOM     31  O12 BTN d   1      14.104   3.522  12.848  0.00  0.00    -0.648 OA
ENDBRANCH  26  29
ENDBRANCH  23  26
ENDBRANCH  20  23
ENDBRANCH  17  20
ENDBRANCH   1  17
TORSDOF 5
