REMARK  10 active torsions:
REMARK  status: ('A' for Active; 'I' for Inactive)
REMARK    1  A    between atoms: O3B_8  and  PG_1 
REMARK    2  A    between atoms: PB_5  and  O3B_8 
REMARK    3  A    between atoms: O3A_12  and  PB_5 
REMARK    4  A    between atoms: PA_9  and  O3A_12 
REMARK    5  A    between atoms: PA_9  and  O5'_13 
REMARK    6  A    between atoms: O5'_13  and  C5'_14 
REMARK    7  A    between atoms: C5'_14  and  C4'_15 
REMARK    8  A    between atoms: C3'_17  and  O3'_18 
REMARK    9  A    between atoms: C2'_19  and  O2'_20 
REMARK   10  A    between atoms: C1'_21  and  N9_22 
ROOT
ATOM      1  C4' ATP d   1     -14.145   0.358  10.645  0.00  0.00     0.089 C 
ATOM      2  O4' ATP d   1     -15.176  -0.480  11.168  0.00  0.00    -0.353 OA
ATOM      3  C3' ATP d   1     -14.522   1.791  10.984  0.00  0.00     0.091 C 
ATOM      4  C2' ATP d   1     -15.997   1.749  11.331  0.00  0.00     0.105 C 
ATOM      5  C1' ATP d   1     -16.377   0.276  11.321  0.00  0.00     0.139 C 
ATOM      6  H3  ATP d   1     -14.101   0.248   9.551  0.00  0.00     0.090 H 
ATOM      7  H4  ATP d   1     -13.933   2.158  11.837  0.00  0.00     0.091 H 
ATOM      8  H6  ATP d   1     -16.176   2.190  12.323  0.00  0.00     0.093 H 
ATOM      9  H8  ATP d   1     -17.061   0.068  10.485  0.00  0.00     0.122 H 
ENDROOT
BRANCH   1  10
ATOM     10  C5' ATP d   1     -12.796  -0.044  11.222  0.00  0.00     0.058 C 
ATOM     11  H1  ATP d   1     -12.066   0.767  11.080  0.00  0.00     0.079 H 
ATOM     12  H2  ATP d   1     -12.894  -0.266  12.295  0.00  0.00     0.079 H 
BRANCH  10  13
ATOM     13  O5' ATP d   1     -12.379  -1.207  10.517  0.00  0.00    -0.287 OA
BRANCH  13  14
ATOM     14  PA  ATP d   1     -10.988  -1.190   9.713  0.00  0.00     0.417 P 
ATOM     15  O1A ATP d   1     -10.788   0.211   9.188  0.00  0.00    -0.624 OA
ATOM     16  O2A ATP d   1      -9.935  -1.830  10.583  0.00  0.00    -0.624 OA
BRANCH  14  17
ATOM     17  O3A ATP d   1     -11.323  -2.144   8.461  0.00  0.00    -0.180 OA
BRANCH  17  18
ATOM     18  PB  ATP d   1     -10.243  -2.475   7.314  0.00  0.00     0.428 P 
ATOM     19  O1B ATP d   1      -9.184  -1.397   7.323  0.00  0.00    -0.624 OA
ATOM     20  O2B ATP d   1      -9.843  -3.926   7.433  0.00  0.00    -0.624 OA
BRANCH  18  21
ATOM     21  O3B ATP d   1     -11.138  -2.295   5.987  0.00  0.00    -0.173 OA
BRANCH  21  22
ATOM     22  PG  ATP d   1     -11.632  -3.567   5.134  0.00  0.00     0.431 P 
ATOM     23  O1G ATP d   1     -12.608  -4.254   6.058  0.00  0.00    -0.616 OA
ATOM     24  O2G ATP d   1     -10.368  -4.347   4.864  0.00  0.00    -0.616 OA
ATOM     25  O3G ATP d   1     -12.267  -2.958   3.908  0.00  0.00    -0.616 OA
ENDBRANCH  21  22
ENDBRANCH  18  21
ENDBRANCH  17  18
ENDBRANCH  14  17
ENDBRANCH  13  14
ENDBRANCH  10  13
ENDBRANCH   1  10
BRANCH   3  26
ATOM     26  O3' ATP d   1     -14.304   2.632   9.848  0.00  0.00    -0.390 OA
ATOM     27  H5  ATP d   1     -14.839   2.329   9.124  0.00  0.00     0.210 HD
ENDBRANCH   3  26
BRANCH   5  28
ATOM     28  N9  ATP d   1     -17.035  -0.072  12.601  0.00  0.00    -0.294 N 
ATOM     29  C8  ATP d   1     -17.027   0.680  13.718  0.00  0.00     0.071 A 
ATOM     30  N7  ATP d   1     -17.730   0.083  14.712  0.00  0.00    -0.236 NA
ATOM     31  H9  ATP d   1     -16.523   1.641  13.811  0.00  0.00     0.144 H 
ATOM     32  C5  ATP d   1     -18.207  -1.077  14.225  0.00  0.00     0.149 A 
ATOM     33  C6  ATP d   1     -19.028  -2.194  14.744  0.00  0.00     0.155 A 
ATOM     34  C4  ATP d   1     -17.752  -1.172  12.830  0.00  0.00     0.167 A 
ATOM     35  N6  ATP d   1     -19.493  -2.189  16.016  0.00  0.00    -0.382 N 
ATOM     36  N1  ATP d   1     -19.298  -3.217  13.904  0.00  0.00    -0.222 NA
ATOM     37  H10 ATP d   1     -20.063  -2.975  16.359  0.00  0.00     0.157 HD
ATOM     38  H11 ATP d   1     -19.277  -1.399  16.640  0.00  0.00     0.157 HD
ATOM     39  C2  ATP d   1     -18.843  -3.237  12.638  0.00  0.00     0.091 A 
ATOM     40  N3  ATP d   1     -18.093  -2.260  12.101  0.00  0.00    -0.222 NA
ATOM     41  H12 ATP d   1     -19.096  -4.089  12.017  0.00  0.00     0.146 H 
ENDBRANCH   5  28
BRANCH   4  42
ATOM     42  O2' ATP d   1     -16.752   2.455  10.344  0.00  0.00    -0.388 OA
ATOM     43  H7  ATP d   1     -16.463   3.360  10.313  0.00  0.00     0.210 HD
ENDBRANCH   4  42
TORSDOF 10
