REMARK  9 active torsions:
REMARK  status: ('A' for Active; 'I' for Inactive)
REMARK    1  A    between atoms: C5_4  and  C2_20 
REMARK    2  A    between atoms: N4_16  and  C10_8 
REMARK    3  A    between atoms: C16_24  and  C17_11 
REMARK    4  A    between atoms: C1_17  and  N4_16 
REMARK    5  A    between atoms: O1_22  and  C9_21 
REMARK    6  A    between atoms: C11_23  and  O1_22 
REMARK    7  A    between atoms: N5_27  and  C14_26 
REMARK       I    between atoms: C18_28  and  N5_27 
REMARK       I    between atoms: N6_30  and  C18_28 
REMARK    8  A    between atoms: N6_30  and  C19_31 
REMARK    9  A    between atoms: C23_32  and  C25_33 
ROOT
ATOM      1  C13 AK8 d   1      65.478  23.375   2.524  0.00  0.00    -0.054 A 
ATOM      2  C15 AK8 d   1      63.462  23.061   3.803  0.00  0.00    -0.049 A 
ATOM      3  C11 AK8 d   1      64.487  25.248   3.709  0.00  0.00     0.084 A 
ATOM      4  C16 AK8 d   1      63.460  24.410   4.164  0.00  0.00    -0.026 A 
ATOM      5  C12 AK8 d   1      65.486  24.724   2.885  0.00  0.00    -0.048 A 
ATOM      6  C14 AK8 d   1      64.466  22.531   2.985  0.00  0.00     0.037 A 
ATOM      7  H8  AK8 d   1      66.260  22.982   1.884  0.00  0.00     0.087 H 
ATOM      8  H9  AK8 d   1      62.671  22.413   4.163  0.00  0.00     0.087 H 
ATOM      9  H19 AK8 d   1      66.276  25.372   2.522  0.00  0.00     0.087 H 
ENDROOT
BRANCH   3  10
ATOM     10  O1  AK8 d   1      64.527  26.581   4.025  0.00  0.00    -0.291 OA
BRANCH  10  11
ATOM     11  C9  AK8 d   1      65.074  26.953   5.223  0.00  0.00     0.182 A 
ATOM     12  N3  AK8 d   1      65.414  26.024   6.132  0.00  0.00    -0.236 NA
ATOM     13  C8  AK8 d   1      65.940  26.353   7.306  0.00  0.00     0.005 A 
ATOM     14  C7  AK8 d   1      66.157  27.686   7.646  0.00  0.00    -0.065 A 
ATOM     15  H4  AK8 d   1      66.204  25.573   8.010  0.00  0.00     0.114 H 
ATOM     16  C6  AK8 d   1      65.818  28.677   6.732  0.00  0.00    -0.065 A 
ATOM     17  H3  AK8 d   1      66.583  27.947   8.608  0.00  0.00     0.085 H 
ATOM     18  C5  AK8 d   1      65.266  28.312   5.506  0.00  0.00     0.047 A 
ATOM     19  H2  AK8 d   1      65.981  29.722   6.970  0.00  0.00     0.085 H 
BRANCH  18  20
ATOM     20  C2  AK8 d   1      64.930  29.324   4.603  0.00  0.00     0.091 A 
ATOM     21  N1  AK8 d   1      64.440  30.479   5.073  0.00  0.00    -0.062 NA
ATOM     22  C1  AK8 d   1      64.108  31.482   4.241  0.00  0.00     0.722 A 
ATOM     23  N2  AK8 d   1      64.275  31.347   2.912  0.00  0.00    -0.075 NA
ATOM     24  C4  AK8 d   1      64.766  30.238   2.383  0.00  0.00     0.023 A 
ATOM     25  C3  AK8 d   1      65.112  29.185   3.222  0.00  0.00    -0.036 A 
ATOM     26  H1  AK8 d   1      64.897  30.152   1.310  0.00  0.00     0.115 H 
ATOM     27  H18 AK8 d   1      65.518  28.267   2.812  0.00  0.00     0.089 H 
BRANCH  22  28
ATOM     28  N4  AK8 d   1      63.613  32.624   4.733  0.00  0.00    -0.227 N 
ATOM     29  H17 AK8 d   1      63.213  33.319   4.086  0.00  0.00     0.177 HD
BRANCH  28  30
ATOM     30  C10 AK8 d   1      63.627  32.912   6.186  0.00  0.00    -0.005 C 
ATOM     31  H5  AK8 d   1      63.174  33.898   6.369  0.00  0.00     0.057 H 
ATOM     32  H6  AK8 d   1      64.665  32.912   6.550  0.00  0.00     0.057 H 
ATOM     33  H7  AK8 d   1      63.052  32.140   6.718  0.00  0.00     0.057 H 
ENDBRANCH  28  30
ENDBRANCH  22  28
ENDBRANCH  18  20
ENDBRANCH  10  11
ENDBRANCH   3  10
BRANCH   4  34
ATOM     34  C17 AK8 d   1      62.333  24.937   5.070  0.00  0.00    -0.049 C 
ATOM     35  H10 AK8 d   1      61.639  24.117   5.306  0.00  0.00     0.033 H 
ATOM     36  H11 AK8 d   1      61.789  25.739   4.550  0.00  0.00     0.033 H 
ATOM     37  H12 AK8 d   1      62.765  25.331   6.002  0.00  0.00     0.033 H 
ENDBRANCH   4  34
BRANCH   6  38
ATOM     38  N5  AK8 d   1      64.425  21.221   2.659  0.00  0.00    -0.309 N 
ATOM     39  C18 AK8 d   1      65.366  20.339   3.027  0.00  0.00     0.325 C 
ATOM     40  O2  AK8 d   1      66.351  20.687   3.684  0.00  0.00    -0.247 OA
ATOM     41  N6  AK8 d   1      65.164  19.072   2.618  0.00  0.00    -0.309 N 
ATOM     42  H21 AK8 d   1      64.341  18.915   2.072  0.00  0.00     0.170 HD
ATOM     43  H20 AK8 d   1      63.653  20.892   2.115  0.00  0.00     0.170 HD
BRANCH  41  44
ATOM     44  C19 AK8 d   1      65.934  17.985   2.852  0.00  0.00     0.037 A 
ATOM     45  C20 AK8 d   1      67.123  18.046   3.580  0.00  0.00    -0.057 A 
ATOM     46  C21 AK8 d   1      67.872  16.893   3.807  0.00  0.00    -0.080 A 
ATOM     47  H13 AK8 d   1      67.466  18.997   3.972  0.00  0.00     0.086 H 
ATOM     48  C22 AK8 d   1      67.439  15.660   3.319  0.00  0.00    -0.068 A 
ATOM     49  H14 AK8 d   1      68.798  16.955   4.367  0.00  0.00     0.083 H 
ATOM     50  C23 AK8 d   1      66.248  15.570   2.597  0.00  0.00     0.050 A 
ATOM     51  H15 AK8 d   1      68.029  14.769   3.501  0.00  0.00     0.084 H 
ATOM     52  C24 AK8 d   1      65.502  16.738   2.373  0.00  0.00    -0.043 A 
ATOM     53  H16 AK8 d   1      64.573  16.676   1.818  0.00  0.00     0.088 H 
BRANCH  50  54
ATOM     54  C25 AK8 d   1      65.787  14.190   2.058  0.00  0.00     0.417 C 
ATOM     55  F2  AK8 d   1      64.460  14.108   1.976  0.00  0.00    -0.166 F 
ATOM     56  F3  AK8 d   1      66.280  13.988   0.830  0.00  0.00    -0.166 F 
ATOM     57  F1  AK8 d   1      66.228  13.230   2.883  0.00  0.00    -0.166 F 
ENDBRANCH  50  54
ENDBRANCH  41  44
ENDBRANCH   6  38
TORSDOF 9
