REMARK WARNING: 32 MAX_TORS EXCEEDED!!!
REMARK  39 active torsions:
REMARK  status: ('A' for Active; 'I' for Inactive)
REMARK    1  A    between atoms: C_1  and  CH3_3 
REMARK       I    between atoms: C_1  and  N_4 
REMARK    2  A    between atoms: N_4  and  CA_5 
REMARK    3  A    between atoms: CA_5  and  C_6 
REMARK       I    between atoms: C_6  and  N_8 
REMARK    4  A    between atoms: N_8  and  CA_9 
REMARK    5  A    between atoms: CA_9  and  C_10 
REMARK    6  A    between atoms: CA_9  and  CB_12 
REMARK       I    between atoms: C_10  and  N_14 
REMARK    7  A    between atoms: CB_12  and  OG_13 
REMARK    8  A    between atoms: N_14  and  CA_15 
REMARK    9  A    between atoms: CA_15  and  C_16 
REMARK   10  A    between atoms: CA_15  and  CB_18 
REMARK       I    between atoms: C_16  and  N_19 
REMARK   11  A    between atoms: N_19  and  CA_20 
REMARK   12  A    between atoms: CA_20  and  C_21 
REMARK   13  A    between atoms: CA_20  and  CB_23 
REMARK       I    between atoms: C_21  and  N_30 
REMARK   14  A    between atoms: CB_23  and  CG_24 
REMARK   15  A    between atoms: CG_24  and  CD_25 
REMARK   16  A    between atoms: CD_25  and  NE_26 
REMARK       I    between atoms: NE_26  and  CZ_27 
REMARK       I    between atoms: CZ_27  and  NH1_28 
REMARK   17  A    between atoms: N_30  and  CA_31 
REMARK   18  A    between atoms: CA_31  and  C_32 
REMARK   19  A    between atoms: CA_31  and  CB_34 
REMARK       I    between atoms: C_32  and  N_35 
REMARK   20  A    between atoms: N_35  and  CA_36 
REMARK   21  A    between atoms: CA_36  and  C_37 
REMARK   22  A    between atoms: CA_36  and  CB_39 
REMARK       I    between atoms: C_37  and  N_44 
REMARK   23  A    between atoms: CB_39  and  CG_40 
REMARK   24  A    between atoms: CG_40  and  CD_41 
REMARK   25  A    between atoms: N_44  and  CA_45 
REMARK   26  A    between atoms: CA_45  and  C_46 
REMARK   27  A    between atoms: CA_45  and  CB_48 
REMARK       I    between atoms: C_46  and  N_51 
REMARK   28  A    between atoms: CB_48  and  CG1_49 
REMARK   29  A    between atoms: CB_48  and  CG2_50 
REMARK   30  A    between atoms: N_51  and  CA_52 
REMARK   31  A    between atoms: CA_52  and  C_53 
REMARK   32  A    between atoms: CA_52  and  CB_55 
REMARK       I    between atoms: C_53  and  N_61 
REMARK   33  A    between atoms: CB_55  and  CG_56 
REMARK   34  A    between atoms: N_61  and  CA_62 
REMARK   35  A    between atoms: CA_62  and  C_63 
REMARK   36  A    between atoms: CA_62  and  CB_65 
REMARK   37  A    between atoms: CB_65  and  CG_66 
REMARK   38  A    between atoms: CG_66  and  CD1_67 
REMARK   39  A    between atoms: CG_66  and  CD2_68 
ROOT
ATOM      1  C   ALA d   1     -16.354 -29.840  -9.792  0.00  0.00     0.240 C 
ATOM      2  O   ALA d   1     -16.838 -30.614 -10.616  0.00  0.00    -0.271 OA
ATOM      3  N   GLU d   1     -15.999 -30.216  -8.568  0.00  0.00    -0.346 N 
ATOM      4  H35 GLU d   1     -15.615 -29.538  -7.941  0.00  0.00     0.163 HD
ENDROOT
BRANCH   1   5
ATOM      5  CA  ALA d   1     -16.135 -28.369 -10.138  0.00  0.00     0.086 C 
ATOM      6  H31 ALA d   1     -17.118 -27.890 -10.256  0.00  0.00     0.086 H 
BRANCH   5   7
ATOM      7  N   ALA d   1     -15.410 -27.681  -9.073  0.00  0.00    -0.346 N 
ATOM      8  C   ARG d   1     -16.056 -27.129  -8.052  0.00  0.00     0.241 C 
ATOM      9  O   ARG d   1     -17.277 -27.170  -7.945  0.00  0.00    -0.271 OA
ATOM     10  H30 ALA d   1     -14.412 -27.625  -9.113  0.00  0.00     0.163 HD
BRANCH   8  11
ATOM     11  CA  ARG d   1     -15.216 -26.423  -6.994  0.00  0.00     0.089 C 
ATOM     12  H18 ARG d   1     -15.712 -26.585  -6.026  0.00  0.00     0.087 H 
BRANCH  11  13
ATOM     13  N   ARG d   1     -13.851 -26.923  -6.855  0.00  0.00    -0.346 N 
ATOM     14  C   ALA d   1     -13.652 -28.180  -6.466  0.00  0.00     0.240 C 
ATOM     15  O   ALA d   1     -14.585 -28.944  -6.246  0.00  0.00    -0.271 OA
ATOM     16  H17 ARG d   1     -13.073 -26.326  -7.050  0.00  0.00     0.163 HD
BRANCH  14  17
ATOM     17  CA  ALA d   1     -12.208 -28.662  -6.303  0.00  0.00     0.086 C 
ATOM     18  H13 ALA d   1     -12.247 -29.757  -6.210  0.00  0.00     0.086 H 
BRANCH  17  19
ATOM     19  N   ALA d   1     -11.325 -28.364  -7.421  0.00  0.00    -0.346 N 
ATOM     20  C   SER d   1     -11.702 -28.566  -8.679  0.00  0.00     0.243 C 
ATOM     21  O   SER d   1     -12.815 -28.998  -8.984  0.00  0.00    -0.271 OA
ATOM     22  H12 ALA d   1     -10.412 -27.998  -7.238  0.00  0.00     0.163 HD
BRANCH  20  23
ATOM     23  CA  SER d   1     -10.679 -28.235  -9.760  0.00  0.00     0.109 C 
ATOM     24  H8  SER d   1      -9.666 -28.450  -9.389  0.00  0.00     0.090 H 
BRANCH  23  25
ATOM     25  N   SER d   1     -10.966 -29.082 -10.908  0.00  0.00    -0.344 N 
ATOM     26  C   GLY d   1     -10.007 -29.486 -11.732  0.00  0.00     0.236 C 
ATOM     27  O   GLY d   1      -8.833 -29.150 -11.606  0.00  0.00    -0.272 OA
ATOM     28  H7  SER d   1     -11.909 -29.367 -11.080  0.00  0.00     0.163 HD
BRANCH  26  29
ATOM     29  CA  GLY d   1     -10.437 -30.392 -12.865  0.00  0.00     0.069 C 
ATOM     30  H5  GLY d   1     -10.503 -29.797 -13.788  0.00  0.00     0.078 H 
ATOM     31  H6  GLY d   1      -9.682 -31.182 -12.992  0.00  0.00     0.078 H 
BRANCH  29  32
ATOM     32  N   GLY d   1     -11.729 -31.015 -12.617  0.00  0.00    -0.353 N 
ATOM     33  C   ACE d   1     -12.711 -30.905 -13.506  0.00  0.00     0.213 C 
ATOM     34  O   ACE d   1     -12.588 -30.286 -14.561  0.00  0.00    -0.274 OA
ATOM     35  H4  GLY d   1     -11.879 -31.529 -11.772  0.00  0.00     0.162 HD
BRANCH  33  36
ATOM     36  CH3 ACE d   1     -14.005 -31.594 -13.162  0.00  0.00    -0.003 C 
ATOM     37  H1  ACE d   1     -13.909 -32.087 -12.183  0.00  0.00     0.040 H 
ATOM     38  H2  ACE d   1     -14.235 -32.347 -13.930  0.00  0.00     0.040 H 
ATOM     39  H3  ACE d   1     -14.816 -30.852 -13.121  0.00  0.00     0.040 H 
ENDBRANCH  33  36
ENDBRANCH  29  32
ENDBRANCH  26  29
ENDBRANCH  23  25
BRANCH  23  40
ATOM     40  CB  SER d   1     -10.768 -26.753 -10.136  0.00  0.00     0.044 C 
ATOM     41  H9  SER d   1     -10.155 -26.574 -11.032  0.00  0.00     0.077 H 
ATOM     42  H10 SER d   1     -10.383 -26.149  -9.302  0.00  0.00     0.077 H 
BRANCH  40  43
ATOM     43  OG  SER d   1     -12.101 -26.366 -10.406  0.00  0.00    -0.398 OA
ATOM     44  H11 SER d   1     -12.122 -25.444 -10.635  0.00  0.00     0.209 HD
ENDBRANCH  40  43
ENDBRANCH  23  40
ENDBRANCH  20  23
ENDBRANCH  17  19
BRANCH  17  45
ATOM     45  CB  ALA d   1     -11.614 -28.102  -5.010  0.00  0.00    -0.049 C 
ATOM     46  H14 ALA d   1     -12.285 -28.330  -4.169  0.00  0.00     0.030 H 
ATOM     47  H15 ALA d   1     -11.498 -27.012  -5.101  0.00  0.00     0.030 H 
ATOM     48  H16 ALA d   1     -10.631 -28.561  -4.829  0.00  0.00     0.030 H 
ENDBRANCH  17  45
ENDBRANCH  14  17
ENDBRANCH  11  13
BRANCH  11  49
ATOM     49  CB  ARG d   1     -15.222 -24.921  -7.280  0.00  0.00    -0.036 C 
ATOM     50  H19 ARG d   1     -14.835 -24.753  -8.296  0.00  0.00     0.036 H 
ATOM     51  H20 ARG d   1     -14.569 -24.419  -6.551  0.00  0.00     0.036 H 
BRANCH  49  52
ATOM     52  CG  ARG d   1     -16.621 -24.319  -7.182  0.00  0.00    -0.048 C 
ATOM     53  H21 ARG d   1     -17.047 -24.561  -6.197  0.00  0.00     0.035 H 
ATOM     54  H22 ARG d   1     -17.253 -24.752  -7.971  0.00  0.00     0.035 H 
BRANCH  52  55
ATOM     55  CD  ARG d   1     -16.587 -22.819  -7.348  0.00  0.00     0.009 C 
ATOM     56  H23 ARG d   1     -17.611 -22.429  -7.254  0.00  0.00     0.064 H 
ATOM     57  H24 ARG d   1     -16.195 -22.582  -8.348  0.00  0.00     0.064 H 
BRANCH  55  58
ATOM     58  NE  ARG d   1     -15.744 -22.170  -6.347  0.00  0.00    -0.227 N 
ATOM     59  CZ  ARG d   1     -16.164 -21.745  -5.160  0.00  0.00     0.665 C 
ATOM     60  NH1 ARG d   1     -17.432 -21.900  -4.798  0.00  0.00    -0.235 N 
ATOM     61  NH2 ARG d   1     -15.318 -21.130  -4.342  0.00  0.00    -0.235 N 
ATOM     62  H26 ARG d   1     -17.749 -21.567  -3.876  0.00  0.00     0.174 HD
ATOM     63  H27 ARG d   1     -18.099 -22.353  -5.439  0.00  0.00     0.174 HD
ATOM     64  H28 ARG d   1     -14.333 -21.007  -4.617  0.00  0.00     0.174 HD
ATOM     65  H29 ARG d   1     -15.647 -20.776  -3.432  0.00  0.00     0.174 HD
ATOM     66  H25 ARG d   1     -14.750 -22.032  -6.579  0.00  0.00     0.177 HD
ENDBRANCH  55  58
ENDBRANCH  52  55
ENDBRANCH  49  52
ENDBRANCH  11  49
ENDBRANCH   8  11
ENDBRANCH   5   7
BRANCH   5  67
ATOM     67  CB  ALA d   1     -15.371 -28.245 -11.454  0.00  0.00    -0.049 C 
ATOM     68  H32 ALA d   1     -15.924 -28.766 -12.249  0.00  0.00     0.030 H 
ATOM     69  H33 ALA d   1     -14.375 -28.698 -11.344  0.00  0.00     0.030 H 
ATOM     70  H34 ALA d   1     -15.264 -27.182 -11.717  0.00  0.00     0.030 H 
ENDBRANCH   5  67
ENDBRANCH   1   5
BRANCH   3  71
ATOM     71  CA  GLU d   1     -16.156 -31.598  -8.115  0.00  0.00     0.090 C 
ATOM     72  H36 GLU d   1     -16.558 -32.201  -8.943  0.00  0.00     0.087 H 
BRANCH  71  73
ATOM     73  C   GLU d   1     -17.116 -31.668  -6.933  0.00  0.00     0.241 C 
ATOM     74  O   GLU d   1     -17.377 -30.663  -6.269  0.00  0.00    -0.271 OA
ATOM     75  N   VAL d   1     -17.644 -32.859  -6.671  0.00  0.00    -0.346 N 
ATOM     76  H41 VAL d   1     -17.416 -33.638  -7.255  0.00  0.00     0.163 HD
BRANCH  75  77
ATOM     77  CA  VAL d   1     -18.550 -33.046  -5.547  0.00  0.00     0.092 C 
ATOM     78  H42 VAL d   1     -19.041 -32.092  -5.306  0.00  0.00     0.088 H 
BRANCH  77  79
ATOM     79  C   VAL d   1     -17.715 -33.520  -4.364  0.00  0.00     0.241 C 
ATOM     80  O   VAL d   1     -16.814 -34.341  -4.528  0.00  0.00    -0.271 OA
ATOM     81  N   HIS d   1     -18.006 -32.992  -3.180  0.00  0.00    -0.346 N 
ATOM     82  H50 HIS d   1     -18.740 -32.316  -3.112  0.00  0.00     0.163 HD
BRANCH  81  83
ATOM     83  CA  HIS d   1     -17.277 -33.378  -1.977  0.00  0.00     0.094 C 
ATOM     84  H51 HIS d   1     -16.488 -34.088  -2.264  0.00  0.00     0.088 H 
BRANCH  83  85
ATOM     85  C   HIS d   1     -18.195 -34.054  -0.966  0.00  0.00     0.241 C 
ATOM     86  O   HIS d   1     -19.246 -33.522  -0.611  0.00  0.00    -0.271 OA
ATOM     87  N   LEU d   1     -17.786 -35.227  -0.501  0.00  0.00    -0.345 N 
ATOM     88  H57 LEU d   1     -16.921 -35.605  -0.831  0.00  0.00     0.163 HD
BRANCH  87  89
ATOM     89  CA  LEU d   1     -18.559 -35.982   0.476  0.00  0.00     0.096 C 
ATOM     90  H58 LEU d   1     -19.621 -35.722   0.357  0.00  0.00     0.089 H 
BRANCH  89  91
ATOM     91  C   LEU d   1     -18.131 -35.633   1.900  0.00  0.00     0.196 C 
ATOM     92  O   LEU d   1     -17.138 -36.240   2.383  0.00  0.00    -0.646 OA
ATOM     93  O59 LEU d   1     -18.751 -34.765   2.571  0.00  0.00    -0.646 OA
ENDBRANCH  89  91
BRANCH  89  94
ATOM     94  CB  LEU d   1     -18.392 -37.485   0.232  0.00  0.00    -0.034 C 
ATOM     95  H59 LEU d   1     -18.732 -38.006   1.139  0.00  0.00     0.037 H 
ATOM     96  H60 LEU d   1     -17.320 -37.677   0.079  0.00  0.00     0.037 H 
BRANCH  94  97
ATOM     97  CG  LEU d   1     -19.143 -38.096  -0.958  0.00  0.00    -0.059 C 
ATOM     98  H61 LEU d   1     -20.224 -37.963  -0.803  0.00  0.00     0.038 H 
BRANCH  97  99
ATOM     99  CD1 LEU d   1     -18.750 -37.408  -2.257  0.00  0.00    -0.073 C 
ATOM    100  H62 LEU d   1     -19.300 -37.863  -3.094  0.00  0.00     0.028 H 
ATOM    101  H63 LEU d   1     -17.669 -37.526  -2.422  0.00  0.00     0.028 H 
ATOM    102  H64 LEU d   1     -18.997 -36.338  -2.194  0.00  0.00     0.028 H 
ENDBRANCH  97  99
BRANCH  97 103
ATOM    103  CD2 LEU d   1     -18.834 -39.582  -1.028  0.00  0.00    -0.073 C 
ATOM    104  H65 LEU d   1     -19.124 -40.062  -0.082  0.00  0.00     0.028 H 
ATOM    105  H66 LEU d   1     -17.756 -39.725  -1.196  0.00  0.00     0.028 H 
ATOM    106  H67 LEU d   1     -19.398 -40.035  -1.857  0.00  0.00     0.028 H 
ENDBRANCH  97 103
ENDBRANCH  94  97
ENDBRANCH  89  94
ENDBRANCH  87  89
ENDBRANCH  83  85
BRANCH  83 107
ATOM    107  CB  HIS d   1     -16.625 -32.157  -1.323  0.00  0.00     0.004 C 
ATOM    108  H52 HIS d   1     -17.414 -31.430  -1.080  0.00  0.00     0.046 H 
ATOM    109  H53 HIS d   1     -15.924 -31.710  -2.043  0.00  0.00     0.046 H 
BRANCH 107 110
ATOM    110  CG  HIS d   1     -15.873 -32.477  -0.066  0.00  0.00     0.053 A 
ATOM    111  ND1 HIS d   1     -14.686 -33.176  -0.066  0.00  0.00    -0.247 NA
ATOM    112  CE1 HIS d   1     -14.266 -33.330   1.178  0.00  0.00     0.064 A 
ATOM    113  NE2 HIS d   1     -15.139 -32.755   1.985  0.00  0.00    -0.359 N 
ATOM    114  H55 HIS d   1     -13.356 -33.843   1.485  0.00  0.00     0.143 H 
ATOM    115  CD2 HIS d   1     -16.153 -32.213   1.233  0.00  0.00     0.002 A 
ATOM    116  H56 HIS d   1     -15.071 -32.719   3.012  0.00  0.00     0.166 HD
ATOM    117  H54 HIS d   1     -17.020 -31.672   1.610  0.00  0.00     0.114 H 
ENDBRANCH 107 110
ENDBRANCH  83 107
ENDBRANCH  81  83
ENDBRANCH  77  79
BRANCH  77 118
ATOM    118  CB  VAL d   1     -19.626 -34.109  -5.857  0.00  0.00    -0.033 C 
ATOM    119  H43 VAL d   1     -19.128 -35.052  -6.127  0.00  0.00     0.042 H 
BRANCH 118 120
ATOM    120  CG1 VAL d   1     -20.493 -34.347  -4.629  0.00  0.00    -0.071 C 
ATOM    121  H44 VAL d   1     -21.256 -35.105  -4.860  0.00  0.00     0.028 H 
ATOM    122  H45 VAL d   1     -20.986 -33.407  -4.340  0.00  0.00     0.028 H 
ATOM    123  H46 VAL d   1     -19.864 -34.701  -3.799  0.00  0.00     0.028 H 
ENDBRANCH 118 120
BRANCH 118 124
ATOM    124  CG2 VAL d   1     -20.481 -33.655  -7.026  0.00  0.00    -0.071 C 
ATOM    125  H47 VAL d   1     -19.841 -33.487  -7.905  0.00  0.00     0.028 H 
ATOM    126  H48 VAL d   1     -20.995 -32.719  -6.763  0.00  0.00     0.028 H 
ATOM    127  H49 VAL d   1     -21.227 -34.430  -7.258  0.00  0.00     0.028 H 
ENDBRANCH 118 124
ENDBRANCH  77 118
ENDBRANCH  75  77
ENDBRANCH  71  73
BRANCH  71 128
ATOM    128  CB  GLU d   1     -14.799 -32.169  -7.688  0.00  0.00    -0.029 C 
ATOM    129  H37 GLU d   1     -14.943 -33.224  -7.411  0.00  0.00     0.037 H 
ATOM    130  H38 GLU d   1     -14.450 -31.604  -6.811  0.00  0.00     0.037 H 
BRANCH 128 131
ATOM    131  CG  GLU d   1     -13.716 -32.102  -8.757  0.00  0.00     0.018 C 
ATOM    132  H39 GLU d   1     -12.739 -32.259  -8.277  0.00  0.00     0.049 H 
ATOM    133  H40 GLU d   1     -13.741 -31.104  -9.219  0.00  0.00     0.049 H 
BRANCH 131 134
ATOM    134  CD  GLU d   1     -13.892 -33.142  -9.844  0.00  0.00     0.172 C 
ATOM    135  OE1 GLU d   1     -14.932 -33.838  -9.848  0.00  0.00    -0.648 OA
ATOM    136  OE2 GLU d   1     -12.987 -33.264 -10.698  0.00  0.00    -0.648 OA
ENDBRANCH 131 134
ENDBRANCH 128 131
ENDBRANCH  71 128
ENDBRANCH   3  71
TORSDOF 39
