REMARK  12 active torsions:
REMARK  status: ('A' for Active; 'I' for Inactive)
REMARK    1  A    between atoms: C1_1  and  C2_2 
REMARK    2  A    between atoms: C1_1  and  C15_22 
REMARK    3  A    between atoms: C2_2  and  O2_4 
REMARK    4  A    between atoms: O2_4  and  C3_5 
REMARK    5  A    between atoms: C3_5  and  C4_6 
REMARK       I    between atoms: N1_10  and  C8_11 
REMARK    6  A    between atoms: C8_11  and  C9_12 
REMARK    7  A    between atoms: C9_12  and  N2_13 
REMARK       I    between atoms: N2_13  and  C10_14 
REMARK    8  A    between atoms: C10_14  and  O3_15 
REMARK    9  A    between atoms: O3_15  and  C11_16 
REMARK   10  A    between atoms: C11_16  and  C12_17 
REMARK   11  A    between atoms: C11_16  and  C13_18 
REMARK   12  A    between atoms: C11_16  and  C14_19 
ROOT
ATOM      1  C4  M18 d   1      17.727 -12.707  20.653  0.00  0.00     0.035 C 
ATOM      2  C5  M18 d   1      18.718 -11.707  20.008  0.00  0.00    -0.043 C 
ATOM      3  C6  M18 d   1      20.129 -12.211  20.377  0.00  0.00    -0.048 C 
ATOM      4  C7  M18 d   1      19.970 -13.745  20.334  0.00  0.00    -0.002 C 
ATOM      5  N1  M18 d   1      18.581 -13.893  20.755  0.00  0.00    -0.344 N 
ATOM      6  C8  M18 d   1      18.218 -15.019  21.440  0.00  0.00     0.238 C 
ATOM      7  O5  M18 d   1      17.336 -14.983  22.293  0.00  0.00    -0.272 OA
ATOM      8  H5  M18 d   1      17.390 -12.361  21.641  0.00  0.00     0.076 H 
ATOM      9  H6  M18 d   1      18.556 -10.696  20.409  0.00  0.00     0.036 H 
ATOM     10  H7  M18 d   1      18.590 -11.693  18.916  0.00  0.00     0.036 H 
ATOM     11  H8  M18 d   1      20.420 -11.871  21.382  0.00  0.00     0.035 H 
ATOM     12  H9  M18 d   1      20.875 -11.870  19.644  0.00  0.00     0.035 H 
ATOM     13  H10 M18 d   1      20.659 -14.242  21.033  0.00  0.00     0.064 H 
ATOM     14  H11 M18 d   1      20.129 -14.139  19.319  0.00  0.00     0.064 H 
ENDROOT
BRANCH   1  15
ATOM     15  C3  M18 d   1      16.492 -12.976  19.751  0.00  0.00     0.042 C 
ATOM     16  H3  M18 d   1      16.830 -13.263  18.744  0.00  0.00     0.077 H 
ATOM     17  H4  M18 d   1      15.894 -13.792  20.184  0.00  0.00     0.077 H 
BRANCH  15  18
ATOM     18  O2  M18 d   1      15.686 -11.785  19.664  0.00  0.00    -0.346 OA
BRANCH  18  19
ATOM     19  C2  M18 d   1      14.919 -11.526  20.801  0.00  0.00     0.261 C 
ATOM     20  O1  M18 d   1      15.084 -12.319  22.104  0.00  0.00    -0.191 OA
BRANCH  19  21
ATOM     21  C1  M18 d   1      13.934 -10.417  20.629  0.00  0.00     0.019 C 
ATOM     22  H1  M18 d   1      13.396 -10.581  19.684  0.00  0.00     0.048 H 
ATOM     23  H2  M18 d   1      14.491  -9.470  20.574  0.00  0.00     0.048 H 
BRANCH  21  24
ATOM     24  C15 M18 d   1      12.897 -10.295  21.752  0.00  0.00    -0.051 A 
ATOM     25  C16 M18 d   1      12.951  -9.185  22.603  0.00  0.00    -0.056 A 
ATOM     26  C17 M18 d   1      12.035  -9.040  23.652  0.00  0.00     0.034 A 
ATOM     27  H24 M18 d   1      13.711  -8.428  22.448  0.00  0.00     0.086 H 
ATOM     28 CL1  M18 d   1      12.126  -7.628  24.694  0.00  0.00    -0.084 Cl
ATOM     29  C18 M18 d   1      11.017  -9.982  23.815  0.00  0.00    -0.062 A 
ATOM     30  C19 M18 d   1      10.972 -11.102  22.980  0.00  0.00    -0.081 A 
ATOM     31  H25 M18 d   1      10.266  -9.845  24.585  0.00  0.00     0.086 H 
ATOM     32  C20 M18 d   1      11.922 -11.278  21.962  0.00  0.00    -0.077 A 
ATOM     33  H26 M18 d   1      10.194 -11.844  23.120  0.00  0.00     0.083 H 
ATOM     34  H27 M18 d   1      11.901 -12.168  21.343  0.00  0.00     0.084 H 
ENDBRANCH  21  24
ENDBRANCH  19  21
ENDBRANCH  18  19
ENDBRANCH  15  18
ENDBRANCH   1  15
BRANCH   6  35
ATOM     35  C9  M18 d   1      19.174 -16.194  21.606  0.00  0.00     0.071 C 
ATOM     36  H12 M18 d   1      19.843 -16.238  20.734  0.00  0.00     0.078 H 
ATOM     37  H13 M18 d   1      18.591 -17.125  21.669  0.00  0.00     0.078 H 
BRANCH  35  38
ATOM     38  N2  M18 d   1      19.979 -16.054  22.817  0.00  0.00    -0.328 N 
ATOM     39  C10 M18 d   1      19.376 -16.183  24.018  0.00  0.00     0.361 C 
ATOM     40  O4  M18 d   1      18.554 -17.072  24.237  0.00  0.00    -0.238 OA
ATOM     41  H14 M18 d   1      20.959 -15.866  22.757  0.00  0.00     0.165 HD
BRANCH  39  42
ATOM     42  O3  M18 d   1      19.733 -15.294  24.940  0.00  0.00    -0.294 OA
BRANCH  42  43
ATOM     43  C11 M18 d   1      20.241 -14.069  24.797  0.00  0.00     0.061 C 
BRANCH  43  44
ATOM     44  C12 M18 d   1      19.923 -13.364  26.121  0.00  0.00    -0.048 C 
ATOM     45  H15 M18 d   1      20.311 -12.335  26.091  0.00  0.00     0.031 H 
ATOM     46  H16 M18 d   1      20.397 -13.910  26.950  0.00  0.00     0.031 H 
ATOM     47  H17 M18 d   1      18.834 -13.341  26.272  0.00  0.00     0.031 H 
ENDBRANCH  43  44
BRANCH  43  48
ATOM     48  C13 M18 d   1      21.747 -14.270  24.678  0.00  0.00    -0.048 C 
ATOM     49  H18 M18 d   1      22.239 -13.294  24.556  0.00  0.00     0.031 H 
ATOM     50  H19 M18 d   1      21.965 -14.902  23.804  0.00  0.00     0.031 H 
ATOM     51  H20 M18 d   1      22.125 -14.760  25.588  0.00  0.00     0.031 H 
ENDBRANCH  43  48
BRANCH  43  52
ATOM     52  C14 M18 d   1      19.788 -13.195  23.688  0.00  0.00    -0.048 C 
ATOM     53  H21 M18 d   1      20.319 -12.233  23.739  0.00  0.00     0.031 H 
ATOM     54  H22 M18 d   1      18.706 -13.021  23.777  0.00  0.00     0.031 H 
ATOM     55  H23 M18 d   1      20.003 -13.682  22.726  0.00  0.00     0.031 H 
ENDBRANCH  43  52
ENDBRANCH  42  43
ENDBRANCH  39  42
ENDBRANCH  35  38
ENDBRANCH   6  35
TORSDOF 12
