REMARK WARNING: 32 MAX_TORS EXCEEDED!!!
REMARK  57 active torsions:
REMARK  status: ('A' for Active; 'I' for Inactive)
REMARK    1  A    between atoms: N_1  and  CA_2 
REMARK    2  A    between atoms: CA_2  and  C_3 
REMARK    3  A    between atoms: CA_2  and  CB_5 
REMARK       I    between atoms: C_3  and  N_6 
REMARK    4  A    between atoms: N_6  and  CA_7 
REMARK    5  A    between atoms: CA_7  and  C_8 
REMARK    6  A    between atoms: CA_7  and  CB_10 
REMARK       I    between atoms: C_8  and  N_16 
REMARK    7  A    between atoms: CB_10  and  CG_11 
REMARK    8  A    between atoms: N_16  and  CA_17 
REMARK    9  A    between atoms: CA_17  and  C_18 
REMARK   10  A    between atoms: CA_17  and  CB_20 
REMARK       I    between atoms: C_18  and  N_22 
REMARK   11  A    between atoms: CB_20  and  OG_21 
REMARK   12  A    between atoms: N_22  and  CA_23 
REMARK   13  A    between atoms: CA_23  and  C_24 
REMARK   14  A    between atoms: CA_23  and  CB_26 
REMARK       I    between atoms: C_24  and  N_30 
REMARK   15  A    between atoms: CB_26  and  CG_27 
REMARK       I    between atoms: CG_27  and  ND2_29 
REMARK   16  A    between atoms: N_30  and  CA_31 
REMARK   17  A    between atoms: CA_31  and  C_32 
REMARK   18  A    between atoms: CA_31  and  CB_34 
REMARK       I    between atoms: C_32  and  N_41 
REMARK   19  A    between atoms: CB_34  and  CG_35 
REMARK   20  A    between atoms: CG_35  and  CD_36 
REMARK   21  A    between atoms: CD_36  and  NE_37 
REMARK       I    between atoms: NE_37  and  CZ_38 
REMARK       I    between atoms: CZ_38  and  NH1_39 
REMARK   22  A    between atoms: N_41  and  CA_42 
REMARK   23  A    between atoms: CA_42  and  C_43 
REMARK   24  A    between atoms: CA_42  and  CB_45 
REMARK       I    between atoms: C_43  and  N_50 
REMARK   25  A    between atoms: CB_45  and  CG_46 
REMARK   26  A    between atoms: CG_46  and  CD_47 
REMARK   27  A    between atoms: CD_47  and  CE_48 
REMARK   28  A    between atoms: CE_48  and  NZ_49 
REMARK   29  A    between atoms: N_50  and  CA_51 
REMARK   30  A    between atoms: CA_51  and  C_52 
REMARK   31  A    between atoms: CA_51  and  CB_54 
REMARK       I    between atoms: C_52  and  N_58 
REMARK   32  A    between atoms: CB_54  and  CG_55 
REMARK   33  A    between atoms: CG_55  and  CD1_56 
REMARK   34  A    between atoms: CG_55  and  CD2_57 
REMARK   35  A    between atoms: N_58  and  CA_59 
REMARK   36  A    between atoms: CA_59  and  C_60 
REMARK   37  A    between atoms: CA_59  and  CB_62 
REMARK       I    between atoms: C_60  and  N_66 
REMARK   38  A    between atoms: CB_62  and  CG_63 
REMARK   39  A    between atoms: CG_63  and  SD_64 
REMARK   40  A    between atoms: SD_64  and  CE_65 
REMARK   41  A    between atoms: N_66  and  CA_67 
REMARK   42  A    between atoms: CA_67  and  C_68 
REMARK   43  A    between atoms: CA_67  and  CB_70 
REMARK       I    between atoms: C_68  and  N_75 
REMARK   44  A    between atoms: CB_70  and  CG_71 
REMARK   45  A    between atoms: CG_71  and  CD_72 
REMARK   46  A    between atoms: N_75  and  CA_76 
REMARK   47  A    between atoms: CA_76  and  C_77 
REMARK   48  A    between atoms: CA_76  and  CB_79 
REMARK       I    between atoms: C_77  and  N_83 
REMARK   49  A    between atoms: CB_79  and  CG1_80 
REMARK   50  A    between atoms: CB_79  and  CG2_81 
REMARK   51  A    between atoms: CG1_80  and  CD1_82 
REMARK   52  A    between atoms: N_83  and  CA_84 
REMARK   53  A    between atoms: CA_84  and  C_85 
REMARK   54  A    between atoms: CA_84  and  CB_87 
REMARK       I    between atoms: C_85  and  N_91 
REMARK   55  A    between atoms: CB_87  and  CG1_88 
REMARK   56  A    between atoms: CB_87  and  CG2_89 
REMARK   57  A    between atoms: CG1_88  and  CD1_90 
ROOT
ATOM      1  CA  LYS d   1      30.826 -39.101  39.591  0.00  0.00     0.089 C 
ATOM      2  H40 LYS d   1      30.994 -39.320  40.656  0.00  0.00     0.087 H 
ENDROOT
BRANCH   1   3
ATOM      3  N   LYS d   1      29.816 -40.027  39.090  0.00  0.00    -0.346 N 
ATOM      4  C   ARG d   1      28.564 -40.053  39.543  0.00  0.00     0.241 C 
ATOM      5  O   ARG d   1      28.164 -39.367  40.481  0.00  0.00    -0.271 OA
ATOM      6  H39 LYS d   1      30.076 -40.673  38.372  0.00  0.00     0.163 HD
BRANCH   4   7
ATOM      7  CA  ARG d   1      27.624 -41.004  38.823  0.00  0.00     0.089 C 
ATOM      8  H27 ARG d   1      26.580 -40.751  39.061  0.00  0.00     0.087 H 
BRANCH   7   9
ATOM      9  N   ARG d   1      27.852 -40.841  37.393  0.00  0.00    -0.346 N 
ATOM     10  C   ASN d   1      27.398 -39.774  36.742  0.00  0.00     0.241 C 
ATOM     11  O   ASN d   1      26.584 -38.994  37.232  0.00  0.00    -0.271 OA
ATOM     12  H26 ARG d   1      28.358 -41.543  36.893  0.00  0.00     0.163 HD
BRANCH  10  13
ATOM     13  CA  ASN d   1      27.924 -39.548  35.325  0.00  0.00     0.097 C 
ATOM     14  H21 ASN d   1      28.126 -38.471  35.229  0.00  0.00     0.088 H 
BRANCH  13  15
ATOM     15  N   ASN d   1      29.178 -40.241  35.044  0.00  0.00    -0.345 N 
ATOM     16  C   SER d   1      30.342 -39.605  34.884  0.00  0.00     0.243 C 
ATOM     17  O   SER d   1      30.463 -38.375  34.937  0.00  0.00    -0.271 OA
ATOM     18  H20 ASN d   1      29.165 -41.238  34.968  0.00  0.00     0.163 HD
BRANCH  16  19
ATOM     19  CA  SER d   1      31.558 -40.505  34.631  0.00  0.00     0.109 C 
ATOM     20  H16 SER d   1      32.263 -40.366  35.464  0.00  0.00     0.090 H 
BRANCH  19  21
ATOM     21  N   SER d   1      31.156 -41.912  34.610  0.00  0.00    -0.344 N 
ATOM     22  C   HIS d   1      30.819 -42.552  35.727  0.00  0.00     0.241 C 
ATOM     23  O   HIS d   1      30.930 -42.047  36.844  0.00  0.00    -0.271 OA
ATOM     24  H15 SER d   1      31.134 -42.402  33.739  0.00  0.00     0.163 HD
BRANCH  22  25
ATOM     25  CA  HIS d   1      30.270 -43.971  35.573  0.00  0.00     0.094 C 
ATOM     26  H9  HIS d   1      29.810 -44.254  36.532  0.00  0.00     0.088 H 
BRANCH  25  27
ATOM     27  N   HIS d   1      29.230 -44.043  34.544  0.00  0.00    -0.346 N 
ATOM     28  C   ALA d   1      28.013 -43.524  34.710  0.00  0.00     0.248 C 
ATOM     29  O   ALA d   1      27.652 -42.966  35.747  0.00  0.00    -0.271 OA
ATOM     30  H8  HIS d   1      29.442 -44.501  33.681  0.00  0.00     0.163 HD
BRANCH  28  31
ATOM     31  CA  ALA d   1      27.055 -43.653  33.527  0.00  0.00     0.172 C 
ATOM     32  H4  ALA d   1      26.052 -43.356  33.866  0.00  0.00     0.098 H 
BRANCH  31  33
ATOM     33  N   ALA d   1      27.459 -42.741  32.419  0.00  0.00    -0.067 N 
ATOM     34  H1  ALA d   1      26.815 -42.841  31.650  0.00  0.00     0.275 HD
ATOM     35  H2  ALA d   1      28.389 -42.977  32.112  0.00  0.00     0.275 HD
ATOM     36  H3  ALA d   1      27.445 -41.788  32.746  0.00  0.00     0.275 HD
ENDBRANCH  31  33
BRANCH  31  37
ATOM     37  CB  ALA d   1      26.982 -45.111  33.036  0.00  0.00    -0.042 C 
ATOM     38  H5  ALA d   1      26.683 -45.764  33.869  0.00  0.00     0.030 H 
ATOM     39  H6  ALA d   1      27.969 -45.422  32.663  0.00  0.00     0.030 H 
ATOM     40  H7  ALA d   1      26.242 -45.188  32.225  0.00  0.00     0.030 H 
ENDBRANCH  31  37
ENDBRANCH  28  31
ENDBRANCH  25  27
BRANCH  25  41
ATOM     41  CB  HIS d   1      31.395 -44.976  35.279  0.00  0.00     0.004 C 
ATOM     42  H10 HIS d   1      31.463 -45.110  34.189  0.00  0.00     0.046 H 
ATOM     43  H11 HIS d   1      31.135 -45.935  35.751  0.00  0.00     0.046 H 
BRANCH  41  44
ATOM     44  CG  HIS d   1      32.739 -44.550  35.787  0.00  0.00     0.053 A 
ATOM     45  ND1 HIS d   1      33.024 -44.418  37.131  0.00  0.00    -0.247 NA
ATOM     46  CE1 HIS d   1      34.278 -44.027  37.277  0.00  0.00     0.064 A 
ATOM     47  NE2 HIS d   1      34.819 -43.906  36.078  0.00  0.00    -0.359 N 
ATOM     48  H13 HIS d   1      34.780 -43.837  38.225  0.00  0.00     0.143 H 
ATOM     49  CD2 HIS d   1      33.878 -44.224  35.129  0.00  0.00     0.002 A 
ATOM     50  H14 HIS d   1      35.789 -43.620  35.886  0.00  0.00     0.166 HD
ATOM     51  H12 HIS d   1      34.021 -44.216  34.049  0.00  0.00     0.114 H 
ENDBRANCH  41  44
ENDBRANCH  25  41
ENDBRANCH  22  25
ENDBRANCH  19  21
BRANCH  19  52
ATOM     52  CB  SER d   1      32.279 -40.110  33.334  0.00  0.00     0.044 C 
ATOM     53  H17 SER d   1      33.079 -40.839  33.136  0.00  0.00     0.077 H 
ATOM     54  H18 SER d   1      32.718 -39.109  33.462  0.00  0.00     0.077 H 
BRANCH  52  55
ATOM     55  OG  SER d   1      31.395 -40.085  32.223  0.00  0.00    -0.398 OA
ATOM     56  H19 SER d   1      31.876 -39.837  31.442  0.00  0.00     0.209 HD
ENDBRANCH  52  55
ENDBRANCH  19  52
ENDBRANCH  16  19
ENDBRANCH  13  15
BRANCH  13  57
ATOM     57  CB  ASN d   1      26.862 -39.909  34.286  0.00  0.00     0.036 C 
ATOM     58  H22 ASN d   1      25.870 -39.674  34.699  0.00  0.00     0.051 H 
ATOM     59  H23 ASN d   1      26.926 -40.987  34.076  0.00  0.00     0.051 H 
BRANCH  57  60
ATOM     60  CG  ASN d   1      27.040 -39.149  32.985  0.00  0.00     0.217 C 
ATOM     61  OD1 ASN d   1      27.156 -37.925  32.978  0.00  0.00    -0.274 OA
ATOM     62  ND2 ASN d   1      27.061 -39.875  31.876  0.00  0.00    -0.370 N 
ATOM     63  H24 ASN d   1      27.176 -39.429  30.988  0.00  0.00     0.159 HD
ATOM     64  H25 ASN d   1      26.962 -40.869  31.927  0.00  0.00     0.159 HD
ENDBRANCH  57  60
ENDBRANCH  13  57
ENDBRANCH  10  13
ENDBRANCH   7   9
BRANCH   7  65
ATOM     65  CB  ARG d   1      27.905 -42.433  39.270  0.00  0.00    -0.036 C 
ATOM     66  H28 ARG d   1      28.105 -42.419  40.352  0.00  0.00     0.036 H 
ATOM     67  H29 ARG d   1      28.799 -42.787  38.737  0.00  0.00     0.036 H 
BRANCH  65  68
ATOM     68  CG  ARG d   1      26.789 -43.415  39.014  0.00  0.00    -0.048 C 
ATOM     69  H30 ARG d   1      26.202 -43.091  38.142  0.00  0.00     0.035 H 
ATOM     70  H31 ARG d   1      26.134 -43.471  39.896  0.00  0.00     0.035 H 
BRANCH  68  71
ATOM     71  CD  ARG d   1      27.398 -44.772  38.744  0.00  0.00     0.009 C 
ATOM     72  H32 ARG d   1      28.258 -44.913  39.415  0.00  0.00     0.064 H 
ATOM     73  H33 ARG d   1      27.739 -44.805  37.699  0.00  0.00     0.064 H 
BRANCH  71  74
ATOM     74  NE  ARG d   1      26.448 -45.860  38.963  0.00  0.00    -0.227 N 
ATOM     75  CZ  ARG d   1      26.738 -47.148  38.793  0.00  0.00     0.665 C 
ATOM     76  NH1 ARG d   1      27.956 -47.518  38.394  0.00  0.00    -0.235 N 
ATOM     77  NH2 ARG d   1      25.807 -48.070  39.023  0.00  0.00    -0.235 N 
ATOM     78  H35 ARG d   1      28.174 -48.516  38.264  0.00  0.00     0.174 HD
ATOM     79  H36 ARG d   1      28.678 -46.806  38.216  0.00  0.00     0.174 HD
ATOM     80  H37 ARG d   1      24.866 -47.786  39.331  0.00  0.00     0.174 HD
ATOM     81  H38 ARG d   1      26.027 -49.068  38.893  0.00  0.00     0.174 HD
ATOM     82  H34 ARG d   1      25.495 -45.615  39.268  0.00  0.00     0.177 HD
ENDBRANCH  71  74
ENDBRANCH  68  71
ENDBRANCH  65  68
ENDBRANCH   7  65
ENDBRANCH   4   7
ENDBRANCH   1   3
BRANCH   1  83
ATOM     83  C   LYS d   1      30.342 -37.651  39.485  0.00  0.00     0.241 C 
ATOM     84  O   LYS d   1      30.500 -36.868  40.425  0.00  0.00    -0.271 OA
ATOM     85  N   LEU d   1      29.729 -37.307  38.354  0.00  0.00    -0.346 N 
ATOM     86  H52 LEU d   1      29.646 -37.976  37.615  0.00  0.00     0.163 HD
BRANCH  85  87
ATOM     87  CA  LEU d   1      29.180 -35.978  38.178  0.00  0.00     0.089 C 
ATOM     88  H53 LEU d   1      29.984 -35.243  38.331  0.00  0.00     0.087 H 
BRANCH  87  89
ATOM     89  C   LEU d   1      28.104 -35.744  39.218  0.00  0.00     0.241 C 
ATOM     90  O   LEU d   1      28.239 -34.862  40.049  0.00  0.00    -0.271 OA
ATOM     91  N   MET d   1      27.069 -36.577  39.197  0.00  0.00    -0.346 N 
ATOM     92  H63 MET d   1      27.070 -37.320  38.527  0.00  0.00     0.163 HD
BRANCH  91  93
ATOM     93  CA  MET d   1      25.927 -36.461  40.106  0.00  0.00     0.090 C 
ATOM     94  H64 MET d   1      25.441 -35.503  39.869  0.00  0.00     0.087 H 
BRANCH  93  95
ATOM     95  C   MET d   1      26.233 -36.427  41.608  0.00  0.00     0.241 C 
ATOM     96  O   MET d   1      25.420 -35.945  42.397  0.00  0.00    -0.271 OA
ATOM     97  N   GLU d   1      27.386 -36.946  42.009  0.00  0.00    -0.346 N 
ATOM     98  H72 GLU d   1      27.987 -37.393  41.347  0.00  0.00     0.163 HD
BRANCH  97  99
ATOM     99  CA  GLU d   1      27.780 -36.868  43.404  0.00  0.00     0.090 C 
ATOM    100  H73 GLU d   1      26.904 -37.086  44.032  0.00  0.00     0.087 H 
BRANCH  99 101
ATOM    101  C   GLU d   1      28.264 -35.467  43.706  0.00  0.00     0.241 C 
ATOM    102  O   GLU d   1      27.987 -34.927  44.766  0.00  0.00    -0.271 OA
ATOM    103  N   ILE d   1      28.980 -34.877  42.758  0.00  0.00    -0.346 N 
ATOM    104  H78 ILE d   1      29.196 -35.386  41.925  0.00  0.00     0.163 HD
BRANCH 103 105
ATOM    105  CA  ILE d   1      29.461 -33.508  42.895  0.00  0.00     0.092 C 
ATOM    106  H79 ILE d   1      29.826 -33.380  43.925  0.00  0.00     0.088 H 
BRANCH 105 107
ATOM    107  C   ILE d   1      28.339 -32.490  42.660  0.00  0.00     0.241 C 
ATOM    108  O   ILE d   1      28.186 -31.551  43.434  0.00  0.00    -0.271 OA
ATOM    109  N   ILE d   1      27.561 -32.700  41.600  0.00  0.00    -0.346 N 
ATOM    110  H89 ILE d   1      27.711 -33.531  41.065  0.00  0.00     0.163 HD
BRANCH 109 111
ATOM    111  CA  ILE d   1      26.498 -31.786  41.170  0.00  0.00     0.092 C 
ATOM    112  H90 ILE d   1      26.952 -30.794  41.026  0.00  0.00     0.088 H 
BRANCH 111 113
ATOM    113  C   ILE d   1      25.395 -31.642  42.217  0.00  0.00     0.238 C 
ATOM    114  O   ILE d   1      24.941 -30.533  42.496  0.00  0.00    -0.271 OA
ATOM    115  N   NH2 d   1      24.952 -32.744  42.807  0.00  0.00    -0.368 N 
ATOM    116 0H10 NH2 d   1      24.231 -32.686  43.497  0.00  0.00     0.159 HD
ATOM    117 1H10 NH2 d   1      25.339 -33.633  42.562  0.00  0.00     0.159 HD
ENDBRANCH 111 113
BRANCH 111 118
ATOM    118  CB  ILE d   1      25.894 -32.240  39.804  0.00  0.00    -0.030 C 
ATOM    119  H91 ILE d   1      25.476 -33.249  39.938  0.00  0.00     0.043 H 
BRANCH 118 120
ATOM    120  CG1 ILE d   1      26.977 -32.302  38.729  0.00  0.00    -0.063 C 
ATOM    121  H92 ILE d   1      26.485 -32.277  37.745  0.00  0.00     0.033 H 
ATOM    122  H93 ILE d   1      27.520 -33.252  38.844  0.00  0.00     0.033 H 
BRANCH 120 123
ATOM    123  CD1 ILE d   1      27.990 -31.167  38.782  0.00  0.00    -0.076 C 
ATOM    124  H97 ILE d   1      28.726 -31.295  37.975  0.00  0.00     0.027 H 
ATOM    125  H98 ILE d   1      28.505 -31.180  39.754  0.00  0.00     0.027 H 
ATOM    126  H99 ILE d   1      27.471 -30.206  38.655  0.00  0.00     0.027 H 
ENDBRANCH 120 123
ENDBRANCH 118 120
BRANCH 118 127
ATOM    127  CG2 ILE d   1      24.776 -31.322  39.329  0.00  0.00    -0.071 C 
ATOM    128  H94 ILE d   1      23.991 -31.272  40.098  0.00  0.00     0.028 H 
ATOM    129  H95 ILE d   1      24.349 -31.717  38.395  0.00  0.00     0.028 H 
ATOM    130  H96 ILE d   1      25.180 -30.314  39.151  0.00  0.00     0.028 H 
ENDBRANCH 118 127
ENDBRANCH 111 118
ENDBRANCH 109 111
ENDBRANCH 105 107
BRANCH 105 131
ATOM    131  CB  ILE d   1      30.633 -33.239  41.935  0.00  0.00    -0.030 C 
ATOM    132  H80 ILE d   1      30.265 -33.336  40.903  0.00  0.00     0.043 H 
BRANCH 131 133
ATOM    133  CG1 ILE d   1      31.727 -34.282  42.154  0.00  0.00    -0.063 C 
ATOM    134  H81 ILE d   1      31.247 -35.253  42.346  0.00  0.00     0.033 H 
ATOM    135  H82 ILE d   1      32.318 -33.985  43.033  0.00  0.00     0.033 H 
BRANCH 133 136
ATOM    136  CD1 ILE d   1      32.659 -34.438  40.988  0.00  0.00    -0.076 C 
ATOM    137  H86 ILE d   1      33.414 -35.203  41.222  0.00  0.00     0.027 H 
ATOM    138  H87 ILE d   1      33.159 -33.479  40.787  0.00  0.00     0.027 H 
ATOM    139  H88 ILE d   1      32.087 -34.747  40.100  0.00  0.00     0.027 H 
ENDBRANCH 133 136
ENDBRANCH 131 133
BRANCH 131 140
ATOM    140  CG2 ILE d   1      31.175 -31.815  42.115  0.00  0.00    -0.071 C 
ATOM    141  H83 ILE d   1      30.364 -31.090  41.951  0.00  0.00     0.028 H 
ATOM    142  H84 ILE d   1      31.980 -31.635  41.388  0.00  0.00     0.028 H 
ATOM    143  H85 ILE d   1      31.569 -31.699  43.135  0.00  0.00     0.028 H 
ENDBRANCH 131 140
ENDBRANCH 105 131
ENDBRANCH 103 105
ENDBRANCH  99 101
BRANCH  99 144
ATOM    144  CB  GLU d   1      28.868 -37.880  43.723  0.00  0.00    -0.029 C 
ATOM    145  H74 GLU d   1      29.330 -37.600  44.681  0.00  0.00     0.037 H 
ATOM    146  H75 GLU d   1      29.624 -37.837  42.925  0.00  0.00     0.037 H 
BRANCH 144 147
ATOM    147  CG  GLU d   1      28.372 -39.313  43.833  0.00  0.00     0.018 C 
ATOM    148  H76 GLU d   1      27.618 -39.485  43.050  0.00  0.00     0.049 H 
ATOM    149  H77 GLU d   1      27.911 -39.450  44.822  0.00  0.00     0.049 H 
BRANCH 147 150
ATOM    150  CD  GLU d   1      29.492 -40.343  43.668  0.00  0.00     0.172 C 
ATOM    151  OE1 GLU d   1      30.686 -39.950  43.671  0.00  0.00    -0.648 OA
ATOM    152  OE2 GLU d   1      29.178 -41.552  43.532  0.00  0.00    -0.648 OA
ENDBRANCH 147 150
ENDBRANCH 144 147
ENDBRANCH  99 144
ENDBRANCH  97  99
ENDBRANCH  93  95
BRANCH  93 153
ATOM    153  CB  MET d   1      24.931 -37.572  39.813  0.00  0.00    -0.030 C 
ATOM    154  H65 MET d   1      24.435 -37.856  40.753  0.00  0.00     0.037 H 
ATOM    155  H66 MET d   1      25.478 -38.438  39.412  0.00  0.00     0.037 H 
BRANCH 153 156
ATOM    156  CG  MET d   1      23.879 -37.166  38.818  0.00  0.00    -0.021 C 
ATOM    157  H67 MET d   1      24.336 -36.466  38.103  0.00  0.00     0.049 H 
ATOM    158  H68 MET d   1      23.070 -36.657  39.363  0.00  0.00     0.049 H 
BRANCH 156 159
ATOM    159  SD  MET d   1      23.157 -38.527  37.887  0.00  0.00    -0.173 SA
BRANCH 159 160
ATOM    160  CE  MET d   1      22.646 -39.655  39.198  0.00  0.00    -0.035 C 
ATOM    161  H69 MET d   1      22.180 -40.547  38.753  0.00  0.00     0.041 H 
ATOM    162  H70 MET d   1      21.921 -39.151  39.854  0.00  0.00     0.041 H 
ATOM    163  H71 MET d   1      23.525 -39.956  39.786  0.00  0.00     0.041 H 
ENDBRANCH 159 160
ENDBRANCH 156 159
ENDBRANCH 153 156
ENDBRANCH  93 153
ENDBRANCH  91  93
ENDBRANCH  87  89
BRANCH  87 164
ATOM    164  CB  LEU d   1      28.622 -35.790  36.773  0.00  0.00    -0.035 C 
ATOM    165  H54 LEU d   1      27.535 -35.959  36.804  0.00  0.00     0.037 H 
ATOM    166  H55 LEU d   1      29.090 -36.532  36.110  0.00  0.00     0.037 H 
BRANCH 164 167
ATOM    167  CG  LEU d   1      28.880 -34.397  36.200  0.00  0.00    -0.059 C 
ATOM    168  H56 LEU d   1      28.729 -33.658  37.001  0.00  0.00     0.038 H 
BRANCH 167 169
ATOM    169  CD1 LEU d   1      30.314 -34.280  35.694  0.00  0.00    -0.073 C 
ATOM    170  H57 LEU d   1      30.478 -33.272  35.287  0.00  0.00     0.028 H 
ATOM    171  H58 LEU d   1      30.486 -35.027  34.905  0.00  0.00     0.028 H 
ATOM    172  H59 LEU d   1      31.012 -34.457  36.526  0.00  0.00     0.028 H 
ENDBRANCH 167 169
BRANCH 167 173
ATOM    173  CD2 LEU d   1      27.921 -34.097  35.084  0.00  0.00    -0.073 C 
ATOM    174  H60 LEU d   1      26.889 -34.183  35.455  0.00  0.00     0.028 H 
ATOM    175  H61 LEU d   1      28.077 -34.813  34.264  0.00  0.00     0.028 H 
ATOM    176  H62 LEU d   1      28.095 -33.075  34.716  0.00  0.00     0.028 H 
ENDBRANCH 167 173
ENDBRANCH 164 167
ENDBRANCH  87 164
ENDBRANCH  85  87
ENDBRANCH   1  83
BRANCH   1 177
ATOM    177  CB  LYS d   1      32.151 -39.329  38.847  0.00  0.00    -0.038 C 
ATOM    178  H41 LYS d   1      31.919 -39.853  37.908  0.00  0.00     0.036 H 
ATOM    179  H42 LYS d   1      32.781 -39.971  39.480  0.00  0.00     0.036 H 
BRANCH 177 180
ATOM    180  CG  LYS d   1      32.970 -38.083  38.491  0.00  0.00    -0.061 C 
ATOM    181  H43 LYS d   1      33.489 -37.718  39.390  0.00  0.00     0.033 H 
ATOM    182  H44 LYS d   1      32.297 -37.300  38.113  0.00  0.00     0.033 H 
BRANCH 180 183
ATOM    183  CD  LYS d   1      34.006 -38.429  37.410  0.00  0.00    -0.043 C 
ATOM    184  H45 LYS d   1      33.523 -39.032  36.627  0.00  0.00     0.035 H 
ATOM    185  H46 LYS d   1      34.824 -39.006  37.866  0.00  0.00     0.035 H 
BRANCH 183 186
ATOM    186  CE  LYS d   1      34.589 -37.134  36.770  0.00  0.00     0.080 C 
ATOM    187  H47 LYS d   1      35.110 -36.552  37.544  0.00  0.00     0.075 H 
ATOM    188  H48 LYS d   1      33.766 -36.535  36.353  0.00  0.00     0.075 H 
BRANCH 186 189
ATOM    189  NZ  LYS d   1      35.555 -37.470  35.675  0.00  0.00    -0.079 N 
ATOM    190  H49 LYS d   1      35.919 -36.619  35.276  0.00  0.00     0.274 HD
ATOM    191  H50 LYS d   1      35.082 -38.001  34.961  0.00  0.00     0.274 HD
ATOM    192  H51 LYS d   1      36.314 -38.016  36.052  0.00  0.00     0.274 HD
ENDBRANCH 186 189
ENDBRANCH 183 186
ENDBRANCH 180 183
ENDBRANCH 177 180
ENDBRANCH   1 177
TORSDOF 57
