REMARK  9 active torsions:
REMARK  status: ('A' for Active; 'I' for Inactive)
REMARK    1  A    between atoms: N1_8  and  C1'_9 
REMARK    2  A    between atoms: C3'_11  and  O3'_12 
REMARK    3  A    between atoms: C4'_14  and  C5'_15 
REMARK    4  A    between atoms: C5'_15  and  O5'_16 
REMARK    5  A    between atoms: O5'_16  and  PA_17 
REMARK    6  A    between atoms: PA_17  and  N3A_20 
REMARK    7  A    between atoms: N3A_20  and  PB_21 
REMARK    8  A    between atoms: PB_21  and  O3B_24 
REMARK    9  A    between atoms: O3B_24  and  PG_25 
ROOT
ATOM      1  C1' DUP d   1      -4.338  12.826  27.366  0.00  0.00     0.116 C 
ATOM      2  C2' DUP d   1      -5.464  13.405  28.188  0.00  0.00     0.002 C 
ATOM      3  C3' DUP d   1      -4.980  13.253  29.608  0.00  0.00     0.066 C 
ATOM      4  O4' DUP d   1      -3.184  12.788  28.195  0.00  0.00    -0.356 OA
ATOM      5  C4' DUP d   1      -3.473  13.400  29.446  0.00  0.00     0.087 C 
ATOM      6  H4  DUP d   1      -4.148  13.418  26.459  0.00  0.00     0.118 H 
ATOM      7  H5  DUP d   1      -6.396  12.843  28.028  0.00  0.00     0.043 H 
ATOM      8  H6  DUP d   1      -5.627  14.464  27.940  0.00  0.00     0.043 H 
ATOM      9  H7  DUP d   1      -5.244  12.269  30.022  0.00  0.00     0.087 H 
ATOM     10  H9  DUP d   1      -3.203  14.466  29.427  0.00  0.00     0.090 H 
ENDROOT
BRANCH   5  11
ATOM     11  C5' DUP d   1      -2.673  12.708  30.548  0.00  0.00     0.057 C 
ATOM     12  H10 DUP d   1      -2.752  13.288  31.480  0.00  0.00     0.079 H 
ATOM     13  H11 DUP d   1      -1.617  12.638  30.248  0.00  0.00     0.079 H 
BRANCH  11  14
ATOM     14  O5' DUP d   1      -3.191  11.417  30.752  0.00  0.00    -0.293 OA
BRANCH  14  15
ATOM     15  PA  DUP d   1      -2.483  10.379  31.777  0.00  0.00     0.368 P 
ATOM     16  O1A DUP d   1      -2.192  11.159  33.016  0.00  0.00    -0.629 OA
ATOM     17  O2A DUP d   1      -3.408   9.213  31.945  0.00  0.00    -0.629 OA
BRANCH  15  18
ATOM     18  N3A DUP d   1      -1.047   9.923  31.066  0.00  0.00    -0.225 N 
ATOM     19  H12 DUP d   1      -1.099   9.274  30.307  0.00  0.00     0.178 HD
BRANCH  18  20
ATOM     20  PB  DUP d   1       0.469  10.456  31.510  0.00  0.00     0.379 P 
ATOM     21  O1B DUP d   1       0.627  10.527  33.015  0.00  0.00    -0.629 OA
ATOM     22  O2B DUP d   1       1.501   9.616  30.788  0.00  0.00    -0.629 OA
BRANCH  20  23
ATOM     23  O3B DUP d   1       0.502  11.976  30.985  0.00  0.00    -0.178 OA
BRANCH  23  24
ATOM     24  PG  DUP d   1       0.882  13.266  31.882  0.00  0.00     0.431 P 
ATOM     25  O2G DUP d   1       0.020  13.344  33.105  0.00  0.00    -0.616 OA
ATOM     26  O1G DUP d   1       2.330  13.114  32.247  0.00  0.00    -0.616 OA
ATOM     27  O3G DUP d   1       0.682  14.443  30.978  0.00  0.00    -0.616 OA
ENDBRANCH  23  24
ENDBRANCH  20  23
ENDBRANCH  18  20
ENDBRANCH  15  18
ENDBRANCH  14  15
ENDBRANCH  11  14
ENDBRANCH   5  11
BRANCH   3  28
ATOM     28  O3' DUP d   1      -5.510  14.261  30.418  0.00  0.00    -0.393 OA
ATOM     29  H8  DUP d   1      -5.195  14.150  31.307  0.00  0.00     0.210 HD
ENDBRANCH   3  28
BRANCH   1  30
ATOM     30  N1  DUP d   1      -4.769  11.443  27.026  0.00  0.00    -0.282 N 
ATOM     31  C6  DUP d   1      -4.566  10.415  27.923  0.00  0.00    -0.008 A 
ATOM     32  C5  DUP d   1      -5.007   9.117  27.652  0.00  0.00    -0.002 A 
ATOM     33  H2  DUP d   1      -4.052  10.619  28.861  0.00  0.00     0.112 H 
ATOM     34  C4  DUP d   1      -5.614   8.901  26.423  0.00  0.00     0.250 A 
ATOM     35  H1  DUP d   1      -4.880   8.311  28.373  0.00  0.00     0.094 H 
ATOM     36  O4  DUP d   1      -6.008   7.786  26.116  0.00  0.00    -0.268 OA
ATOM     37  N3  DUP d   1      -5.800   9.941  25.536  0.00  0.00    -0.275 N 
ATOM     38  C2  DUP d   1      -5.403  11.220  25.829  0.00  0.00     0.331 A 
ATOM     39  H3  DUP d   1      -6.236   9.757  24.655  0.00  0.00     0.173 HD
ATOM     40  O2  DUP d   1      -5.614  12.144  25.018  0.00  0.00    -0.246 OA
ENDBRANCH   1  30
TORSDOF 9
