REMARK  12 active torsions:
REMARK  status: ('A' for Active; 'I' for Inactive)
REMARK    1  A    between atoms: C10_7  and  C7_5 
REMARK    2  A    between atoms: N16_21  and  C17_9 
REMARK    3  A    between atoms: C20_10  and  O23_24 
REMARK    4  A    between atoms: O23_24  and  C24_13 
REMARK    5  A    between atoms: C24_13  and  C25_25 
REMARK    6  A    between atoms: C3_15  and  N31_31 
REMARK    7  A    between atoms: C12_18  and  N16_21 
REMARK    8  A    between atoms: C25_25  and  O26_26 
REMARK    9  A    between atoms: C25_25  and  C27_27 
REMARK   10  A    between atoms: C27_27  and  N28_28 
REMARK   11  A    between atoms: N28_28  and  C29_29 
REMARK   12  A    between atoms: N28_28  and  C30_30 
ROOT
ATOM      1  C10 PO5 d   1     -13.559 206.451 111.032  0.00  0.00     0.091 A 
ATOM      2  C15 PO5 d   1     -14.146 206.873 109.867  0.00  0.00    -0.036 A 
ATOM      3  N11 PO5 d   1     -12.262 206.629 111.302  0.00  0.00    -0.062 NA
ATOM      4  C12 PO5 d   1     -11.528 207.261 110.377  0.00  0.00     0.727 A 
ATOM      5  N13 PO5 d   1     -12.009 207.707 109.214  0.00  0.00    -0.075 NA
ATOM      6  C14 PO5 d   1     -13.306 207.503 108.986  0.00  0.00     0.023 A 
ATOM      7  H4  PO5 d   1     -15.198 206.720 109.658  0.00  0.00     0.089 H 
ATOM      8  H9  PO5 d   1     -13.721 207.856 108.049  0.00  0.00     0.115 H 
ENDROOT
BRANCH   4   9
ATOM      9  N16 PO5 d   1     -10.160 207.483 110.587  0.00  0.00    -0.188 N 
ATOM     10  H10 PO5 d   1      -9.550 207.515 109.757  0.00  0.00     0.184 HD
BRANCH   9  11
ATOM     11  C17 PO5 d   1      -9.558 207.665 111.842  0.00  0.00     0.049 A 
ATOM     12  C22 PO5 d   1      -8.226 207.385 112.060  0.00  0.00    -0.054 A 
ATOM     13  C21 PO5 d   1      -7.651 207.577 113.297  0.00  0.00    -0.049 A 
ATOM     14  H6  PO5 d   1      -7.621 207.007 111.244  0.00  0.00     0.087 H 
ATOM     15  C20 PO5 d   1      -8.421 208.061 114.330  0.00  0.00     0.069 A 
ATOM     16  H5  PO5 d   1      -6.603 207.349 113.455  0.00  0.00     0.087 H 
ATOM     17  C19 PO5 d   1      -9.752 208.344 114.130  0.00  0.00    -0.049 A 
ATOM     18  C18 PO5 d   1     -10.310 208.149 112.887  0.00  0.00    -0.054 A 
ATOM     19  H12 PO5 d   1     -10.358 208.719 114.947  0.00  0.00     0.087 H 
ATOM     20  H11 PO5 d   1     -11.357 208.380 112.729  0.00  0.00     0.087 H 
BRANCH  15  21
ATOM     21  O23 PO5 d   1      -7.867 208.250 115.581  0.00  0.00    -0.349 OA
BRANCH  21  22
ATOM     22  C24 PO5 d   1      -6.577 207.649 115.573  0.00  0.00     0.051 C 
ATOM     23  H7  PO5 d   1      -6.064 207.877 114.627  0.00  0.00     0.079 H 
ATOM     24  H8  PO5 d   1      -6.671 206.559 115.685  0.00  0.00     0.079 H 
BRANCH  22  25
ATOM     25  C25 PO5 d   1      -5.795 208.219 116.733  0.00  0.00     0.080 C 
ATOM     26  H13 PO5 d   1      -4.918 207.590 116.947  0.00  0.00     0.088 H 
BRANCH  25  27
ATOM     27  O26 PO5 d   1      -5.374 209.529 116.364  0.00  0.00    -0.392 OA
ATOM     28  H14 PO5 d   1      -6.136 210.066 116.181  0.00  0.00     0.210 HD
ENDBRANCH  25  27
BRANCH  25  29
ATOM     29  C27 PO5 d   1      -6.695 208.270 117.954  0.00  0.00     0.108 C 
ATOM     30  H15 PO5 d   1      -7.206 207.303 118.071  0.00  0.00     0.080 H 
ATOM     31  H16 PO5 d   1      -7.443 209.066 117.822  0.00  0.00     0.080 H 
BRANCH  29  32
ATOM     32  N28 PO5 d   1      -5.887 208.550 119.170  0.00  0.00    -0.076 N 
ATOM     33  H17 PO5 d   1      -5.216 209.254 118.906  0.00  0.00     0.279 HD
BRANCH  32  34
ATOM     34  C29 PO5 d   1      -6.689 209.139 120.275  0.00  0.00     0.066 C 
ATOM     35  H18 PO5 d   1      -6.038 209.323 121.143  0.00  0.00     0.068 H 
ATOM     36  H19 PO5 d   1      -7.490 208.441 120.559  0.00  0.00     0.068 H 
ATOM     37  H20 PO5 d   1      -7.131 210.089 119.941  0.00  0.00     0.068 H 
ENDBRANCH  32  34
BRANCH  32  38
ATOM     38  C30 PO5 d   1      -5.100 207.368 119.602  0.00  0.00     0.066 C 
ATOM     39  H21 PO5 d   1      -4.529 206.976 118.748  0.00  0.00     0.068 H 
ATOM     40  H22 PO5 d   1      -5.782 206.590 119.976  0.00  0.00     0.068 H 
ATOM     41  H23 PO5 d   1      -4.406 207.662 120.403  0.00  0.00     0.068 H 
ENDBRANCH  32  38
ENDBRANCH  29  32
ENDBRANCH  25  29
ENDBRANCH  22  25
ENDBRANCH  21  22
ENDBRANCH  15  21
ENDBRANCH   9  11
ENDBRANCH   4   9
BRANCH   1  42
ATOM     42  C7  PO5 d   1     -14.369 205.768 112.005  0.00  0.00     0.043 A 
ATOM     43  C6  PO5 d   1     -14.069 205.613 113.338  0.00  0.00     0.093 A 
ATOM     44  N1  PO5 d   1     -15.085 204.887 113.883  0.00  0.00    -0.148 N 
ATOM     45  C5  PO5 d   1     -13.036 206.005 114.193  0.00  0.00    -0.049 A 
ATOM     46  N2  PO5 d   1     -15.192 204.495 115.158  0.00  0.00    -0.132 NA
ATOM     47  N9  PO5 d   1     -16.030 204.552 112.990  0.00  0.00    -0.161 NA
ATOM     48  C3  PO5 d   1     -14.225 204.866 115.941  0.00  0.00     0.148 A 
ATOM     49  C4  PO5 d   1     -13.064 205.664 115.482  0.00  0.00    -0.035 A 
ATOM     50  H1  PO5 d   1     -12.270 205.959 116.166  0.00  0.00     0.089 H 
ATOM     51  C8  PO5 d   1     -15.599 205.089 111.846  0.00  0.00     0.038 A 
ATOM     52  H3  PO5 d   1     -16.133 205.013 110.900  0.00  0.00     0.119 H 
ATOM     53  H2  PO5 d   1     -12.204 206.591 113.805  0.00  0.00     0.087 H 
BRANCH  48  54
ATOM     54  N31 PO5 d   1     -14.236 204.513 117.270  0.00  0.00    -0.360 N 
ATOM     55  C32 PO5 d   1     -14.656 205.451 118.303  0.00  0.00     0.016 C 
ATOM     56  C33 PO5 d   1     -15.231 204.672 119.470  0.00  0.00     0.034 C 
ATOM     57  H24 PO5 d   1     -15.422 206.128 117.898  0.00  0.00     0.067 H 
ATOM     58  H25 PO5 d   1     -13.790 206.039 118.642  0.00  0.00     0.067 H 
ATOM     59  O34 PO5 d   1     -14.291 203.676 119.886  0.00  0.00    -0.388 OA
ATOM     60  H26 PO5 d   1     -16.168 204.186 119.161  0.00  0.00     0.076 H 
ATOM     61  H27 PO5 d   1     -15.432 205.358 120.306  0.00  0.00     0.076 H 
ATOM     62  C35 PO5 d   1     -14.147 202.690 118.868  0.00  0.00     0.034 C 
ATOM     63  C36 PO5 d   1     -13.464 203.350 117.694  0.00  0.00     0.016 C 
ATOM     64  H28 PO5 d   1     -15.136 202.315 118.565  0.00  0.00     0.076 H 
ATOM     65  H29 PO5 d   1     -13.535 201.854 119.238  0.00  0.00     0.076 H 
ATOM     66  H30 PO5 d   1     -12.454 203.669 117.990  0.00  0.00     0.067 H 
ATOM     67  H31 PO5 d   1     -13.393 202.634 116.862  0.00  0.00     0.067 H 
ENDBRANCH  48  54
ENDBRANCH   1  42
TORSDOF 12
