REMARK  12 active torsions:
REMARK  status: ('A' for Active; 'I' for Inactive)
REMARK    1  A    between atoms: C2_2  and  NA2_3 
REMARK    2  A    between atoms: C4_5  and  NA4_6 
REMARK    3  A    between atoms: C9_13  and  C6_9 
REMARK    4  A    between atoms: N10_14  and  C9_13 
REMARK    5  A    between atoms: N10_14  and  CM_15 
REMARK    6  A    between atoms: C14_19  and  N10_14 
REMARK    7  A    between atoms: C11_16  and  C_22 
REMARK       I    between atoms: C_22  and  N_24 
REMARK    8  A    between atoms: N_24  and  CA_25 
REMARK    9  A    between atoms: CA_25  and  CT_26 
REMARK   10  A    between atoms: CA_25  and  CB_29 
REMARK   11  A    between atoms: CB_29  and  CG_30 
REMARK   12  A    between atoms: CG_30  and  CD_31 
ROOT
ATOM      1  C11 MTX d   1      10.983  -3.632 -20.986  0.00  0.00     0.032 A 
ATOM      2  C12 MTX d   1      11.040  -3.514 -19.584  0.00  0.00    -0.066 A 
ATOM      3  C13 MTX d   1      12.291  -3.295 -19.017  0.00  0.00    -0.056 A 
ATOM      4  C14 MTX d   1      13.495  -3.214 -19.750  0.00  0.00     0.030 A 
ATOM      5  C15 MTX d   1      13.398  -3.346 -21.155  0.00  0.00    -0.056 A 
ATOM      6  C16 MTX d   1      12.163  -3.541 -21.733  0.00  0.00    -0.066 A 
ATOM      7  H   MTX d   1      10.143  -3.591 -18.970  0.00  0.00     0.085 H 
ATOM      8  H   MTX d   1      12.345  -3.178 -17.935  0.00  0.00     0.086 H 
ATOM      9  H   MTX d   1      14.293  -3.294 -21.775  0.00  0.00     0.086 H 
ATOM     10  H   MTX d   1      12.102  -3.628 -22.818  0.00  0.00     0.085 H 
ENDROOT
BRANCH   4  11
ATOM     11  N10 MTX d   1      14.765  -3.004 -19.158  0.00  0.00    -0.379 N 
BRANCH  11  12
ATOM     12  C9  MTX d   1      14.827  -3.062 -17.671  0.00  0.00     0.036 C 
ATOM     13  H   MTX d   1      15.834  -2.776 -17.368  0.00  0.00     0.073 H 
ATOM     14  H   MTX d   1      14.062  -2.393 -17.279  0.00  0.00     0.073 H 
BRANCH  12  15
ATOM     15  C6  MTX d   1      14.557  -4.434 -17.131  0.00  0.00     0.070 A 
ATOM     16  N5  MTX d   1      14.362  -4.450 -15.814  0.00  0.00    -0.242 NA
ATOM     17  C4A MTX d   1      14.097  -5.666 -15.241  0.00  0.00     0.151 A 
ATOM     18  C4  MTX d   1      13.853  -5.739 -13.828  0.00  0.00     0.173 A 
ATOM     19  C8A MTX d   1      14.054  -6.869 -15.979  0.00  0.00     0.201 A 
ATOM     20  N3  MTX d   1      13.617  -6.946 -13.289  0.00  0.00    -0.043 NA
ATOM     21  C2  MTX d   1      13.567  -8.102 -14.034  0.00  0.00     0.724 A 
ATOM     22  N1  MTX d   1      13.790  -8.071 -15.375  0.00  0.00    -0.041 NA
ATOM     23  N8  MTX d   1      14.262  -6.853 -17.346  0.00  0.00    -0.237 NA
ATOM     24  C7  MTX d   1      14.508  -5.655 -17.876  0.00  0.00     0.030 A 
ATOM     25  H   MTX d   1      14.684  -5.602 -18.950  0.00  0.00     0.118 H 
BRANCH  18  26
ATOM     26  NA4 MTX d   1      13.875  -4.569 -13.101  0.00  0.00    -0.381 N 
ATOM     27  H   MTX d   1      13.706  -4.590 -12.095  0.00  0.00     0.157 HD
ATOM     28  H   MTX d   1      14.060  -3.682 -13.568  0.00  0.00     0.157 HD
ENDBRANCH  18  26
BRANCH  21  29
ATOM     29  NA2 MTX d   1      13.322  -9.302 -13.438  0.00  0.00    -0.231 N 
ATOM     30  H   MTX d   1      13.308 -10.155 -13.996  0.00  0.00     0.174 HD
ATOM     31  H   MTX d   1      13.152  -9.347 -12.433  0.00  0.00     0.174 HD
ENDBRANCH  21  29
ENDBRANCH  12  15
ENDBRANCH  11  12
BRANCH  11  32
ATOM     32  CM  MTX d   1      15.953  -2.993 -20.018  0.00  0.00    -0.018 C 
ATOM     33  H   MTX d   1      16.564  -2.122 -19.780  0.00  0.00     0.056 H 
ATOM     34  H   MTX d   1      16.531  -3.901 -19.848  0.00  0.00     0.056 H 
ATOM     35  H   MTX d   1      15.644  -2.947 -21.062  0.00  0.00     0.056 H 
ENDBRANCH  11  32
ENDBRANCH   4  11
BRANCH   1  36
ATOM     36  C   MTX d   1       9.741  -3.857 -21.751  0.00  0.00     0.252 C 
ATOM     37  O   MTX d   1       9.603  -3.505 -22.929  0.00  0.00    -0.268 OA
ATOM     38  N   MTX d   1       8.685  -4.255 -20.979  0.00  0.00    -0.342 N 
ATOM     39  H   MTX d   1       8.841  -4.584 -20.026  0.00  0.00     0.163 HD
BRANCH  38  40
ATOM     40  CA  MTX d   1       7.335  -4.206 -21.526  0.00  0.00     0.097 C 
ATOM     41  H   MTX d   1       7.202  -3.246 -22.024  0.00  0.00     0.089 H 
BRANCH  40  42
ATOM     42  CT  MTX d   1       6.342  -4.358 -20.394  0.00  0.00     0.196 C 
ATOM     43  O1  MTX d   1       5.136  -4.255 -20.660  0.00  0.00    -0.646 OA
ATOM     44  O2  MTX d   1       6.796  -4.533 -19.237  0.00  0.00    -0.646 OA
ENDBRANCH  40  42
BRANCH  40  45
ATOM     45  CB  MTX d   1       7.101  -5.300 -22.574  0.00  0.00    -0.028 C 
ATOM     46  H   MTX d   1       7.834  -5.203 -23.375  0.00  0.00     0.037 H 
ATOM     47  H   MTX d   1       6.099  -5.199 -22.992  0.00  0.00     0.037 H 
BRANCH  45  48
ATOM     48  CG  MTX d   1       7.244  -6.664 -21.912  0.00  0.00     0.018 C 
ATOM     49  H   MTX d   1       6.356  -6.833 -21.302  0.00  0.00     0.049 H 
ATOM     50  H   MTX d   1       8.164  -6.656 -21.328  0.00  0.00     0.049 H 
BRANCH  48  51
ATOM     51  CD  MTX d   1       7.341  -7.799 -22.915  0.00  0.00     0.172 C 
ATOM     52  OE1 MTX d   1       7.316  -7.545 -24.145  0.00  0.00    -0.648 OA
ATOM     53  OE2 MTX d   1       7.450  -8.954 -22.465  0.00  0.00    -0.648 OA
ENDBRANCH  48  51
ENDBRANCH  45  48
ENDBRANCH  40  45
ENDBRANCH  38  40
ENDBRANCH   1  36
TORSDOF 12
