REMARK  7 active torsions:
REMARK  status: ('A' for Active; 'I' for Inactive)
REMARK    1  A    between atoms: CAO_3  and  CAJ_4 
REMARK    2  A    between atoms: CAB_9  and  CAA_10 
REMARK       I    between atoms: CAA_10  and  NAD_12 
REMARK       I    between atoms: NAE_18  and  CAC_19 
REMARK    3  A    between atoms: CAC_19  and  CAF_21 
REMARK    4  A    between atoms: CAF_21  and  CAV_22 
REMARK    5  A    between atoms: CAV_22  and  NBG_23 
REMARK    6  A    between atoms: CAV_22  and  CAT_24 
REMARK    7  A    between atoms: CAT_24  and  CAG_25 
ROOT
ATOM      1  CAA AJH d   1      46.097  10.434  25.974  0.00  0.00     0.253 C 
ATOM      2  OAN AJH d   1      46.314   9.223  25.994  0.00  0.00    -0.267 OA
ATOM      3  NAD AJH d   1      44.849  10.894  25.859  0.00  0.00    -0.346 N 
ATOM      4  CAR AJH d   1      44.538  12.312  26.082  0.00  0.00     0.013 C 
ATOM      5  CAS AJH d   1      44.355  12.515  27.590  0.00  0.00     0.013 C 
ATOM      6  CBE AJH d   1      43.715   9.961  25.760  0.00  0.00    -0.001 C 
ATOM      7  CBC AJH d   1      43.328   9.321  27.098  0.00  0.00    -0.035 C 
ATOM      8  CBF AJH d   1      43.626  10.178  28.334  0.00  0.00    -0.001 C 
ATOM      9  NAE AJH d   1      43.328  11.604  28.122  0.00  0.00    -0.350 N 
ATOM     10  CAC AJH d   1      42.127  12.114  28.430  0.00  0.00     0.221 C 
ATOM     11  OAU AJH d   1      41.857  13.301  28.277  0.00  0.00    -0.273 OA
ATOM     12  H5  AJH d   1      43.612  12.581  25.552  0.00  0.00     0.066 H 
ATOM     13  H6  AJH d   1      45.365  12.939  25.717  0.00  0.00     0.066 H 
ATOM     14  H7  AJH d   1      44.047  13.554  27.779  0.00  0.00     0.066 H 
ATOM     15  H8  AJH d   1      45.310  12.317  28.099  0.00  0.00     0.066 H 
ATOM     16  H9  AJH d   1      43.984   9.160  25.056  0.00  0.00     0.064 H 
ATOM     17  H10 AJH d   1      42.845  10.511  25.373  0.00  0.00     0.064 H 
ATOM     18  H11 AJH d   1      43.881   8.375  27.197  0.00  0.00     0.037 H 
ATOM     19  H12 AJH d   1      42.248   9.114  27.078  0.00  0.00     0.037 H 
ATOM     20  H13 AJH d   1      44.692  10.075  28.585  0.00  0.00     0.064 H 
ATOM     21  H14 AJH d   1      43.015   9.812  29.172  0.00  0.00     0.064 H 
ENDROOT
BRANCH  10  22
ATOM     22  CAF AJH d   1      41.072  11.161  29.003  0.00  0.00     0.036 C 
ATOM     23  H15 AJH d   1      41.402  10.814  29.993  0.00  0.00     0.050 H 
ATOM     24  H16 AJH d   1      40.964  10.298  28.329  0.00  0.00     0.050 H 
BRANCH  22  25
ATOM     25  CAV AJH d   1      39.714  11.858  29.145  0.00  0.00     0.112 C 
ATOM     26  H17 AJH d   1      39.874  12.819  29.655  0.00  0.00     0.085 H 
BRANCH  25  27
ATOM     27  NBG AJH d   1      38.783  11.059  29.955  0.00  0.00    -0.074 N 
ATOM     28  H18 AJH d   1      37.902  11.543  30.029  0.00  0.00     0.274 HD
ATOM     29  H19 AJH d   1      39.170  10.923  30.876  0.00  0.00     0.274 HD
ATOM     30  H20 AJH d   1      38.638  10.164  29.515  0.00  0.00     0.274 HD
ENDBRANCH  25  27
BRANCH  25  31
ATOM     31  CAT AJH d   1      39.114  12.138  27.766  0.00  0.00    -0.011 C 
ATOM     32  H21 AJH d   1      39.119  11.209  27.178  0.00  0.00     0.043 H 
ATOM     33  H22 AJH d   1      39.725  12.898  27.257  0.00  0.00     0.043 H 
BRANCH  31  34
ATOM     34  CAG AJH d   1      37.674  12.650  27.879  0.00  0.00    -0.015 A 
ATOM     35  CAM AJH d   1      37.506  13.982  28.243  0.00  0.00    -0.034 A 
ATOM     36  CAL AJH d   1      36.243  14.563  28.347  0.00  0.00     0.155 A 
ATOM     37  H23 AJH d   1      38.382  14.585  28.452  0.00  0.00     0.089 H 
ATOM     38  FBB AJH d   1      36.148  15.853  28.724  0.00  0.00    -0.203 F 
ATOM     39  CAK AJH d   1      35.120  13.781  28.076  0.00  0.00     0.157 A 
ATOM     40  FBA AJH d   1      33.877  14.297  28.031  0.00  0.00    -0.203 F 
ATOM     41  CAH AJH d   1      35.283  12.441  27.735  0.00  0.00    -0.005 A 
ATOM     42  CAI AJH d   1      36.548  11.880  27.629  0.00  0.00     0.125 A 
ATOM     43  H24 AJH d   1      34.409  11.827  27.550  0.00  0.00     0.093 H 
ATOM     44  FAZ AJH d   1      36.643  10.582  27.253  0.00  0.00    -0.205 F 
ENDBRANCH  31  34
ENDBRANCH  25  31
ENDBRANCH  22  25
ENDBRANCH  10  22
BRANCH   1  45
ATOM     45  CAB AJH d   1      47.180  11.216  25.998  0.00  0.00     0.032 A 
ATOM     46  CAP AJH d   1      47.142  12.601  25.792  0.00  0.00    -0.067 A 
ATOM     47  CAX AJH d   1      48.262  13.396  26.023  0.00  0.00    -0.066 A 
ATOM     48  H1  AJH d   1      46.224  13.062  25.447  0.00  0.00     0.085 H 
ATOM     49  CAO AJH d   1      49.448  12.834  26.483  0.00  0.00     0.040 A 
ATOM     50  H2  AJH d   1      48.209  14.463  25.842  0.00  0.00     0.085 H 
ATOM     51  CAY AJH d   1      49.503  11.463  26.702  0.00  0.00    -0.066 A 
ATOM     52  CAQ AJH d   1      48.386  10.668  26.455  0.00  0.00    -0.067 A 
ATOM     53  H3  AJH d   1      50.418  11.011  27.066  0.00  0.00     0.085 H 
ATOM     54  H4  AJH d   1      48.451   9.599  26.620  0.00  0.00     0.085 H 
BRANCH  49  55
ATOM     55  CAJ AJH d   1      50.680  13.715  26.732  0.00  0.00     0.209 C 
ATOM     56  OAW AJH d   1      51.353  13.524  27.771  0.00  0.00    -0.644 OA
ATOM     57  OBD AJH d   1      50.923  14.617  25.902  0.00  0.00    -0.644 OA
ENDBRANCH  49  55
ENDBRANCH   1  45
TORSDOF 7
