REMARK  3 active torsions:
REMARK  status: ('A' for Active; 'I' for Inactive)
REMARK    1  A    between atoms: C10_6  and  C3_10 
REMARK    2  A    between atoms: N16_17  and  C17_8 
REMARK    3  A    between atoms: C12_14  and  N16_17 
ROOT
ATOM      1  C10 5BP d   1     -13.546 205.791 111.178  0.00  0.00     0.091 A 
ATOM      2  C15 5BP d   1     -13.990 206.141 109.927  0.00  0.00    -0.036 A 
ATOM      3  N11 5BP d   1     -12.273 205.931 111.563  0.00  0.00    -0.062 NA
ATOM      4  C12 5BP d   1     -11.420 206.445 110.669  0.00  0.00     0.723 A 
ATOM      5  N13 5BP d   1     -11.747 206.821 109.430  0.00  0.00    -0.075 NA
ATOM      6  C14 5BP d   1     -13.029 206.659 109.093  0.00  0.00     0.023 A 
ATOM      7  H4  5BP d   1     -15.022 206.018 109.620  0.00  0.00     0.089 H 
ATOM      8  H7  5BP d   1     -13.331 206.956 108.095  0.00  0.00     0.115 H 
ENDROOT
BRANCH   1   9
ATOM      9  C3  5BP d   1     -14.476 205.233 112.126  0.00  0.00     0.043 A 
ATOM     10  C4  5BP d   1     -14.358 205.301 113.497  0.00  0.00     0.093 A 
ATOM     11  C5  5BP d   1     -13.445 205.870 114.404  0.00  0.00    -0.051 A 
ATOM     12  N9  5BP d   1     -15.435 204.629 114.008  0.00  0.00    -0.151 N 
ATOM     13  C6  5BP d   1     -13.634 205.748 115.720  0.00  0.00    -0.062 A 
ATOM     14  H1  5BP d   1     -12.579 206.413 114.030  0.00  0.00     0.087 H 
ATOM     15  C7  5BP d   1     -14.839 204.986 116.098  0.00  0.00     0.024 A 
ATOM     16  H2  5BP d   1     -12.954 206.176 116.455  0.00  0.00     0.085 H 
ATOM     17  N8  5BP d   1     -15.711 204.442 115.308  0.00  0.00    -0.162 NA
ATOM     18  H3  5BP d   1     -15.017 204.866 117.166  0.00  0.00     0.117 H 
ATOM     19  N1  5BP d   1     -16.245 204.128 113.059  0.00  0.00    -0.161 NA
ATOM     20  C2  5BP d   1     -15.665 204.495 111.913  0.00  0.00     0.038 A 
ATOM     21  H6  5BP d   1     -16.061 204.254 110.928  0.00  0.00     0.119 H 
ENDBRANCH   1   9
BRANCH   4  22
ATOM     22  N16 5BP d   1     -10.085 206.609 111.034  0.00  0.00    -0.218 N 
ATOM     23  H8  5BP d   1      -9.312 206.192 110.495  0.00  0.00     0.178 HD
BRANCH  22  24
ATOM     24  C17 5BP d   1      -9.857 207.410 112.230  0.00  0.00     0.026 A 
ATOM     25  C18 5BP d   1      -9.216 206.808 113.442  0.00  0.00    -0.044 A 
ATOM     26  C19 5BP d   1      -8.476 207.823 112.628  0.00  0.00    -0.044 A 
ATOM     27  H9  5BP d   1      -8.898 205.755 113.430  0.00  0.00     0.036 H 
ATOM     28  H10 5BP d   1      -9.583 207.069 114.446  0.00  0.00     0.036 H 
ATOM     29  H11 5BP d   1      -8.299 208.830 113.034  0.00  0.00     0.036 H 
ATOM     30  H12 5BP d   1      -7.613 207.516 112.019  0.00  0.00     0.036 H 
ATOM     31  H5  5BP d   1     -10.690 208.118 112.350  0.00  0.00     0.073 H 
ENDBRANCH  22  24
ENDBRANCH   4  22
TORSDOF 3
