REMARK  7 active torsions:
REMARK  status: ('A' for Active; 'I' for Inactive)
REMARK    1  A    between atoms: CAR_3  and  CAO_4 
REMARK    2  A    between atoms: CAQ_9  and  CAK_10 
REMARK    3  A    between atoms: CAK_10  and  CAJ_11 
REMARK    4  A    between atoms: CAJ_11  and  CAL_12 
REMARK    5  A    between atoms: CAL_12  and  CAT_13 
REMARK    6  A    between atoms: CAS_14  and  OAE_15 
REMARK    7  A    between atoms: CAP_17  and  NAA_18 
ROOT
ATOM      1  CAJ EJ5 d   1      -0.859   5.901   4.290  0.00  0.00    -0.057 C 
ATOM      2  H7  EJ5 d   1       0.156   6.312   4.182  0.00  0.00     0.033 H 
ATOM      3  H8  EJ5 d   1      -1.069   5.220   3.452  0.00  0.00     0.033 H 
ENDROOT
BRANCH   1   4
ATOM      4  CAK EJ5 d   1      -1.880   7.061   4.268  0.00  0.00    -0.041 C 
ATOM      5  H5  EJ5 d   1      -2.009   7.409   3.232  0.00  0.00     0.040 H 
ATOM      6  H6  EJ5 d   1      -2.844   6.701   4.656  0.00  0.00     0.040 H 
BRANCH   4   7
ATOM      7  CAQ EJ5 d   1      -1.389   8.238   5.142  0.00  0.00    -0.058 A 
ATOM      8  CAF EJ5 d   1      -2.067   9.453   5.168  0.00  0.00    -0.076 A 
ATOM      9  CAH EJ5 d   1      -1.594  10.504   5.971  0.00  0.00    -0.066 A 
ATOM     10  H1  EJ5 d   1      -2.960   9.588   4.569  0.00  0.00     0.084 H 
ATOM     11  CAR EJ5 d   1      -0.438  10.347   6.759  0.00  0.00     0.040 A 
ATOM     12  H2  EJ5 d   1      -2.126  11.448   5.984  0.00  0.00     0.085 H 
ATOM     13  CAI EJ5 d   1       0.233   9.128   6.728  0.00  0.00    -0.066 A 
ATOM     14  CAG EJ5 d   1      -0.237   8.098   5.923  0.00  0.00    -0.076 A 
ATOM     15  H3  EJ5 d   1       1.122   8.982   7.332  0.00  0.00     0.085 H 
ATOM     16  H4  EJ5 d   1       0.304   7.159   5.899  0.00  0.00     0.084 H 
BRANCH  11  17
ATOM     17  CAO EJ5 d   1       0.129  11.479   7.657  0.00  0.00     0.209 C 
ATOM     18  OAD EJ5 d   1       0.258  11.249   8.890  0.00  0.00    -0.644 OA
ATOM     19  OAB EJ5 d   1       0.448  12.562   7.100  0.00  0.00    -0.644 OA
ENDBRANCH  11  17
ENDBRANCH   4   7
ENDBRANCH   1   4
BRANCH   1  20
ATOM     20  CAL EJ5 d   1      -0.948   5.107   5.627  0.00  0.00    -0.031 C 
ATOM     21  H9  EJ5 d   1      -1.490   4.176   5.405  0.00  0.00     0.040 H 
ATOM     22  H10 EJ5 d   1      -1.543   5.721   6.319  0.00  0.00     0.040 H 
BRANCH  20  23
ATOM     23  CAT EJ5 d   1       0.343   4.698   6.393  0.00  0.00     0.062 A 
ATOM     24  CAS EJ5 d   1       0.286   4.032   7.649  0.00  0.00     0.167 A 
ATOM     25  NAM EJ5 d   1       1.356   3.638   8.353  0.00  0.00    -0.170 N 
ATOM     26  CAP EJ5 d   1       2.583   3.856   7.898  0.00  0.00     0.680 A 
ATOM     27  H12 EJ5 d   1       1.224   3.161   9.256  0.00  0.00     0.186 HD
ATOM     28  NAN EJ5 d   1       2.733   4.509   6.648  0.00  0.00    -0.156 N 
ATOM     29  CAU EJ5 d   1       1.629   4.929   5.898  0.00  0.00     0.270 A 
ATOM     30  H15 EJ5 d   1       3.653   4.674   6.293  0.00  0.00     0.187 HD
ATOM     31  OAC EJ5 d   1       1.826   5.498   4.813  0.00  0.00    -0.267 OA
BRANCH  24  32
ATOM     32  OAE EJ5 d   1      -0.876   3.715   8.249  0.00  0.00    -0.345 OA
ATOM     33  H11 EJ5 d   1      -1.600   4.015   7.712  0.00  0.00     0.219 HD
ENDBRANCH  24  32
BRANCH  26  34
ATOM     34  NAA EJ5 d   1       3.617   3.445   8.641  0.00  0.00    -0.234 N 
ATOM     35  H13 EJ5 d   1       4.581   3.601   8.313  0.00  0.00     0.174 HD
ATOM     36  H14 EJ5 d   1       3.449   2.973   9.541  0.00  0.00     0.174 HD
ENDBRANCH  26  34
ENDBRANCH  20  23
ENDBRANCH   1  20
TORSDOF 7
