REMARK  10 active torsions:
REMARK  status: ('A' for Active; 'I' for Inactive)
REMARK    1  A    between atoms: O8_1  and  C8_2 
REMARK    2  A    between atoms: C2_6  and  O2_7 
REMARK    3  A    between atoms: C1_8  and  O1_9 
REMARK    4  A    between atoms: C5_12  and  C9_13 
REMARK    5  A    between atoms: C9_13  and  C10_14 
REMARK    6  A    between atoms: C10_14  and  C11_15 
REMARK    7  A    between atoms: C14_18  and  C17_19 
REMARK    8  A    between atoms: C17_19  and  C20_20 
REMARK    9  A    between atoms: C17_19  and  C19_21 
REMARK   10  A    between atoms: C17_19  and  C18_22 
ROOT
ATOM      1  C9  HN5 d   1      28.691  67.058   8.887  0.00  0.00    -0.035 C 
ATOM      2  H16 HN5 d   1      27.760  67.103   8.303  0.00  0.00     0.036 H 
ATOM      3  H17 HN5 d   1      29.248  67.999   8.763  0.00  0.00     0.036 H 
ENDROOT
BRANCH   1   4
ATOM      4  C5  HN5 d   1      29.561  65.908   8.312  0.00  0.00     0.105 C 
ATOM      5  N4  HN5 d   1      31.042  66.086   8.486  0.00  0.00    -0.055 N 
ATOM      6  C8A HN5 d   1      31.610  67.237   7.755  0.00  0.00     0.155 C 
ATOM      7  C3  HN5 d   1      31.526  66.278   9.877  0.00  0.00     0.110 C 
ATOM      8  H4  HN5 d   1      31.464  65.244   8.126  0.00  0.00     0.281 HD
ATOM      9  C8  HN5 d   1      31.345  67.101   6.258  0.00  0.00     0.066 C 
ATOM     10  C1  HN5 d   1      33.067  67.296   8.200  0.00  0.00     0.092 C 
ATOM     11  H3  HN5 d   1      31.115  68.162   8.086  0.00  0.00     0.093 H 
ATOM     12  C7  HN5 d   1      29.847  66.821   5.995  0.00  0.00    -0.037 C 
ATOM     13  H2  HN5 d   1      31.940  66.263   5.866  0.00  0.00     0.086 H 
ATOM     14  C6  HN5 d   1      29.286  65.658   6.828  0.00  0.00    -0.036 C 
ATOM     15  H11 HN5 d   1      29.720  66.579   4.929  0.00  0.00     0.036 H 
ATOM     16  H12 HN5 d   1      29.275  67.729   6.236  0.00  0.00     0.036 H 
ATOM     17  H13 HN5 d   1      29.770  64.720   6.519  0.00  0.00     0.036 H 
ATOM     18  H14 HN5 d   1      28.201  65.581   6.665  0.00  0.00     0.036 H 
ATOM     19  C2  HN5 d   1      32.978  66.810   9.664  0.00  0.00     0.085 C 
ATOM     20  H9  HN5 d   1      33.423  68.337   8.182  0.00  0.00     0.090 H 
ATOM     21  H7  HN5 d   1      33.194  67.639  10.354  0.00  0.00     0.089 H 
ATOM     22  H5  HN5 d   1      31.529  65.328  10.431  0.00  0.00     0.080 H 
ATOM     23  H6  HN5 d   1      30.909  67.013  10.414  0.00  0.00     0.080 H 
ATOM     24  H15 HN5 d   1      29.276  64.999   8.863  0.00  0.00     0.084 H 
BRANCH   9  25
ATOM     25  O8  HN5 d   1      31.727  68.307   5.580  0.00  0.00    -0.393 OA
ATOM     26  H1  HN5 d   1      32.653  68.468   5.721  0.00  0.00     0.210 HD
ENDBRANCH   9  25
BRANCH  10  27
ATOM     27  O1  HN5 d   1      33.948  66.520   7.337  0.00  0.00    -0.391 OA
ATOM     28  H10 HN5 d   1      34.832  66.546   7.684  0.00  0.00     0.210 HD
ENDBRANCH  10  27
BRANCH  19  29
ATOM     29  O2  HN5 d   1      33.882  65.742   9.892  0.00  0.00    -0.391 OA
ATOM     30  H8  HN5 d   1      34.772  66.050   9.766  0.00  0.00     0.210 HD
ENDBRANCH  19  29
ENDBRANCH   1   4
BRANCH   1  31
ATOM     31  C10 HN5 d   1      28.310  66.923  10.379  0.00  0.00    -0.039 C 
ATOM     32  H18 HN5 d   1      29.226  67.010  10.981  0.00  0.00     0.040 H 
ATOM     33  H19 HN5 d   1      27.861  65.931  10.535  0.00  0.00     0.040 H 
BRANCH  31  34
ATOM     34  C11 HN5 d   1      27.315  67.985  10.855  0.00  0.00    -0.058 A 
ATOM     35  C16 HN5 d   1      27.710  68.805  11.908  0.00  0.00    -0.076 A 
ATOM     36  C15 HN5 d   1      26.831  69.787  12.416  0.00  0.00    -0.076 A 
ATOM     37  H20 HN5 d   1      28.697  68.689  12.340  0.00  0.00     0.084 H 
ATOM     38  C14 HN5 d   1      25.561  69.988  11.847  0.00  0.00    -0.051 A 
ATOM     39  H21 HN5 d   1      27.140  70.395  13.258  0.00  0.00     0.084 H 
ATOM     40  C13 HN5 d   1      25.074  69.110  10.710  0.00  0.00    -0.076 A 
ATOM     41  C12 HN5 d   1      26.056  68.101  10.260  0.00  0.00    -0.076 A 
ATOM     42  H31 HN5 d   1      24.091  69.214  10.266  0.00  0.00     0.084 H 
ATOM     43  H32 HN5 d   1      25.793  67.434   9.447  0.00  0.00     0.084 H 
BRANCH  38  44
ATOM     44  C17 HN5 d   1      24.622  71.049  12.404  0.00  0.00    -0.024 C 
BRANCH  44  45
ATOM     45  C20 HN5 d   1      24.011  71.866  11.270  0.00  0.00    -0.066 C 
ATOM     46  H22 HN5 d   1      23.336  72.627  11.689  0.00  0.00     0.028 H 
ATOM     47  H23 HN5 d   1      23.444  71.200  10.603  0.00  0.00     0.028 H 
ATOM     48  H24 HN5 d   1      24.812  72.360  10.701  0.00  0.00     0.028 H 
ENDBRANCH  44  45
BRANCH  44  49
ATOM     49  C19 HN5 d   1      25.314  71.966  13.399  0.00  0.00    -0.066 C 
ATOM     50  H25 HN5 d   1      25.750  71.365  14.210  0.00  0.00     0.028 H 
ATOM     51  H26 HN5 d   1      24.582  72.672  13.818  0.00  0.00     0.028 H 
ATOM     52  H27 HN5 d   1      26.112  72.526  12.889  0.00  0.00     0.028 H 
ENDBRANCH  44  49
BRANCH  44  53
ATOM     53  C18 HN5 d   1      23.507  70.300  13.122  0.00  0.00    -0.066 C 
ATOM     54  H28 HN5 d   1      22.998  69.632  12.412  0.00  0.00     0.028 H 
ATOM     55  H29 HN5 d   1      22.784  71.022  13.530  0.00  0.00     0.028 H 
ATOM     56  H30 HN5 d   1      23.934  69.705  13.943  0.00  0.00     0.028 H 
ENDBRANCH  44  53
ENDBRANCH  38  44
ENDBRANCH  31  34
ENDBRANCH   1  31
TORSDOF 10
