REMARK  10 active torsions:
REMARK  status: ('A' for Active; 'I' for Inactive)
REMARK    1  A    between atoms: O8_1  and  C8_2 
REMARK    2  A    between atoms: C2_6  and  O2_7 
REMARK    3  A    between atoms: C1_8  and  O1_9 
REMARK    4  A    between atoms: C5_12  and  C9_13 
REMARK    5  A    between atoms: C9_13  and  C10_14 
REMARK    6  A    between atoms: C10_14  and  C11_15 
REMARK    7  A    between atoms: C14_18  and  C17_19 
REMARK    8  A    between atoms: C17_19  and  C20_20 
REMARK    9  A    between atoms: C17_19  and  C19_21 
REMARK   10  A    between atoms: C17_19  and  C18_22 
ROOT
ATOM      1  C9  HN6 d   1      28.900  64.982   9.454  0.00  0.00    -0.035 C 
ATOM      2  H16 HN6 d   1      29.216  65.261  10.470  0.00  0.00     0.036 H 
ATOM      3  H17 HN6 d   1      29.339  64.010   9.187  0.00  0.00     0.036 H 
ENDROOT
BRANCH   1   4
ATOM      4  C5  HN6 d   1      29.470  66.034   8.483  0.00  0.00     0.105 C 
ATOM      5  N4  HN6 d   1      30.967  66.077   8.561  0.00  0.00    -0.055 N 
ATOM      6  C8A HN6 d   1      31.540  67.186   7.746  0.00  0.00     0.155 C 
ATOM      7  C3  HN6 d   1      31.531  66.336   9.910  0.00  0.00     0.110 C 
ATOM      8  H4  HN6 d   1      31.311  65.192   8.224  0.00  0.00     0.281 HD
ATOM      9  C8  HN6 d   1      31.218  66.984   6.262  0.00  0.00     0.066 C 
ATOM     10  C1  HN6 d   1      33.006  67.279   8.152  0.00  0.00     0.092 C 
ATOM     11  H3  HN6 d   1      31.058  68.129   8.042  0.00  0.00     0.093 H 
ATOM     12  C7  HN6 d   1      29.698  66.821   6.082  0.00  0.00    -0.037 C 
ATOM     13  H2  HN6 d   1      31.732  66.085   5.891  0.00  0.00     0.086 H 
ATOM     14  C6  HN6 d   1      29.096  65.758   7.017  0.00  0.00    -0.036 C 
ATOM     15  H11 HN6 d   1      29.497  66.527   5.041  0.00  0.00     0.036 H 
ATOM     16  H12 HN6 d   1      29.214  67.787   6.290  0.00  0.00     0.036 H 
ATOM     17  H13 HN6 d   1      29.479  64.768   6.729  0.00  0.00     0.036 H 
ATOM     18  H14 HN6 d   1      28.001  65.771   6.917  0.00  0.00     0.036 H 
ATOM     19  C2  HN6 d   1      32.987  66.781   9.616  0.00  0.00     0.085 C 
ATOM     20  H9  HN6 d   1      33.356  68.320   8.098  0.00  0.00     0.090 H 
ATOM     21  H7  HN6 d   1      33.273  67.606  10.285  0.00  0.00     0.089 H 
ATOM     22  H5  HN6 d   1      31.515  65.424  10.524  0.00  0.00     0.080 H 
ATOM     23  H6  HN6 d   1      30.973  67.133  10.423  0.00  0.00     0.080 H 
ATOM     24  H15 HN6 d   1      29.066  67.016   8.771  0.00  0.00     0.084 H 
BRANCH   9  25
ATOM     25  O8  HN6 d   1      31.662  68.128   5.531  0.00  0.00    -0.393 OA
ATOM     26  H1  HN6 d   1      32.599  68.231   5.645  0.00  0.00     0.210 HD
ENDBRANCH   9  25
BRANCH  10  27
ATOM     27  O1  HN6 d   1      33.865  66.451   7.328  0.00  0.00    -0.391 OA
ATOM     28  H10 HN6 d   1      34.751  66.478   7.670  0.00  0.00     0.210 HD
ENDBRANCH  10  27
BRANCH  19  29
ATOM     29  O2  HN6 d   1      33.876  65.669   9.845  0.00  0.00    -0.391 OA
ATOM     30  H8  HN6 d   1      34.770  65.937   9.666  0.00  0.00     0.210 HD
ENDBRANCH  19  29
ENDBRANCH   1   4
BRANCH   1  31
ATOM     31  C10 HN6 d   1      27.375  64.814   9.471  0.00  0.00    -0.039 C 
ATOM     32  H18 HN6 d   1      27.134  63.870   9.981  0.00  0.00     0.040 H 
ATOM     33  H19 HN6 d   1      27.017  64.772   8.432  0.00  0.00     0.040 H 
BRANCH  31  34
ATOM     34  C11 HN6 d   1      26.652  65.943  10.183  0.00  0.00    -0.058 A 
ATOM     35  C16 HN6 d   1      26.778  66.143  11.564  0.00  0.00    -0.076 A 
ATOM     36  C15 HN6 d   1      26.088  67.191  12.189  0.00  0.00    -0.076 A 
ATOM     37  H20 HN6 d   1      27.410  65.486  12.150  0.00  0.00     0.084 H 
ATOM     38  C14 HN6 d   1      25.241  68.056  11.482  0.00  0.00    -0.051 A 
ATOM     39  H21 HN6 d   1      26.214  67.338  13.256  0.00  0.00     0.084 H 
ATOM     40  C13 HN6 d   1      25.061  67.860   9.995  0.00  0.00    -0.076 A 
ATOM     41  C12 HN6 d   1      25.821  66.754   9.422  0.00  0.00    -0.076 A 
ATOM     42  H31 HN6 d   1      24.415  68.494   9.398  0.00  0.00     0.084 H 
ATOM     43  H32 HN6 d   1      25.733  66.558   8.360  0.00  0.00     0.084 H 
BRANCH  38  44
ATOM     44  C17 HN6 d   1      24.499  69.199  12.157  0.00  0.00    -0.024 C 
BRANCH  44  45
ATOM     45  C20 HN6 d   1      24.913  70.521  11.507  0.00  0.00    -0.066 C 
ATOM     46  H22 HN6 d   1      24.379  71.351  11.992  0.00  0.00     0.028 H 
ATOM     47  H23 HN6 d   1      24.661  70.498  10.437  0.00  0.00     0.028 H 
ATOM     48  H24 HN6 d   1      25.997  70.664  11.625  0.00  0.00     0.028 H 
ENDBRANCH  44  45
BRANCH  44  49
ATOM     49  C19 HN6 d   1      24.830  69.284  13.647  0.00  0.00    -0.066 C 
ATOM     50  H25 HN6 d   1      24.542  68.344  14.141  0.00  0.00     0.028 H 
ATOM     51  H26 HN6 d   1      24.276  70.120  14.099  0.00  0.00     0.028 H 
ATOM     52  H27 HN6 d   1      25.910  69.449  13.774  0.00  0.00     0.028 H 
ENDBRANCH  44  49
BRANCH  44  53
ATOM     53  C18 HN6 d   1      22.993  69.009  11.988  0.00  0.00    -0.066 C 
ATOM     54  H28 HN6 d   1      22.749  68.947  10.917  0.00  0.00     0.028 H 
ATOM     55  H29 HN6 d   1      22.463  69.863  12.436  0.00  0.00     0.028 H 
ATOM     56  H30 HN6 d   1      22.682  68.080  12.489  0.00  0.00     0.028 H 
ENDBRANCH  44  53
ENDBRANCH  38  44
ENDBRANCH  31  34
ENDBRANCH   1  31
TORSDOF 10
