REMARK  10 active torsions:
REMARK  status: ('A' for Active; 'I' for Inactive)
REMARK    1  A    between atoms: C10_2  and  C11_3 
REMARK    2  A    between atoms: C10_2  and  C9_13 
REMARK    3  A    between atoms: C14_6  and  C17_7 
REMARK    4  A    between atoms: C17_7  and  C18_8 
REMARK    5  A    between atoms: C17_7  and  C19_9 
REMARK    6  A    between atoms: C17_7  and  C20_10 
REMARK    7  A    between atoms: C9_13  and  C5_14 
REMARK    8  A    between atoms: C8_17  and  O8_18 
REMARK    9  A    between atoms: C2_21  and  O2_22 
REMARK   10  A    between atoms: C1_23  and  O1_24 
ROOT
ATOM      1  C9  HN7 d   1      28.695  65.535   9.351  0.00  0.00     0.022 C 
ATOM      2  H14 HN7 d   1      28.895  64.468   9.175  0.00  0.00     0.048 H 
ATOM      3  H15 HN7 d   1      29.009  65.804  10.370  0.00  0.00     0.048 H 
ENDROOT
BRANCH   1   4
ATOM      4  C10 HN7 d   1      27.211  65.811   9.185  0.00  0.00     0.161 C 
ATOM      5  O10 HN7 d   1      26.592  65.070   8.445  0.00  0.00    -0.292 OA
BRANCH   4   6
ATOM      6  C11 HN7 d   1      26.465  66.934   9.880  0.00  0.00     0.010 A 
ATOM      7  C12 HN7 d   1      25.073  67.025   9.701  0.00  0.00    -0.069 A 
ATOM      8  C13 HN7 d   1      24.325  68.030  10.316  0.00  0.00    -0.075 A 
ATOM      9  H1  HN7 d   1      24.570  66.299   9.072  0.00  0.00     0.085 H 
ATOM     10  C14 HN7 d   1      24.935  68.975  11.141  0.00  0.00    -0.051 A 
ATOM     11  H2  HN7 d   1      23.255  68.077  10.150  0.00  0.00     0.084 H 
ATOM     12  C15 HN7 d   1      26.330  68.890  11.330  0.00  0.00    -0.075 A 
ATOM     13  C16 HN7 d   1      27.095  67.878  10.708  0.00  0.00    -0.069 A 
ATOM     14  H12 HN7 d   1      26.825  69.616  11.965  0.00  0.00     0.084 H 
ATOM     15  H13 HN7 d   1      28.166  67.830  10.869  0.00  0.00     0.085 H 
BRANCH  10  16
ATOM     16  C17 HN7 d   1      24.093  70.049  11.823  0.00  0.00    -0.024 C 
BRANCH  16  17
ATOM     17  C18 HN7 d   1      22.606  69.889  11.490  0.00  0.00    -0.066 C 
ATOM     18  H3  HN7 d   1      22.030  70.677  11.997  0.00  0.00     0.028 H 
ATOM     19  H4  HN7 d   1      22.258  68.903  11.832  0.00  0.00     0.028 H 
ATOM     20  H5  HN7 d   1      22.463  69.972  10.402  0.00  0.00     0.028 H 
ENDBRANCH  16  17
BRANCH  16  21
ATOM     21  C19 HN7 d   1      24.218  69.902  13.342  0.00  0.00    -0.066 C 
ATOM     22  H6  HN7 d   1      25.273  70.009  13.635  0.00  0.00     0.028 H 
ATOM     23  H7  HN7 d   1      23.852  68.910  13.646  0.00  0.00     0.028 H 
ATOM     24  H8  HN7 d   1      23.619  70.681  13.836  0.00  0.00     0.028 H 
ENDBRANCH  16  21
BRANCH  16  25
ATOM     25  C20 HN7 d   1      24.518  71.447  11.384  0.00  0.00    -0.066 C 
ATOM     26  H9  HN7 d   1      24.422  71.533  10.292  0.00  0.00     0.028 H 
ATOM     27  H10 HN7 d   1      25.565  71.620  11.675  0.00  0.00     0.028 H 
ATOM     28  H11 HN7 d   1      23.874  72.195  11.869  0.00  0.00     0.028 H 
ENDBRANCH  16  25
ENDBRANCH  10  16
ENDBRANCH   4   6
ENDBRANCH   1   4
BRANCH   1  29
ATOM     29  C5  HN7 d   1      29.472  66.380   8.331  0.00  0.00     0.111 C 
ATOM     30  C6  HN7 d   1      29.112  66.084   6.861  0.00  0.00    -0.035 C 
ATOM     31  C7  HN7 d   1      29.775  67.132   5.953  0.00  0.00    -0.037 C 
ATOM     32  H17 HN7 d   1      28.020  66.127   6.735  0.00  0.00     0.036 H 
ATOM     33  H18 HN7 d   1      29.474  65.081   6.589  0.00  0.00     0.036 H 
ATOM     34  C8  HN7 d   1      31.289  67.257   6.162  0.00  0.00     0.066 C 
ATOM     35  H19 HN7 d   1      29.314  68.110   6.157  0.00  0.00     0.036 H 
ATOM     36  H20 HN7 d   1      29.591  66.851   4.906  0.00  0.00     0.036 H 
ATOM     37  C8A HN7 d   1      31.588  67.423   7.654  0.00  0.00     0.155 C 
ATOM     38  H21 HN7 d   1      31.785  66.349   5.788  0.00  0.00     0.086 H 
ATOM     39  N4  HN7 d   1      30.963  66.310   8.436  0.00  0.00    -0.055 N 
ATOM     40  C1  HN7 d   1      33.053  67.431   8.079  0.00  0.00     0.092 C 
ATOM     41  H30 HN7 d   1      31.142  68.380   7.964  0.00  0.00     0.093 H 
ATOM     42  C3  HN7 d   1      31.513  66.494   9.804  0.00  0.00     0.110 C 
ATOM     43  H23 HN7 d   1      31.260  65.417   8.075  0.00  0.00     0.281 HD
ATOM     44  C2  HN7 d   1      32.975  66.930   9.536  0.00  0.00     0.085 C 
ATOM     45  H24 HN7 d   1      31.479  65.554  10.374  0.00  0.00     0.080 H 
ATOM     46  H25 HN7 d   1      30.962  67.274  10.350  0.00  0.00     0.080 H 
ATOM     47  H26 HN7 d   1      33.235  67.763  10.205  0.00  0.00     0.089 H 
ATOM     48  H28 HN7 d   1      33.456  68.454   8.044  0.00  0.00     0.090 H 
ATOM     49  H16 HN7 d   1      29.185  67.423   8.533  0.00  0.00     0.085 H 
BRANCH  34  50
ATOM     50  O8  HN7 d   1      31.783  68.398   5.450  0.00  0.00    -0.393 OA
ATOM     51  H22 HN7 d   1      32.721  68.471   5.583  0.00  0.00     0.210 HD
ENDBRANCH  34  50
BRANCH  44  52
ATOM     52  O2  HN7 d   1      33.859  65.839   9.819  0.00  0.00    -0.391 OA
ATOM     53  H27 HN7 d   1      34.755  66.108   9.654  0.00  0.00     0.210 HD
ENDBRANCH  44  52
BRANCH  40  54
ATOM     54  O1  HN7 d   1      33.883  66.584   7.251  0.00  0.00    -0.391 OA
ATOM     55  H29 HN7 d   1      34.765  66.565   7.604  0.00  0.00     0.210 HD
ENDBRANCH  40  54
ENDBRANCH   1  29
TORSDOF 10
