REMARK  6 active torsions:
REMARK  status: ('A' for Active; 'I' for Inactive)
REMARK    1  A    between atoms: C2_2  and  O2_8 
REMARK    2  A    between atoms: C3_3  and  O3_9 
REMARK    3  A    between atoms: C4_4  and  C5_5 
REMARK    4  A    between atoms: C5_5  and  C6_6 
REMARK    5  A    between atoms: C5_5  and  O5_11 
REMARK    6  A    between atoms: C6_6  and  O6_12 
ROOT
ATOM      1  C1  ASC d   1      16.968  -1.380  37.330  0.00  0.00     0.320 C 
ATOM      2  C2  ASC d   1      16.705  -2.643  36.718  0.00  0.00     0.173 C 
ATOM      3  C3  ASC d   1      15.837  -2.402  35.737  0.00  0.00     0.114 C 
ATOM      4  C4  ASC d   1      15.518  -0.907  35.625  0.00  0.00     0.123 C 
ATOM      5  O1  ASC d   1      17.485  -1.255  38.442  0.00  0.00    -0.257 OA
ATOM      6  O4  ASC d   1      16.501  -0.268  36.483  0.00  0.00    -0.301 OA
ATOM      7  H1  ASC d   1      15.624  -0.586  34.578  0.00  0.00     0.099 H 
ENDROOT
BRANCH   4   8
ATOM      8  C5  ASC d   1      14.150  -0.469  36.149  0.00  0.00     0.087 C 
ATOM      9  H2  ASC d   1      13.344  -0.843  35.500  0.00  0.00     0.090 H 
BRANCH   8  10
ATOM     10  C6  ASC d   1      14.160   1.074  36.153  0.00  0.00     0.043 C 
ATOM     11  H3  ASC d   1      13.800   1.446  35.182  0.00  0.00     0.078 H 
ATOM     12  H4  ASC d   1      15.185   1.434  36.327  0.00  0.00     0.078 H 
BRANCH  10  13
ATOM     13  O6  ASC d   1      13.165   1.629  37.363  0.00  0.00    -0.398 OA
ATOM     14  H8  ASC d   1      13.477   1.307  38.201  0.00  0.00     0.209 HD
ENDBRANCH  10  13
ENDBRANCH   8  10
BRANCH   8  15
ATOM     15  O5  ASC d   1      13.987  -0.989  37.480  0.00  0.00    -0.390 OA
ATOM     16  H7  ASC d   1      13.164  -0.680  37.841  0.00  0.00     0.210 HD
ENDBRANCH   8  15
ENDBRANCH   4   8
BRANCH   3  17
ATOM     17  O3  ASC d   1      15.306  -3.333  34.947  0.00  0.00    -0.359 OA
ATOM     18  H6  ASC d   1      15.643  -4.186  35.194  0.00  0.00     0.217 HD
ENDBRANCH   3  17
BRANCH   2  19
ATOM     19  O2  ASC d   1      17.245  -3.794  37.122  0.00  0.00    -0.353 OA
ATOM     20  H5  ASC d   1      17.831  -3.629  37.852  0.00  0.00     0.218 HD
ENDBRANCH   2  19
TORSDOF 6
