REMARK  11 active torsions:
REMARK  status: ('A' for Active; 'I' for Inactive)
REMARK    1  A    between atoms: C1_1  and  O1_2 
REMARK    2  A    between atoms: O1_2  and  C2_3 
REMARK    3  A    between atoms: C4_5  and  N7_30 
REMARK    4  A    between atoms: C7_8  and  N1_9 
REMARK    5  A    between atoms: N1_9  and  C8_10 
REMARK    6  A    between atoms: C9_12  and  N3_13 
REMARK    7  A    between atoms: N3_13  and  C10_14 
REMARK    8  A    between atoms: C15_20  and  C16_21 
REMARK       I    between atoms: C16_21  and  N4_23 
REMARK    9  A    between atoms: N8_33  and  C25_36 
REMARK   10  A    between atoms: C25_36  and  C26_37 
REMARK   11  A    between atoms: C25_36  and  C27_38 
ROOT
ATOM      1  C2  GS3 d   1       2.162  19.955  20.796  0.00  0.00     0.097 A 
ATOM      2  C3  GS3 d   1       1.938  20.089  22.150  0.00  0.00    -0.028 A 
ATOM      3  C4  GS3 d   1       2.977  20.393  23.006  0.00  0.00     0.013 A 
ATOM      4  C5  GS3 d   1       4.239  20.537  22.459  0.00  0.00    -0.060 A 
ATOM      5  C6  GS3 d   1       4.471  20.387  21.108  0.00  0.00    -0.052 A 
ATOM      6  C7  GS3 d   1       3.424  20.098  20.255  0.00  0.00     0.082 A 
ATOM      7  H4  GS3 d   1       0.938  19.954  22.545  0.00  0.00     0.090 H 
ATOM      8  H5  GS3 d   1       5.071  20.775  23.112  0.00  0.00     0.086 H 
ATOM      9  H6  GS3 d   1       5.476  20.496  20.715  0.00  0.00     0.087 H 
ENDROOT
BRANCH   6  10
ATOM     10  N1  GS3 d   1       3.546  19.938  18.854  0.00  0.00    -0.185 N 
ATOM     11  H7  GS3 d   1       2.757  19.466  18.389  0.00  0.00     0.184 HD
BRANCH  10  12
ATOM     12  C8  GS3 d   1       4.596  20.336  18.013  0.00  0.00     0.731 A 
ATOM     13  N2  GS3 d   1       5.563  21.119  18.505  0.00  0.00    -0.044 NA
ATOM     14  C9  GS3 d   1       6.587  21.497  17.727  0.00  0.00     0.161 A 
ATOM     15  C17 GS3 d   1       6.600  21.056  16.415  0.00  0.00     0.058 A 
ATOM     16  C18 GS3 d   1       7.466  21.228  15.305  0.00  0.00    -0.051 A 
ATOM     17  C20 GS3 d   1       5.561  20.259  16.001  0.00  0.00     0.160 A 
ATOM     18  C19 GS3 d   1       6.924  20.533  14.252  0.00  0.00    -0.020 A 
ATOM     19  H14 GS3 d   1       8.390  21.805  15.290  0.00  0.00     0.087 H 
ATOM     20  N5  GS3 d   1       5.770  19.949  14.684  0.00  0.00    -0.349 N 
ATOM     21  H15 GS3 d   1       7.342  20.461  13.249  0.00  0.00     0.111 H 
ATOM     22  H16 GS3 d   1       5.150  19.363  14.107  0.00  0.00     0.166 HD
ATOM     23  N6  GS3 d   1       4.536  19.865  16.757  0.00  0.00    -0.044 NA
BRANCH  14  24
ATOM     24  N3  GS3 d   1       7.638  22.317  18.172  0.00  0.00    -0.339 N 
ATOM     25  H8  GS3 d   1       8.345  22.584  17.472  0.00  0.00     0.167 HD
BRANCH  24  26
ATOM     26  C10 GS3 d   1       7.822  22.810  19.474  0.00  0.00     0.052 A 
ATOM     27  C11 GS3 d   1       6.766  23.165  20.289  0.00  0.00    -0.056 A 
ATOM     28  C12 GS3 d   1       6.993  23.653  21.557  0.00  0.00    -0.078 A 
ATOM     29  H9  GS3 d   1       5.749  23.059  19.928  0.00  0.00     0.086 H 
ATOM     30  C13 GS3 d   1       8.276  23.799  22.041  0.00  0.00    -0.044 A 
ATOM     31  H10 GS3 d   1       6.151  23.926  22.183  0.00  0.00     0.083 H 
ATOM     32  C14 GS3 d   1       9.338  23.452  21.234  0.00  0.00     0.134 A 
ATOM     33  H11 GS3 d   1       8.447  24.181  23.041  0.00  0.00     0.088 H 
ATOM     34  F1  GS3 d   1      10.618  23.578  21.659  0.00  0.00    -0.205 F 
ATOM     35  C15 GS3 d   1       9.101  22.968  19.966  0.00  0.00     0.097 A 
BRANCH  35  36
ATOM     36  C16 GS3 d   1      10.274  22.607  19.156  0.00  0.00     0.254 C 
ATOM     37  O2  GS3 d   1      10.376  22.948  17.988  0.00  0.00    -0.268 OA
ATOM     38  N4  GS3 d   1      11.190  21.869  19.861  0.00  0.00    -0.366 N 
ATOM     39  H12 GS3 d   1      12.033  21.562  19.418  0.00  0.00     0.159 HD
ATOM     40  H13 GS3 d   1      11.015  21.637  20.818  0.00  0.00     0.159 HD
ENDBRANCH  35  36
ENDBRANCH  24  26
ENDBRANCH  14  24
ENDBRANCH  10  12
ENDBRANCH   6  10
BRANCH   1  41
ATOM     41  O1  GS3 d   1       1.132  19.669  19.898  0.00  0.00    -0.354 OA
BRANCH  41  42
ATOM     42  C1  GS3 d   1      -0.116  19.872  20.551  0.00  0.00     0.010 C 
ATOM     43  H1  GS3 d   1      -0.936  19.649  19.852  0.00  0.00     0.066 H 
ATOM     44  H2  GS3 d   1      -0.191  20.918  20.882  0.00  0.00     0.066 H 
ATOM     45  H3  GS3 d   1      -0.186  19.205  21.423  0.00  0.00     0.066 H 
ENDBRANCH  41  42
ENDBRANCH   1  41
BRANCH   3  46
ATOM     46  N7  GS3 d   1       2.747  20.531  24.395  0.00  0.00    -0.280 NA
ATOM     47  C21 GS3 d   1       3.997  20.454  25.127  0.00  0.00     0.006 C 
ATOM     48  C22 GS3 d   1       3.658  20.165  26.566  0.00  0.00     0.095 C 
ATOM     49  H17 GS3 d   1       4.536  21.410  25.052  0.00  0.00     0.058 H 
ATOM     50  H18 GS3 d   1       4.623  19.647  24.719  0.00  0.00     0.058 H 
ATOM     51  N8  GS3 d   1       2.842  21.304  27.063  0.00  0.00    -0.065 N 
ATOM     52  H19 GS3 d   1       4.580  20.075  27.160  0.00  0.00     0.077 H 
ATOM     53  H20 GS3 d   1       3.083  19.230  26.637  0.00  0.00     0.077 H 
ATOM     54  C23 GS3 d   1       1.621  21.586  26.231  0.00  0.00     0.095 C 
ATOM     55  H21 GS3 d   1       3.423  22.119  26.948  0.00  0.00     0.280 HD
ATOM     56  C24 GS3 d   1       1.985  21.725  24.759  0.00  0.00     0.006 C 
ATOM     57  H22 GS3 d   1       1.158  22.522  26.577  0.00  0.00     0.077 H 
ATOM     58  H23 GS3 d   1       0.906  20.758  26.348  0.00  0.00     0.077 H 
ATOM     59  H24 GS3 d   1       1.073  21.792  24.148  0.00  0.00     0.058 H 
ATOM     60  H25 GS3 d   1       2.597  22.626  24.604  0.00  0.00     0.058 H 
BRANCH  51  61
ATOM     61  C25 GS3 d   1       2.596  21.203  28.541  0.00  0.00     0.097 C 
ATOM     62  H26 GS3 d   1       2.136  20.236  28.792  0.00  0.00     0.083 H 
BRANCH  61  63
ATOM     63  C26 GS3 d   1       3.910  21.389  29.275  0.00  0.00    -0.050 C 
ATOM     64  H27 GS3 d   1       3.738  21.316  30.359  0.00  0.00     0.030 H 
ATOM     65  H28 GS3 d   1       4.327  22.378  29.035  0.00  0.00     0.030 H 
ATOM     66  H29 GS3 d   1       4.618  20.607  28.963  0.00  0.00     0.030 H 
ENDBRANCH  61  63
BRANCH  61  67
ATOM     67  C27 GS3 d   1       1.714  22.351  28.962  0.00  0.00    -0.050 C 
ATOM     68  H30 GS3 d   1       1.525  22.290  30.044  0.00  0.00     0.030 H 
ATOM     69  H31 GS3 d   1       0.759  22.298  28.419  0.00  0.00     0.030 H 
ATOM     70  H32 GS3 d   1       2.215  23.302  28.730  0.00  0.00     0.030 H 
ENDBRANCH  61  67
ENDBRANCH  51  61
ENDBRANCH   3  46
TORSDOF 11
