REMARK  17 active torsions:
REMARK  status: ('A' for Active; 'I' for Inactive)
REMARK    1  A    between atoms: C_1  and  C2_4 
REMARK       I    between atoms: N_13  and  C_1 
REMARK    2  A    between atoms: CA_14  and  N_13 
REMARK    3  A    between atoms: C1_15  and  CA_14 
REMARK    4  A    between atoms: CA_14  and  CB_17 
REMARK       I    between atoms: N2_24  and  C1_15 
REMARK    5  A    between atoms: CB_17  and  CG_18 
REMARK       I    between atoms: CG_18  and  ND2_20 
REMARK    6  A    between atoms: C9_21  and  O2_22 
REMARK    7  A    between atoms: CA1_23  and  C9_21 
REMARK    8  A    between atoms: C9_21  and  CM_33 
REMARK    9  A    between atoms: CA1_23  and  N2_24 
REMARK   10  A    between atoms: CA1_23  and  CB1_25 
REMARK   11  A    between atoms: CB1_25  and  CG1_26 
REMARK   12  A    between atoms: CM_33  and  N11_32 
REMARK   13  A    between atoms: C21_34  and  CC_35 
REMARK       I    between atoms: CC_35  and  N3_45 
REMARK   14  A    between atoms: N3_45  and  CD_46 
REMARK   15  A    between atoms: CD_46  and  C11_47 
REMARK   16  A    between atoms: CD_46  and  C22_48 
REMARK   17  A    between atoms: CD_46  and  C32_49 
ROOT
ATOM      1  CA1 ROC d   1      19.994   0.243  16.833  0.00  0.00     0.042 C 
ATOM      2  H   ROC d   1      20.076  -0.707  17.362  0.00  0.00     0.077 H 
ENDROOT
BRANCH   1   3
ATOM      3  C9  ROC d   1      20.336   0.047  15.380  0.00  0.00     0.081 C 
ATOM      4  H   ROC d   1      21.402  -0.169  15.451  0.00  0.00     0.088 H 
BRANCH   3   5
ATOM      5  O2  ROC d   1      20.389   1.146  14.611  0.00  0.00    -0.392 OA
ATOM      6  H   ROC d   1      20.614   0.896  13.712  0.00  0.00     0.210 HD
ENDBRANCH   3   5
BRANCH   3   7
ATOM      7  CM  ROC d   1      19.903  -1.101  14.802  0.00  0.00     0.140 C 
ATOM      8  H   ROC d   1      20.009  -0.925  13.732  0.00  0.00     0.084 H 
ATOM      9  H   ROC d   1      18.914  -1.266  15.229  0.00  0.00     0.084 H 
BRANCH   7  10
ATOM     10  N11 ROC d   1      20.604  -2.324  15.036  0.00  0.00     0.105 N 
ATOM     11  C21 ROC d   1      19.779  -3.523  14.815  0.00  0.00     0.211 C 
ATOM     12  C31 ROC d   1      20.580  -4.780  15.178  0.00  0.00    -0.024 C 
ATOM     13  H   ROC d   1      19.500  -3.523  13.761  0.00  0.00     0.103 H 
ATOM     14  C3A ROC d   1      21.850  -4.881  14.339  0.00  0.00    -0.047 C 
ATOM     15  H   ROC d   1      19.962  -5.657  14.983  0.00  0.00     0.037 H 
ATOM     16  H   ROC d   1      20.860  -4.724  16.230  0.00  0.00     0.037 H 
ATOM     17  C41 ROC d   1      22.674  -6.124  14.687  0.00  0.00    -0.061 C 
ATOM     18  C7A ROC d   1      22.685  -3.613  14.476  0.00  0.00    -0.025 C 
ATOM     19  H   ROC d   1      21.546  -4.985  13.297  0.00  0.00     0.040 H 
ATOM     20  C51 ROC d   1      23.371  -6.008  16.041  0.00  0.00    -0.065 C 
ATOM     21  H   ROC d   1      23.443  -6.241  13.923  0.00  0.00     0.033 H 
ATOM     22  H   ROC d   1      21.994  -6.975  14.732  0.00  0.00     0.033 H 
ATOM     23  C61 ROC d   1      24.209  -4.740  16.136  0.00  0.00    -0.065 C 
ATOM     24  H   ROC d   1      24.032  -6.866  16.162  0.00  0.00     0.033 H 
ATOM     25  H   ROC d   1      22.608  -5.974  16.819  0.00  0.00     0.033 H 
ATOM     26  C71 ROC d   1      23.344  -3.514  15.849  0.00  0.00    -0.060 C 
ATOM     27  H   ROC d   1      25.014  -4.788  15.403  0.00  0.00     0.033 H 
ATOM     28  H   ROC d   1      24.621  -4.659  17.142  0.00  0.00     0.033 H 
ATOM     29  H   ROC d   1      23.979  -2.628  15.867  0.00  0.00     0.033 H 
ATOM     30  H   ROC d   1      22.563  -3.454  16.607  0.00  0.00     0.033 H 
ATOM     31  C81 ROC d   1      21.839  -2.381  14.214  0.00  0.00     0.118 C 
ATOM     32  H   ROC d   1      23.476  -3.666  13.728  0.00  0.00     0.043 H 
ATOM     33  H   ROC d   1      22.442  -1.510  14.469  0.00  0.00     0.080 H 
ATOM     34  H   ROC d   1      21.535  -2.409  13.168  0.00  0.00     0.080 H 
BRANCH  11  35
ATOM     35  CC  ROC d   1      18.527  -3.516  15.643  0.00  0.00     0.252 C 
ATOM     36  O3  ROC d   1      18.608  -3.218  16.835  0.00  0.00    -0.271 OA
ATOM     37  N3  ROC d   1      17.429  -3.905  14.958  0.00  0.00    -0.351 N 
ATOM     38  H   ROC d   1      17.569  -4.112  13.969  0.00  0.00     0.163 HD
BRANCH  37  39
ATOM     39  CD  ROC d   1      16.067  -4.065  15.458  0.00  0.00     0.022 C 
BRANCH  39  40
ATOM     40  C11 ROC d   1      15.222  -4.662  14.333  0.00  0.00    -0.054 C 
ATOM     41  H   ROC d   1      15.234  -3.989  13.475  0.00  0.00     0.030 H 
ATOM     42  H   ROC d   1      15.635  -5.628  14.044  0.00  0.00     0.030 H 
ATOM     43  H   ROC d   1      14.197  -4.793  14.680  0.00  0.00     0.030 H 
ENDBRANCH  39  40
BRANCH  39  44
ATOM     44  C22 ROC d   1      16.046  -4.999  16.671  0.00  0.00    -0.054 C 
ATOM     45  H   ROC d   1      16.434  -5.976  16.383  0.00  0.00     0.030 H 
ATOM     46  H   ROC d   1      16.667  -4.579  17.462  0.00  0.00     0.030 H 
ATOM     47  H   ROC d   1      15.022  -5.105  17.029  0.00  0.00     0.030 H 
ENDBRANCH  39  44
BRANCH  39  48
ATOM     48  C32 ROC d   1      15.497  -2.692  15.813  0.00  0.00    -0.054 C 
ATOM     49  H   ROC d   1      16.117  -2.230  16.581  0.00  0.00     0.030 H 
ATOM     50  H   ROC d   1      15.489  -2.062  14.923  0.00  0.00     0.030 H 
ATOM     51  H   ROC d   1      14.480  -2.808  16.187  0.00  0.00     0.030 H 
ENDBRANCH  39  48
ENDBRANCH  37  39
ENDBRANCH  11  35
ENDBRANCH   7  10
ENDBRANCH   3   7
ENDBRANCH   1   3
BRANCH   1  52
ATOM     52  N2  ROC d   1      20.932   1.106  17.539  0.00  0.00    -0.352 N 
ATOM     53  C1  ROC d   1      21.638   0.764  18.638  0.00  0.00     0.241 C 
ATOM     54  O1  ROC d   1      21.599  -0.306  19.213  0.00  0.00    -0.271 OA
ATOM     55  H   ROC d   1      21.067   2.048  17.172  0.00  0.00     0.163 HD
BRANCH  53  56
ATOM     56  CA  ROC d   1      22.565   1.833  19.129  0.00  0.00     0.097 C 
ATOM     57  H   ROC d   1      22.951   2.239  18.194  0.00  0.00     0.088 H 
BRANCH  56  58
ATOM     58  N   ROC d   1      21.856   2.841  19.878  0.00  0.00    -0.342 N 
ATOM     59  C   ROC d   1      21.345   3.992  20.302  0.00  0.00     0.271 C 
ATOM     60  O   ROC d   1      21.677   4.942  19.597  0.00  0.00    -0.266 OA
ATOM     61  H   ROC d   1      21.469   2.236  20.602  0.00  0.00     0.163 HD
BRANCH  59  62
ATOM     62  C2  ROC d   1      20.450   4.194  21.500  0.00  0.00     0.125 A 
ATOM     63  N1  ROC d   1      20.057   3.185  22.314  0.00  0.00    -0.243 NA
ATOM     64  C8A ROC d   1      19.261   3.403  23.392  0.00  0.00     0.068 A 
ATOM     65  C8  ROC d   1      18.875   2.348  24.219  0.00  0.00    -0.054 A 
ATOM     66  C4A ROC d   1      18.816   4.687  23.691  0.00  0.00    -0.007 A 
ATOM     67  C7  ROC d   1      18.061   2.571  25.329  0.00  0.00    -0.081 A 
ATOM     68  H   ROC d   1      19.214   1.337  23.995  0.00  0.00     0.087 H 
ATOM     69  C6  ROC d   1      17.614   3.859  25.612  0.00  0.00    -0.082 A 
ATOM     70  H   ROC d   1      17.775   1.740  25.973  0.00  0.00     0.083 H 
ATOM     71  C5  ROC d   1      17.996   4.917  24.793  0.00  0.00    -0.071 A 
ATOM     72  H   ROC d   1      16.968   4.038  26.471  0.00  0.00     0.083 H 
ATOM     73  H   ROC d   1      17.653   5.928  25.014  0.00  0.00     0.084 H 
ATOM     74  C4  ROC d   1      19.203   5.740  22.871  0.00  0.00    -0.068 A 
ATOM     75  C3  ROC d   1      20.022   5.489  21.775  0.00  0.00    -0.049 A 
ATOM     76  H   ROC d   1      18.867   6.755  23.085  0.00  0.00     0.085 H 
ATOM     77  H   ROC d   1      20.330   6.311  21.128  0.00  0.00     0.087 H 
ENDBRANCH  59  62
ENDBRANCH  56  58
BRANCH  56  78
ATOM     78  CB  ROC d   1      23.839   1.411  19.860  0.00  0.00     0.036 C 
ATOM     79  H   ROC d   1      24.382   0.655  19.293  0.00  0.00     0.051 H 
ATOM     80  H   ROC d   1      23.605   0.965  20.826  0.00  0.00     0.051 H 
BRANCH  78  81
ATOM     81  CG  ROC d   1      24.676   2.669  20.030  0.00  0.00     0.217 C 
ATOM     82  OD1 ROC d   1      25.043   3.312  19.066  0.00  0.00    -0.274 OA
ATOM     83  ND2 ROC d   1      24.954   3.052  21.269  0.00  0.00    -0.370 N 
ATOM     84  H   ROC d   1      25.488   3.905  21.431  0.00  0.00     0.159 HD
ATOM     85  H   ROC d   1      24.633   2.493  22.060  0.00  0.00     0.159 HD
ENDBRANCH  78  81
ENDBRANCH  56  78
ENDBRANCH  53  56
ENDBRANCH   1  52
BRANCH   1  86
ATOM     86  CB1 ROC d   1      18.543   0.768  16.885  0.00  0.00    -0.020 C 
ATOM     87  H   ROC d   1      17.897  -0.077  16.648  0.00  0.00     0.043 H 
ATOM     88  H   ROC d   1      18.489   1.605  16.189  0.00  0.00     0.043 H 
BRANCH  86  89
ATOM     89  CG1 ROC d   1      18.094   1.292  18.227  0.00  0.00    -0.056 A 
ATOM     90  CD1 ROC d   1      17.876   0.439  19.305  0.00  0.00    -0.077 A 
ATOM     91  CE1 ROC d   1      17.445   0.953  20.528  0.00  0.00    -0.082 A 
ATOM     92  H   ROC d   1      18.042  -0.632  19.193  0.00  0.00     0.084 H 
ATOM     93  CZ  ROC d   1      17.235   2.318  20.677  0.00  0.00    -0.083 A 
ATOM     94  H   ROC d   1      17.273   0.282  21.369  0.00  0.00     0.083 H 
ATOM     95  CE2 ROC d   1      17.455   3.177  19.603  0.00  0.00    -0.082 A 
ATOM     96  H   ROC d   1      16.898   2.717  21.634  0.00  0.00     0.083 H 
ATOM     97  CD2 ROC d   1      17.880   2.660  18.382  0.00  0.00    -0.077 A 
ATOM     98  H   ROC d   1      17.295   4.249  19.718  0.00  0.00     0.083 H 
ATOM     99  H   ROC d   1      18.047   3.332  17.540  0.00  0.00     0.084 H 
ENDBRANCH  86  89
ENDBRANCH   1  86
TORSDOF 17
