REMARK  11 active torsions:
REMARK  status: ('A' for Active; 'I' for Inactive)
REMARK    1  A    between atoms: C5_2  and  C11_16 
REMARK    2  A    between atoms: C10_13  and  C3_4 
REMARK    3  A    between atoms: C6_6  and  C12_17 
REMARK    4  A    between atoms: C24_12  and  C10_13 
REMARK    5  A    between atoms: C7_18  and  O7_19 
REMARK    6  A    between atoms: C16_24  and  C22_25 
REMARK    7  A    between atoms: C18_28  and  O18_29 
REMARK    8  A    between atoms: C18_28  and  C23_30 
REMARK    9  A    between atoms: C21_33  and  O21_34 
REMARK   10  A    between atoms: O21_34  and  C30_35 
REMARK   11  A    between atoms: C30_35  and  C31_36 
ROOT
ATOM      1  C1  CY9 d   1     159.753 -16.491  31.326  0.00  0.00     0.231 A 
ATOM      2  C5  CY9 d   1     157.034 -14.931  29.815  0.00  0.00    -0.027 C 
ATOM      3  C4  CY9 d   1     157.572 -16.273  30.319  0.00  0.00    -0.008 A 
ATOM      4  C3  CY9 d   1     158.616 -16.842  29.353  0.00  0.00     0.021 A 
ATOM      5  O1  CY9 d   1     160.691 -16.375  32.115  0.00  0.00    -0.273 OA
ATOM      6  C6  CY9 d   1     158.175 -13.918  29.891  0.00  0.00    -0.056 C 
ATOM      7  N2  CY9 d   1     159.906 -16.864  30.059  0.00  0.00    -0.355 N 
ATOM      8  C9  CY9 d   1     158.300 -16.149  31.663  0.00  0.00     0.086 A 
ATOM      9  C7  CY9 d   1     158.818 -13.703  31.260  0.00  0.00     0.065 C 
ATOM     10  C8  CY9 d   1     158.228 -14.727  32.233  0.00  0.00     0.010 C 
ATOM     11  C13 CY9 d   1     158.994 -14.587  33.552  0.00  0.00    -0.099 C 
ATOM     12  C14 CY9 d   1     158.396 -13.960  34.639  0.00  0.00    -0.105 C 
ATOM     13  C15 CY9 d   1     159.079 -13.806  35.842  0.00  0.00    -0.041 C 
ATOM     14  C16 CY9 d   1     158.853 -14.953  36.828  0.00  0.00     0.007 C 
ATOM     15  C17 CY9 d   1     159.625 -16.201  36.392  0.00  0.00     0.168 C 
ATOM     16  O17 CY9 d   1     160.852 -16.180  36.305  0.00  0.00    -0.294 OA
ATOM     17  C18 CY9 d   1     158.854 -17.485  36.085  0.00  0.00     0.132 C 
ATOM     18  C19 CY9 d   1     158.021 -17.236  35.000  0.00  0.00    -0.065 C 
ATOM     19  C20 CY9 d   1     158.493 -17.435  33.708  0.00  0.00    -0.074 C 
ATOM     20  C21 CY9 d   1     157.679 -17.182  32.609  0.00  0.00     0.081 C 
ATOM     21  H1  CY9 d   1     156.211 -14.603  30.467  0.00  0.00     0.047 H 
ATOM     22  H2  CY9 d   1     156.729 -16.973  30.418  0.00  0.00     0.046 H 
ATOM     23  H3  CY9 d   1     158.684 -16.202  28.461  0.00  0.00     0.073 H 
ATOM     24  H11 CY9 d   1     160.778 -17.124  29.643  0.00  0.00     0.162 HD
ATOM     25  H17 CY9 d   1     159.909 -13.830  31.194  0.00  0.00     0.091 H 
ATOM     26  H19 CY9 d   1     157.169 -14.485  32.410  0.00  0.00     0.052 H 
ATOM     27  H20 CY9 d   1     160.007 -14.979  33.638  0.00  0.00     0.077 H 
ATOM     28  H21 CY9 d   1     157.378 -13.584  34.548  0.00  0.00     0.076 H 
ATOM     29  H22 CY9 d   1     158.744 -12.871  36.314  0.00  0.00     0.040 H 
ATOM     30  H23 CY9 d   1     160.155 -13.742  35.625  0.00  0.00     0.040 H 
ATOM     31  H24 CY9 d   1     157.779 -15.189  36.849  0.00  0.00     0.051 H 
ATOM     32  H32 CY9 d   1     157.002 -16.886  35.162  0.00  0.00     0.081 H 
ATOM     33  H33 CY9 d   1     159.510 -17.793  33.555  0.00  0.00     0.080 H 
ATOM     34  H34 CY9 d   1     157.544 -18.123  32.056  0.00  0.00     0.092 H 
ENDROOT
BRANCH   4  35
ATOM     35  C10 CY9 d   1     158.255 -18.267  28.929  0.00  0.00    -0.022 C 
ATOM     36  H9  CY9 d   1     158.034 -18.845  29.839  0.00  0.00     0.043 H 
ATOM     37  H10 CY9 d   1     159.130 -18.701  28.423  0.00  0.00     0.043 H 
BRANCH  35  38
ATOM     38  C24 CY9 d   1     157.057 -18.395  27.988  0.00  0.00    -0.056 A 
ATOM     39  C25 CY9 d   1     157.191 -18.037  26.650  0.00  0.00    -0.077 A 
ATOM     40  C26 CY9 d   1     156.120 -18.190  25.778  0.00  0.00    -0.082 A 
ATOM     41  H4  CY9 d   1     158.132 -17.638  26.288  0.00  0.00     0.084 H 
ATOM     42  C27 CY9 d   1     154.914 -18.700  26.246  0.00  0.00    -0.083 A 
ATOM     43  H5  CY9 d   1     156.224 -17.912  24.735  0.00  0.00     0.083 H 
ATOM     44  C28 CY9 d   1     154.778 -19.055  27.583  0.00  0.00    -0.082 A 
ATOM     45  H6  CY9 d   1     154.078 -18.821  25.567  0.00  0.00     0.083 H 
ATOM     46  C29 CY9 d   1     155.849 -18.902  28.456  0.00  0.00    -0.077 A 
ATOM     47  H7  CY9 d   1     153.836 -19.451  27.945  0.00  0.00     0.083 H 
ATOM     48  H8  CY9 d   1     155.743 -19.177  29.499  0.00  0.00     0.084 H 
ENDBRANCH  35  38
ENDBRANCH   4  35
BRANCH   2  49
ATOM     49  C11 CY9 d   1     156.508 -15.041  28.382  0.00  0.00    -0.069 C 
ATOM     50  H12 CY9 d   1     156.131 -14.061  28.054  0.00  0.00     0.028 H 
ATOM     51  H13 CY9 d   1     155.693 -15.779  28.346  0.00  0.00     0.028 H 
ATOM     52  H14 CY9 d   1     157.322 -15.362  27.716  0.00  0.00     0.028 H 
ENDBRANCH   2  49
BRANCH   6  53
ATOM     53  C12 CY9 d   1     158.653 -13.253  28.768  0.00  0.00    -0.116 C 
ATOM     54  H15 CY9 d   1     159.469 -12.538  28.865  0.00  0.00     0.067 H 
ATOM     55  H16 CY9 d   1     158.212 -13.447  27.791  0.00  0.00     0.067 H 
ENDBRANCH   6  53
BRANCH  20  56
ATOM     56  O21 CY9 d   1     156.395 -16.712  33.043  0.00  0.00    -0.311 OA
BRANCH  56  57
ATOM     57  C30 CY9 d   1     155.426 -17.638  32.813  0.00  0.00     0.255 C 
ATOM     58  O30 CY9 d   1     155.708 -18.726  32.313  0.00  0.00    -0.266 OA
BRANCH  57  59
ATOM     59  C31 CY9 d   1     154.103 -17.338  33.118  0.00  0.00     0.004 C 
ATOM     60  H35 CY9 d   1     153.465 -18.198  32.867  0.00  0.00     0.041 H 
ATOM     61  H36 CY9 d   1     153.782 -16.462  32.536  0.00  0.00     0.041 H 
ATOM     62  H37 CY9 d   1     154.015 -17.117  34.192  0.00  0.00     0.041 H 
ENDBRANCH  57  59
ENDBRANCH  56  57
ENDBRANCH  20  56
BRANCH   9  63
ATOM     63  O7  CY9 d   1     158.505 -12.381  31.706  0.00  0.00    -0.391 OA
ATOM     64  H18 CY9 d   1     157.562 -12.285  31.771  0.00  0.00     0.210 HD
ENDBRANCH   9  63
BRANCH  17  65
ATOM     65  O18 CY9 d   1     159.787 -18.520  35.761  0.00  0.00    -0.378 OA
ATOM     66  H28 CY9 d   1     160.369 -18.663  36.498  0.00  0.00     0.211 HD
ENDBRANCH  17  65
BRANCH  17  67
ATOM     67  C23 CY9 d   1     158.024 -17.874  37.310  0.00  0.00    -0.038 C 
ATOM     68  H29 CY9 d   1     157.466 -18.798  37.097  0.00  0.00     0.032 H 
ATOM     69  H30 CY9 d   1     157.317 -17.065  37.546  0.00  0.00     0.032 H 
ATOM     70  H31 CY9 d   1     158.692 -18.039  38.168  0.00  0.00     0.032 H 
ENDBRANCH  17  67
BRANCH  14  71
ATOM     71  C22 CY9 d   1     159.298 -14.554  38.237  0.00  0.00    -0.066 C 
ATOM     72  H25 CY9 d   1     159.126 -15.393  38.927  0.00  0.00     0.028 H 
ATOM     73  H26 CY9 d   1     158.719 -13.680  38.571  0.00  0.00     0.028 H 
ATOM     74  H27 CY9 d   1     160.369 -14.302  38.226  0.00  0.00     0.028 H 
ENDBRANCH  14  71
TORSDOF 11
