REMARK  27 active torsions:
REMARK  status: ('A' for Active; 'I' for Inactive)
REMARK    1  A    between atoms: CAA_1  and  OBI_2 
REMARK    2  A    between atoms: OBI_2  and  CBK_3 
REMARK       I    between atoms: CBK_3  and  N_5 
REMARK    3  A    between atoms: N_5  and  CA_6 
REMARK    4  A    between atoms: CA_6  and  CB_7 
REMARK    5  A    between atoms: CA_6  and  C_11 
REMARK    6  A    between atoms: CB_7  and  CAE_8 
REMARK    7  A    between atoms: CB_7  and  CG2_9 
REMARK    8  A    between atoms: CB_7  and  CG1_10 
REMARK       I    between atoms: C_11  and  NBG_13 
REMARK    9  A    between atoms: NBG_13  and  CBT_14 
REMARK   10  A    between atoms: CBT_14  and  CBA_15 
REMARK   11  A    between atoms: CBT_14  and  CBS_22 
REMARK   12  A    between atoms: CBA_15  and  CBO_16 
REMARK   13  A    between atoms: CBS_22  and  OAM_23 
REMARK   14  A    between atoms: CBS_22  and  CBC_24 
REMARK   15  A    between atoms: CBC_24  and  NBW_25 
REMARK   16  A    between atoms: NBW_25  and  NBH_26 
REMARK   17  A    between atoms: NBW_25  and  CBB_39 
REMARK       I    between atoms: NBH_26  and  CBN_27 
REMARK   18  A    between atoms: CBN_27  and  CBV_29 
REMARK   19  A    between atoms: CBV_29  and  CBY_30 
REMARK   20  A    between atoms: CBV_29  and  NBF_34 
REMARK   21  A    between atoms: CBY_30  and  CAH_31 
REMARK   22  A    between atoms: CBY_30  and  CAF_32 
REMARK   23  A    between atoms: CBY_30  and  CAG_33 
REMARK       I    between atoms: NBF_34  and  CBL_35 
REMARK   24  A    between atoms: CBL_35  and  OBJ_37 
REMARK   25  A    between atoms: OBJ_37  and  CAB_38 
REMARK   26  A    between atoms: CBB_39  and  CBP_40 
REMARK   27  A    between atoms: CBQ_45  and  CBR_46 
ROOT
ATOM      1  NBW DR7 d   1      20.869  31.412  15.474  0.00  0.00     0.017 N 
ATOM      2  H28 DR7 d   1      20.704  31.507  14.484  0.00  0.00     0.309 HD
ENDROOT
BRANCH   1   3
ATOM      3  CBC DR7 d   1      20.970  29.999  15.832  0.00  0.00     0.130 C 
ATOM      4  H26 DR7 d   1      21.822  29.566  15.288  0.00  0.00     0.083 H 
ATOM      5  H27 DR7 d   1      21.152  29.930  16.915  0.00  0.00     0.083 H 
BRANCH   3   6
ATOM      6  CBS DR7 d   1      19.742  29.190  15.507  0.00  0.00     0.080 C 
ATOM      7  H24 DR7 d   1      18.846  29.716  15.870  0.00  0.00     0.088 H 
BRANCH   6   8
ATOM      8  CBT DR7 d   1      19.527  28.907  14.008  0.00  0.00     0.042 C 
ATOM      9  H16 DR7 d   1      19.519  29.867  13.472  0.00  0.00     0.077 H 
BRANCH   8  10
ATOM     10  NBG DR7 d   1      20.565  28.052  13.444  0.00  0.00    -0.352 N 
ATOM     11  C   DR7 d   1      21.288  28.343  12.356  0.00  0.00     0.241 C 
ATOM     12  O   DR7 d   1      21.116  29.387  11.742  0.00  0.00    -0.271 OA
ATOM     13  H15 DR7 d   1      20.750  27.184  13.904  0.00  0.00     0.163 HD
BRANCH  11  14
ATOM     14  CA  DR7 d   1      22.314  27.333  11.907  0.00  0.00     0.097 C 
ATOM     15  H5  DR7 d   1      22.404  26.583  12.707  0.00  0.00     0.088 H 
BRANCH  14  16
ATOM     16  N   DR7 d   1      21.805  26.666  10.720  0.00  0.00    -0.323 N 
ATOM     17  CBK DR7 d   1      21.596  25.358  10.648  0.00  0.00     0.360 C 
ATOM     18  OAI DR7 d   1      21.831  24.580  11.565  0.00  0.00    -0.239 OA
ATOM     19  H4  DR7 d   1      21.602  27.223   9.915  0.00  0.00     0.165 HD
BRANCH  17  20
ATOM     20  OBI DR7 d   1      21.081  24.853   9.390  0.00  0.00    -0.309 OA
BRANCH  20  21
ATOM     21  CAA DR7 d   1      20.734  23.475   9.232  0.00  0.00     0.015 C 
ATOM     22  H1  DR7 d   1      20.367  23.304   8.209  0.00  0.00     0.067 H 
ATOM     23  H2  DR7 d   1      19.947  23.210   9.953  0.00  0.00     0.067 H 
ATOM     24  H3  DR7 d   1      21.621  22.850   9.412  0.00  0.00     0.067 H 
ENDBRANCH  20  21
ENDBRANCH  17  20
ENDBRANCH  14  16
BRANCH  14  25
ATOM     25  CB  DR7 d   1      23.722  27.893  11.670  0.00  0.00    -0.022 C 
BRANCH  25  26
ATOM     26  CAE DR7 d   1      24.703  26.728  11.537  0.00  0.00    -0.067 C 
ATOM     27  H6  DR7 d   1      25.717  27.120  11.367  0.00  0.00     0.028 H 
ATOM     28  H7  DR7 d   1      24.407  26.095  10.688  0.00  0.00     0.028 H 
ATOM     29  H8  DR7 d   1      24.691  26.131  12.461  0.00  0.00     0.028 H 
ENDBRANCH  25  26
BRANCH  25  30
ATOM     30  CG2 DR7 d   1      23.819  28.763  10.417  0.00  0.00    -0.067 C 
ATOM     31  H9  DR7 d   1      23.117  29.606  10.501  0.00  0.00     0.028 H 
ATOM     32  H10 DR7 d   1      23.565  28.161   9.532  0.00  0.00     0.028 H 
ATOM     33  H11 DR7 d   1      24.844  29.148  10.317  0.00  0.00     0.028 H 
ENDBRANCH  25  30
BRANCH  25  34
ATOM     34  CG1 DR7 d   1      24.140  28.738  12.872  0.00  0.00    -0.067 C 
ATOM     35  H12 DR7 d   1      24.078  28.130  13.787  0.00  0.00     0.028 H 
ATOM     36  H13 DR7 d   1      23.469  29.605  12.961  0.00  0.00     0.028 H 
ATOM     37  H14 DR7 d   1      25.174  29.087  12.733  0.00  0.00     0.028 H 
ENDBRANCH  25  34
ENDBRANCH  14  25
ENDBRANCH  11  14
ENDBRANCH   8  10
BRANCH   8  38
ATOM     38  CBA DR7 d   1      18.201  28.183  13.783  0.00  0.00    -0.020 C 
ATOM     39  H17 DR7 d   1      17.381  28.856  14.074  0.00  0.00     0.043 H 
ATOM     40  H18 DR7 d   1      18.181  27.285  14.418  0.00  0.00     0.043 H 
BRANCH  38  41
ATOM     41  CBO DR7 d   1      17.989  27.759  12.341  0.00  0.00    -0.056 A 
ATOM     42  CAT DR7 d   1      17.446  28.640  11.415  0.00  0.00    -0.077 A 
ATOM     43  CAP DR7 d   1      17.249  28.237  10.099  0.00  0.00    -0.082 A 
ATOM     44  H19 DR7 d   1      17.175  29.645  11.719  0.00  0.00     0.084 H 
ATOM     45  CAN DR7 d   1      17.590  26.949   9.694  0.00  0.00    -0.083 A 
ATOM     46  H20 DR7 d   1      16.826  28.931   9.382  0.00  0.00     0.083 H 
ATOM     47  CAQ DR7 d   1      18.133  26.061  10.616  0.00  0.00    -0.082 A 
ATOM     48  H21 DR7 d   1      17.433  26.641   8.667  0.00  0.00     0.083 H 
ATOM     49  CAU DR7 d   1      18.321  26.471  11.937  0.00  0.00    -0.077 A 
ATOM     50  H22 DR7 d   1      18.408  25.058  10.311  0.00  0.00     0.083 H 
ATOM     51  H23 DR7 d   1      18.732  25.774  12.659  0.00  0.00     0.084 H 
ENDBRANCH  38  41
ENDBRANCH   8  38
ENDBRANCH   6   8
BRANCH   6  52
ATOM     52  OAM DR7 d   1      19.967  28.022  16.291  0.00  0.00    -0.392 OA
ATOM     53  H25 DR7 d   1      20.091  28.271  17.200  0.00  0.00     0.210 HD
ENDBRANCH   6  52
ENDBRANCH   3   6
ENDBRANCH   1   3
BRANCH   1  54
ATOM     54  NBH DR7 d   1      19.886  32.027  16.148  0.00  0.00    -0.184 N 
ATOM     55  CBN DR7 d   1      18.956  32.777  15.544  0.00  0.00     0.265 C 
ATOM     56  OAL DR7 d   1      18.932  32.927  14.333  0.00  0.00    -0.269 OA
ATOM     57  H29 DR7 d   1      19.846  31.921  17.142  0.00  0.00     0.197 HD
BRANCH  55  58
ATOM     58  CBV DR7 d   1      17.946  33.479  16.410  0.00  0.00     0.099 C 
ATOM     59  H30 DR7 d   1      17.962  33.007  17.404  0.00  0.00     0.088 H 
BRANCH  58  60
ATOM     60  CBY DR7 d   1      16.501  33.439  15.901  0.00  0.00    -0.022 C 
BRANCH  60  61
ATOM     61  CAH DR7 d   1      16.252  34.314  14.663  0.00  0.00    -0.067 C 
ATOM     62  H31 DR7 d   1      15.197  34.231  14.362  0.00  0.00     0.028 H 
ATOM     63  H32 DR7 d   1      16.897  33.975  13.839  0.00  0.00     0.028 H 
ATOM     64  H33 DR7 d   1      16.484  35.362  14.902  0.00  0.00     0.028 H 
ENDBRANCH  60  61
BRANCH  60  65
ATOM     65  CAF DR7 d   1      16.118  31.995  15.589  0.00  0.00    -0.067 C 
ATOM     66  H34 DR7 d   1      16.296  31.369  16.476  0.00  0.00     0.028 H 
ATOM     67  H35 DR7 d   1      16.728  31.627  14.751  0.00  0.00     0.028 H 
ATOM     68  H36 DR7 d   1      15.053  31.949  15.316  0.00  0.00     0.028 H 
ENDBRANCH  60  65
BRANCH  60  69
ATOM     69  CAG DR7 d   1      15.617  33.925  17.042  0.00  0.00    -0.067 C 
ATOM     70  H37 DR7 d   1      15.874  34.966  17.287  0.00  0.00     0.028 H 
ATOM     71  H38 DR7 d   1      15.777  33.290  17.926  0.00  0.00     0.028 H 
ATOM     72  H39 DR7 d   1      14.562  33.870  16.737  0.00  0.00     0.028 H 
ENDBRANCH  60  69
ENDBRANCH  58  60
BRANCH  58  73
ATOM     73  NBF DR7 d   1      18.379  34.866  16.528  0.00  0.00    -0.323 N 
ATOM     74  CBL DR7 d   1      18.572  35.453  17.696  0.00  0.00     0.360 C 
ATOM     75  OAJ DR7 d   1      18.414  34.885  18.783  0.00  0.00    -0.239 OA
ATOM     76  H40 DR7 d   1      18.536  35.393  15.693  0.00  0.00     0.165 HD
BRANCH  74  77
ATOM     77  OBJ DR7 d   1      19.003  36.836  17.657  0.00  0.00    -0.309 OA
BRANCH  77  78
ATOM     78  CAB DR7 d   1      19.170  37.588  18.850  0.00  0.00     0.015 C 
ATOM     79  H41 DR7 d   1      19.500  38.607  18.598  0.00  0.00     0.067 H 
ATOM     80  H42 DR7 d   1      19.926  37.104  19.485  0.00  0.00     0.067 H 
ATOM     81  H43 DR7 d   1      18.213  37.636  19.390  0.00  0.00     0.067 H 
ENDBRANCH  77  78
ENDBRANCH  74  77
ENDBRANCH  58  73
ENDBRANCH  55  58
ENDBRANCH   1  54
BRANCH   1  82
ATOM     82  CBB DR7 d   1      22.178  32.011  15.845  0.00  0.00     0.128 C 
ATOM     83  H44 DR7 d   1      22.927  31.701  15.102  0.00  0.00     0.086 H 
ATOM     84  H45 DR7 d   1      22.467  31.633  16.837  0.00  0.00     0.086 H 
BRANCH  82  85
ATOM     85  CBP DR7 d   1      22.150  33.528  15.897  0.00  0.00    -0.030 A 
ATOM     86  CAW DR7 d   1      22.287  34.297  14.738  0.00  0.00    -0.074 A 
ATOM     87  CAY DR7 d   1      22.255  35.691  14.813  0.00  0.00    -0.070 A 
ATOM     88  H46 DR7 d   1      22.418  33.810  13.778  0.00  0.00     0.084 H 
ATOM     89  CBQ DR7 d   1      22.080  36.340  16.038  0.00  0.00    -0.007 A 
ATOM     90  H47 DR7 d   1      22.367  36.278  13.909  0.00  0.00     0.084 H 
ATOM     91  CAZ DR7 d   1      21.950  35.568  17.190  0.00  0.00    -0.070 A 
ATOM     92  CAX DR7 d   1      21.985  34.175  17.119  0.00  0.00    -0.074 A 
ATOM     93  H49 DR7 d   1      21.820  36.054  18.150  0.00  0.00     0.084 H 
ATOM     94  H48 DR7 d   1      21.883  33.590  18.026  0.00  0.00     0.084 H 
BRANCH  89  95
ATOM     95  CBR DR7 d   1      22.034  37.841  16.125  0.00  0.00     0.066 A 
ATOM     96  CAV DR7 d   1      21.344  38.581  15.159  0.00  0.00    -0.054 A 
ATOM     97  CAR DR7 d   1      21.304  39.971  15.240  0.00  0.00    -0.079 A 
ATOM     98  H50 DR7 d   1      20.840  38.072  14.346  0.00  0.00     0.087 H 
ATOM     99  CAO DR7 d   1      21.946  40.614  16.295  0.00  0.00    -0.066 A 
ATOM    100  H51 DR7 d   1      20.777  40.547  14.488  0.00  0.00     0.083 H 
ATOM    101  CAS DR7 d   1      22.614  39.845  17.247  0.00  0.00     0.003 A 
ATOM    102  H52 DR7 d   1      21.927  41.695  16.375  0.00  0.00     0.085 H 
ATOM    103  NBD DR7 d   1      22.639  38.500  17.146  0.00  0.00    -0.260 NA
ATOM    104  H53 DR7 d   1      23.117  40.332  18.075  0.00  0.00     0.114 H 
ENDBRANCH  89  95
ENDBRANCH  82  85
ENDBRANCH   1  82
TORSDOF 27
