REMARK  15 active torsions:
REMARK  status: ('A' for Active; 'I' for Inactive)
REMARK    1  A    between atoms: N7_7  and  C18_18 
REMARK    2  A    between atoms: C8_8  and  C11_11 
REMARK       I    between atoms: C11_11  and  N12_12 
REMARK    3  A    between atoms: N12_12  and  C13_13 
REMARK    4  A    between atoms: C13_13  and  C14_14 
REMARK    5  A    between atoms: C13_13  and  C15_15 
REMARK    6  A    between atoms: C13_13  and  C16_16 
REMARK    7  A    between atoms: C18_18  and  C19_19 
REMARK    8  A    between atoms: C19_19  and  C20_20 
REMARK    9  A    between atoms: C19_19  and  O21_21 
REMARK   10  A    between atoms: C20_20  and  N22_22 
REMARK   11  A    between atoms: C20_20  and  C23_23 
REMARK       I    between atoms: N22_22  and  C24_24 
REMARK   12  A    between atoms: C23_23  and  S74_34 
REMARK   13  A    between atoms: C24_24  and  C29_26 
REMARK   14  A    between atoms: C34_31  and  C39_33 
REMARK   15  A    between atoms: S74_34  and  C77_35 
ROOT
ATOM      1  C18 1UN d   1      19.705  -1.294  14.945  0.00  0.00     0.140 C 
ATOM      2  H   1UN d   1      18.749  -1.403  15.457  0.00  0.00     0.084 H 
ATOM      3  H   1UN d   1      19.594  -1.160  13.869  0.00  0.00     0.084 H 
ENDROOT
BRANCH   1   4
ATOM      4  N7  1UN d   1      20.481  -2.526  15.170  0.00  0.00     0.105 N 
ATOM      5  C8  1UN d   1      19.554  -3.654  15.082  0.00  0.00     0.211 C 
ATOM      6  C9  1UN d   1      20.304  -4.976  15.111  0.00  0.00    -0.024 C 
ATOM      7  H   1UN d   1      19.007  -3.565  14.144  0.00  0.00     0.103 H 
ATOM      8  C2  1UN d   1      21.463  -5.069  14.125  0.00  0.00    -0.047 C 
ATOM      9  H   1UN d   1      20.727  -5.080  16.110  0.00  0.00     0.037 H 
ATOM     10  H   1UN d   1      19.590  -5.753  14.838  0.00  0.00     0.037 H 
ATOM     11  C1  1UN d   1      22.350  -3.835  14.251  0.00  0.00    -0.025 C 
ATOM     12  C3  1UN d   1      22.237  -6.367  14.327  0.00  0.00    -0.061 C 
ATOM     13  H   1UN d   1      21.074  -5.091  13.107  0.00  0.00     0.040 H 
ATOM     14  C6  1UN d   1      23.183  -3.842  15.534  0.00  0.00    -0.060 C 
ATOM     15  C10 1UN d   1      21.499  -2.573  14.122  0.00  0.00     0.118 C 
ATOM     16  H   1UN d   1      23.072  -3.850  13.435  0.00  0.00     0.043 H 
ATOM     17  C5  1UN d   1      23.990  -5.134  15.643  0.00  0.00    -0.065 C 
ATOM     18  H   1UN d   1      22.513  -3.770  16.391  0.00  0.00     0.033 H 
ATOM     19  H   1UN d   1      23.871  -2.997  15.514  0.00  0.00     0.033 H 
ATOM     20  C4  1UN d   1      23.071  -6.354  15.604  0.00  0.00    -0.065 C 
ATOM     21  H   1UN d   1      24.681  -5.188  14.802  0.00  0.00     0.033 H 
ATOM     22  H   1UN d   1      24.530  -5.132  16.590  0.00  0.00     0.033 H 
ATOM     23  H   1UN d   1      23.684  -7.255  15.632  0.00  0.00     0.033 H 
ATOM     24  H   1UN d   1      22.399  -6.314  16.461  0.00  0.00     0.033 H 
ATOM     25  H   1UN d   1      21.004  -2.580  13.151  0.00  0.00     0.080 H 
ATOM     26  H   1UN d   1      22.145  -1.701  14.220  0.00  0.00     0.080 H 
ATOM     27  H   1UN d   1      22.915  -6.490  13.483  0.00  0.00     0.033 H 
ATOM     28  H   1UN d   1      21.516  -7.181  14.403  0.00  0.00     0.033 H 
BRANCH   5  29
ATOM     29  C11 1UN d   1      18.609  -3.628  16.258  0.00  0.00     0.252 C 
ATOM     30  N12 1UN d   1      17.415  -4.157  16.061  0.00  0.00    -0.351 N 
ATOM     31  H   1UN d   1      17.326  -4.860  15.327  0.00  0.00     0.163 HD
ATOM     32  O17 1UN d   1      18.958  -3.152  17.326  0.00  0.00    -0.271 OA
BRANCH  30  33
ATOM     33  C13 1UN d   1      16.217  -3.813  16.812  0.00  0.00     0.022 C 
BRANCH  33  34
ATOM     34  C14 1UN d   1      15.436  -2.814  15.947  0.00  0.00    -0.054 C 
ATOM     35  H   1UN d   1      16.051  -1.933  15.767  0.00  0.00     0.030 H 
ATOM     36  H   1UN d   1      15.181  -3.281  14.996  0.00  0.00     0.030 H 
ATOM     37  H   1UN d   1      14.523  -2.522  16.466  0.00  0.00     0.030 H 
ENDBRANCH  33  34
BRANCH  33  38
ATOM     38  C15 1UN d   1      16.478  -3.194  18.196  0.00  0.00    -0.054 C 
ATOM     39  H   1UN d   1      17.041  -3.899  18.808  0.00  0.00     0.030 H 
ATOM     40  H   1UN d   1      17.051  -2.274  18.079  0.00  0.00     0.030 H 
ATOM     41  H   1UN d   1      15.526  -2.972  18.679  0.00  0.00     0.030 H 
ENDBRANCH  33  38
BRANCH  33  42
ATOM     42  C16 1UN d   1      15.442  -5.114  16.999  0.00  0.00    -0.054 C 
ATOM     43  H   1UN d   1      15.188  -5.527  16.023  0.00  0.00     0.030 H 
ATOM     44  H   1UN d   1      16.058  -5.827  17.548  0.00  0.00     0.030 H 
ATOM     45  H   1UN d   1      14.529  -4.914  17.559  0.00  0.00     0.030 H 
ENDBRANCH  33  42
ENDBRANCH  30  33
ENDBRANCH   5  29
ENDBRANCH   1   4
BRANCH   1  46
ATOM     46  C19 1UN d   1      20.396  -0.051  15.503  0.00  0.00     0.081 C 
ATOM     47  H   1UN d   1      21.463  -0.242  15.613  0.00  0.00     0.088 H 
BRANCH  46  48
ATOM     48  C20 1UN d   1      19.933   0.325  16.914  0.00  0.00     0.047 C 
ATOM     49  H   1UN d   1      19.936  -0.599  17.493  0.00  0.00     0.077 H 
BRANCH  48  50
ATOM     50  N22 1UN d   1      20.844   1.307  17.483  0.00  0.00    -0.349 N 
ATOM     51  C24 1UN d   1      21.605   1.070  18.543  0.00  0.00     0.248 C 
ATOM     52  O25 1UN d   1      21.715  -0.032  19.059  0.00  0.00    -0.268 OA
ATOM     53  H   1UN d   1      20.900   2.226  17.044  0.00  0.00     0.163 HD
BRANCH  51  54
ATOM     54  C29 1UN d   1      22.386   2.192  19.144  0.00  0.00     0.020 A 
ATOM     55  C30 1UN d   1      21.746   3.334  19.619  0.00  0.00    -0.071 A 
ATOM     56  C31 1UN d   1      22.461   4.382  20.202  0.00  0.00    -0.080 A 
ATOM     57  H   1UN d   1      20.662   3.412  19.534  0.00  0.00     0.084 H 
ATOM     58  C32 1UN d   1      23.849   4.333  20.341  0.00  0.00    -0.051 A 
ATOM     59  H   1UN d   1      21.922   5.260  20.557  0.00  0.00     0.083 H 
ATOM     60  C33 1UN d   1      24.560   3.234  19.880  0.00  0.00     0.093 A 
ATOM     61  H   1UN d   1      24.377   5.161  20.814  0.00  0.00     0.087 H 
ATOM     62  C34 1UN d   1      23.858   2.100  19.251  0.00  0.00     0.023 A 
ATOM     63  O38 1UN d   1      25.867   3.139  19.978  0.00  0.00    -0.196 OA
ATOM     64  H   1UN d   1      23.402   1.311  18.652  0.00  0.00     0.057 H 
BRANCH  62  65
ATOM     65  C39 1UN d   1      24.690   0.936  18.784  0.00  0.00    -0.063 C 
ATOM     66  H   1UN d   1      24.382   0.035  19.315  0.00  0.00     0.028 H 
ATOM     67  H   1UN d   1      24.546   0.795  17.713  0.00  0.00     0.028 H 
ATOM     68  H   1UN d   1      25.742   1.138  18.987  0.00  0.00     0.028 H 
ENDBRANCH  62  65
ENDBRANCH  51  54
ENDBRANCH  48  50
BRANCH  48  69
ATOM     69  C23 1UN d   1      18.514   0.880  16.964  0.00  0.00     0.003 C 
ATOM     70  H   1UN d   1      17.946   0.476  16.126  0.00  0.00     0.052 H 
ATOM     71  H   1UN d   1      18.557   1.968  16.907  0.00  0.00     0.052 H 
BRANCH  69  72
ATOM     72  S74 1UN d   1      17.721   0.415  18.473  0.00  0.00    -0.128 SA
BRANCH  72  73
ATOM     73  C77 1UN d   1      18.140   1.622  19.582  0.00  0.00     0.000 A 
ATOM     74  C78 1UN d   1      17.771   2.942  19.351  0.00  0.00    -0.067 A 
ATOM     75  C79 1UN d   1      18.090   3.933  20.285  0.00  0.00    -0.082 A 
ATOM     76  H   1UN d   1      17.232   3.205  18.441  0.00  0.00     0.085 H 
ATOM     77  C80 1UN d   1      18.801   3.595  21.437  0.00  0.00    -0.083 A 
ATOM     78  H   1UN d   1      17.784   4.965  20.114  0.00  0.00     0.083 H 
ATOM     79  C81 1UN d   1      19.186   2.269  21.658  0.00  0.00    -0.082 A 
ATOM     80  H   1UN d   1      19.056   4.365  22.165  0.00  0.00     0.083 H 
ATOM     81  C82 1UN d   1      18.851   1.283  20.735  0.00  0.00    -0.067 A 
ATOM     82  H   1UN d   1      19.749   2.007  22.554  0.00  0.00     0.083 H 
ATOM     83  H   1UN d   1      19.143   0.248  20.912  0.00  0.00     0.085 H 
ENDBRANCH  72  73
ENDBRANCH  69  72
ENDBRANCH  48  69
ENDBRANCH  46  48
BRANCH  46  84
ATOM     84  O21 1UN d   1      20.135   1.001  14.571  0.00  0.00    -0.392 OA
ATOM     85  H   1UN d   1      19.192   1.178  14.546  0.00  0.00     0.210 HD
ENDBRANCH  46  84
ENDBRANCH   1  46
TORSDOF 15
