REMARK  7 active torsions:
REMARK  status: ('A' for Active; 'I' for Inactive)
REMARK    1  A    between atoms: C6_3  and  NAA_14 
REMARK    2  A    between atoms: CBH_10  and  NBI_11 
REMARK    3  A    between atoms: CBE_15  and  CAS_16 
REMARK    4  A    between atoms: CAS_16  and  CAZ_17 
REMARK    5  A    between atoms: CBB_22  and  NAW_23 
REMARK       I    between atoms: NAW_23  and  CAY_24 
REMARK       I    between atoms: CAY_24  and  NAX_26 
REMARK    6  A    between atoms: NAX_26  and  CBC_27 
REMARK    7  A    between atoms: CBD_32  and  CBJ_33 
ROOT
ATOM      1  CAZ PD3 d   1      19.434  -6.525   7.509  0.00  0.00    -0.050 A 
ATOM      2  CAM PD3 d   1      18.284  -5.742   7.501  0.00  0.00    -0.051 A 
ATOM      3  CAH PD3 d   1      19.509  -7.668   6.723  0.00  0.00    -0.076 A 
ATOM      4  CAF PD3 d   1      18.432  -8.036   5.925  0.00  0.00    -0.080 A 
ATOM      5  CAI PD3 d   1      17.283  -7.254   5.923  0.00  0.00    -0.057 A 
ATOM      6  CBB PD3 d   1      17.203  -6.111   6.708  0.00  0.00     0.036 A 
ATOM      7  H15 PD3 d   1      18.231  -4.847   8.111  0.00  0.00     0.087 H 
ATOM      8  H16 PD3 d   1      20.408  -8.273   6.732  0.00  0.00     0.084 H 
ATOM      9  H17 PD3 d   1      18.488  -8.926   5.309  0.00  0.00     0.083 H 
ATOM     10  H18 PD3 d   1      16.441  -7.539   5.303  0.00  0.00     0.086 H 
ENDROOT
BRANCH   1  11
ATOM     11  CAS PD3 d   1      20.635  -6.146   8.379  0.00  0.00     0.002 C 
ATOM     12  H13 PD3 d   1      21.385  -5.637   7.756  0.00  0.00     0.049 H 
ATOM     13  H14 PD3 d   1      20.302  -5.468   9.178  0.00  0.00     0.049 H 
BRANCH  11  14
ATOM     14  CBE PD3 d   1      21.265  -7.391   9.007  0.00  0.00     0.077 A 
ATOM     15  C5  PD3 d   1      22.613  -7.731   9.017  0.00  0.00     0.084 A 
ATOM     16  C4  PD3 d   1      22.696  -8.903   9.752  0.00  0.00     0.163 A 
ATOM     17  C6  PD3 d   1      23.780  -7.183   8.505  0.00  0.00     0.138 A 
ATOM     18  N3  PD3 d   1      23.891  -9.475   9.953  0.00  0.00    -0.222 NA
ATOM     19  NBI PD3 d   1      21.446  -9.177  10.119  0.00  0.00    -0.246 N 
ATOM     20  C2  PD3 d   1      24.983  -8.921   9.450  0.00  0.00     0.091 A 
ATOM     21  N1  PD3 d   1      24.945  -7.806   8.741  0.00  0.00    -0.224 NA
ATOM     22  H10 PD3 d   1      25.941  -9.398   9.625  0.00  0.00     0.146 H 
ATOM     23  NAV PD3 d   1      20.642  -8.341   9.703  0.00  0.00    -0.174 NA
BRANCH  19  24
ATOM     24  CBH PD3 d   1      21.069 -10.337  10.939  0.00  0.00     0.036 C 
ATOM     25  CAQ PD3 d   1      21.182 -10.041  12.438  0.00  0.00    -0.044 C 
ATOM     26  CAO PD3 d   1      21.882 -11.272  13.021  0.00  0.00    -0.063 C 
ATOM     27  H1  PD3 d   1      21.781  -9.135  12.611  0.00  0.00     0.036 H 
ATOM     28  H2  PD3 d   1      20.185  -9.913  12.885  0.00  0.00     0.036 H 
ATOM     29  CAP PD3 d   1      21.628 -12.347  11.963  0.00  0.00    -0.063 C 
ATOM     30  H3  PD3 d   1      21.441 -11.557  13.988  0.00  0.00     0.033 H 
ATOM     31  H4  PD3 d   1      22.959 -11.090  13.149  0.00  0.00     0.033 H 
ATOM     32  CAR PD3 d   1      21.984 -11.542  10.714  0.00  0.00    -0.044 C 
ATOM     33  H5  PD3 d   1      20.579 -12.678  11.955  0.00  0.00     0.033 H 
ATOM     34  H6  PD3 d   1      22.287 -13.218  12.094  0.00  0.00     0.033 H 
ATOM     35  H7  PD3 d   1      21.734 -12.083   9.789  0.00  0.00     0.036 H 
ATOM     36  H8  PD3 d   1      23.046 -11.256  10.696  0.00  0.00     0.036 H 
ATOM     37  H9  PD3 d   1      20.032 -10.610  10.691  0.00  0.00     0.076 H 
ENDBRANCH  19  24
BRANCH  17  38
ATOM     38  NAA PD3 d   1      23.743  -6.053   7.804  0.00  0.00    -0.383 N 
ATOM     39  H11 PD3 d   1      24.614  -5.652   7.427  0.00  0.00     0.157 HD
ATOM     40  H12 PD3 d   1      22.844  -5.579   7.638  0.00  0.00     0.157 HD
ENDBRANCH  17  38
ENDBRANCH  11  14
ENDBRANCH   1  11
BRANCH   6  41
ATOM     41  NAW PD3 d   1      16.070  -5.415   6.632  0.00  0.00    -0.309 N 
ATOM     42  CAY PD3 d   1      15.762  -4.274   7.243  0.00  0.00     0.325 C 
ATOM     43  OAB PD3 d   1      16.539  -3.675   7.983  0.00  0.00    -0.247 OA
ATOM     44  NAX PD3 d   1      14.528  -3.856   6.974  0.00  0.00    -0.309 N 
ATOM     45  H20 PD3 d   1      13.989  -4.447   6.374  0.00  0.00     0.170 HD
ATOM     46  H19 PD3 d   1      15.361  -5.799   6.041  0.00  0.00     0.170 HD
BRANCH  44  47
ATOM     47  CBC PD3 d   1      13.918  -2.751   7.401  0.00  0.00     0.037 A 
ATOM     48  CAN PD3 d   1      14.565  -1.756   8.125  0.00  0.00    -0.043 A 
ATOM     49  CBD PD3 d   1      13.889  -0.580   8.430  0.00  0.00     0.050 A 
ATOM     50  H21 PD3 d   1      15.590  -1.896   8.450  0.00  0.00     0.088 H 
ATOM     51  CAK PD3 d   1      12.573  -0.397   8.029  0.00  0.00    -0.068 A 
ATOM     52  CAG PD3 d   1      11.923  -1.392   7.308  0.00  0.00    -0.080 A 
ATOM     53  H24 PD3 d   1      12.053   0.521   8.278  0.00  0.00     0.084 H 
ATOM     54  CAJ PD3 d   1      12.603  -2.563   6.997  0.00  0.00    -0.057 A 
ATOM     55  H23 PD3 d   1      10.895  -1.256   6.991  0.00  0.00     0.083 H 
ATOM     56  H22 PD3 d   1      12.101  -3.340   6.432  0.00  0.00     0.086 H 
BRANCH  49  57
ATOM     57  CBJ PD3 d   1      14.591   0.574   9.151  0.00  0.00     0.417 C 
ATOM     58  FAD PD3 d   1      15.678   0.137   9.775  0.00  0.00    -0.166 F 
ATOM     59  FAE PD3 d   1      14.941   1.492   8.259  0.00  0.00    -0.166 F 
ATOM     60  FAC PD3 d   1      13.760   1.111  10.036  0.00  0.00    -0.166 F 
ENDBRANCH  49  57
ENDBRANCH  44  47
ENDBRANCH   6  41
TORSDOF 7
