REMARK  10 active torsions:
REMARK  status: ('A' for Active; 'I' for Inactive)
REMARK    1  A    between atoms: N3_34  and  C11_1 
REMARK    2  A    between atoms: C10_9  and  N1_10 
REMARK    3  A    between atoms: N1_10  and  C9_11 
REMARK    4  A    between atoms: C2_12  and  O1_13 
REMARK    5  A    between atoms: O1_13  and  C1_14 
REMARK    6  A    between atoms: C4_17  and  C5_19 
REMARK    7  A    between atoms: C5_19  and  S_20 
REMARK    8  A    between atoms: S_20  and  C6_23 
REMARK       I    between atoms: C18_25  and  N4_26 
REMARK    9  A    between atoms: C17_27  and  C18_25 
REMARK   10  A    between atoms: C12_33  and  N3_34 
ROOT
ATOM      1  C11 GS7 d   1      20.773   8.519  32.340  0.00  0.00     0.161 A 
ATOM      2  N2  GS7 d   1      21.392   7.376  31.996  0.00  0.00    -0.044 NA
ATOM      3  C19 GS7 d   1      19.521   8.397  32.906  0.00  0.00     0.058 A 
ATOM      4  C22 GS7 d   1      19.013   7.134  33.072  0.00  0.00     0.160 A 
ATOM      5  N5  GS7 d   1      17.777   7.249  33.640  0.00  0.00    -0.349 N 
ATOM      6  C21 GS7 d   1      17.481   8.566  33.847  0.00  0.00    -0.020 A 
ATOM      7  C20 GS7 d   1      18.551   9.309  33.398  0.00  0.00    -0.051 A 
ATOM      8  N6  GS7 d   1      19.610   5.995  32.741  0.00  0.00    -0.044 NA
ATOM      9  C10 GS7 d   1      20.816   6.185  32.201  0.00  0.00     0.731 A 
ATOM     10  H1  GS7 d   1      17.159   6.460  33.877  0.00  0.00     0.166 HD
ATOM     11  H2  GS7 d   1      16.565   8.958  34.287  0.00  0.00     0.111 H 
ATOM     12  H3  GS7 d   1      18.637  10.395  33.417  0.00  0.00     0.087 H 
ENDROOT
BRANCH   9  13
ATOM     13  N1  GS7 d   1      21.493   5.007  31.827  0.00  0.00    -0.185 N 
ATOM     14  H4  GS7 d   1      21.027   4.107  32.012  0.00  0.00     0.184 HD
BRANCH  13  15
ATOM     15  C9  GS7 d   1      22.763   4.974  31.217  0.00  0.00     0.082 A 
ATOM     16  C2  GS7 d   1      23.699   4.063  31.658  0.00  0.00     0.096 A 
ATOM     17  C3  GS7 d   1      24.955   3.993  31.080  0.00  0.00    -0.042 A 
ATOM     18  C4  GS7 d   1      25.279   4.845  30.044  0.00  0.00    -0.042 A 
ATOM     19  H10 GS7 d   1      25.680   3.272  31.439  0.00  0.00     0.088 H 
ATOM     20  C7  GS7 d   1      24.344   5.759  29.605  0.00  0.00    -0.074 A 
ATOM     21  C8  GS7 d   1      23.094   5.819  30.179  0.00  0.00    -0.053 A 
ATOM     22  H9  GS7 d   1      24.596   6.438  28.799  0.00  0.00     0.084 H 
ATOM     23  H8  GS7 d   1      22.366   6.534  29.813  0.00  0.00     0.087 H 
BRANCH  16  24
ATOM     24  O1  GS7 d   1      23.295   3.243  32.703  0.00  0.00    -0.354 OA
BRANCH  24  25
ATOM     25  C1  GS7 d   1      24.183   2.140  32.823  0.00  0.00     0.010 C 
ATOM     26  H5  GS7 d   1      23.857   1.495  33.652  0.00  0.00     0.066 H 
ATOM     27  H6  GS7 d   1      25.200   2.508  33.023  0.00  0.00     0.066 H 
ATOM     28  H7  GS7 d   1      24.179   1.563  31.887  0.00  0.00     0.066 H 
ENDBRANCH  24  25
ENDBRANCH  16  24
BRANCH  18  29
ATOM     29  C5  GS7 d   1      26.629   4.808  29.404  0.00  0.00     0.052 C 
ATOM     30  H11 GS7 d   1      27.361   4.384  30.107  0.00  0.00     0.063 H 
ATOM     31  H12 GS7 d   1      26.935   5.827  29.126  0.00  0.00     0.063 H 
BRANCH  29  32
ATOM     32  S   GS7 d   1      26.539   3.791  27.947  0.00  0.00     0.144 S 
ATOM     33  O2  GS7 d   1      25.629   4.405  26.998  0.00  0.00    -0.228 OA
ATOM     34  O3  GS7 d   1      26.333   2.424  28.388  0.00  0.00    -0.228 OA
BRANCH  32  35
ATOM     35  C6  GS7 d   1      28.178   3.920  27.298  0.00  0.00     0.016 C 
ATOM     36  H13 GS7 d   1      28.256   3.324  26.377  0.00  0.00     0.048 H 
ATOM     37  H14 GS7 d   1      28.897   3.543  28.040  0.00  0.00     0.048 H 
ATOM     38  H15 GS7 d   1      28.401   4.973  27.073  0.00  0.00     0.048 H 
ENDBRANCH  32  35
ENDBRANCH  29  32
ENDBRANCH  18  29
ENDBRANCH  13  15
ENDBRANCH   9  13
BRANCH   1  39
ATOM     39  N3  GS7 d   1      21.265   9.819  32.179  0.00  0.00    -0.339 N 
ATOM     40  H21 GS7 d   1      20.582  10.579  32.311  0.00  0.00     0.167 HD
BRANCH  39  41
ATOM     41  C12 GS7 d   1      22.569  10.215  31.861  0.00  0.00     0.052 A 
ATOM     42  C17 GS7 d   1      22.827  11.564  31.706  0.00  0.00     0.097 A 
ATOM     43  C16 GS7 d   1      24.094  12.008  31.394  0.00  0.00     0.134 A 
ATOM     44  F   GS7 d   1      24.347  13.317  31.244  0.00  0.00    -0.205 F 
ATOM     45  C15 GS7 d   1      25.119  11.105  31.231  0.00  0.00    -0.044 A 
ATOM     46  C14 GS7 d   1      24.871   9.760  31.383  0.00  0.00    -0.078 A 
ATOM     47  H18 GS7 d   1      26.116  11.451  30.984  0.00  0.00     0.088 H 
ATOM     48  C13 GS7 d   1      23.604   9.320  31.697  0.00  0.00    -0.056 A 
ATOM     49  H19 GS7 d   1      25.675   9.044  31.255  0.00  0.00     0.083 H 
ATOM     50  H20 GS7 d   1      23.419   8.259  31.816  0.00  0.00     0.086 H 
BRANCH  42  51
ATOM     51  C18 GS7 d   1      21.727  12.531  31.880  0.00  0.00     0.254 C 
ATOM     52  O4  GS7 d   1      20.826  12.313  32.681  0.00  0.00    -0.268 OA
ATOM     53  N4  GS7 d   1      21.821  13.644  31.086  0.00  0.00    -0.366 N 
ATOM     54  H16 GS7 d   1      22.591  13.745  30.456  0.00  0.00     0.159 HD
ATOM     55  H17 GS7 d   1      21.119  14.355  31.136  0.00  0.00     0.159 HD
ENDBRANCH  42  51
ENDBRANCH  39  41
ENDBRANCH   1  39
TORSDOF 10
