REMARK  13 active torsions:
REMARK  status: ('A' for Active; 'I' for Inactive)
REMARK    1  A    between atoms: C01_1  and  O07_7 
REMARK    2  A    between atoms: C04_4  and  C09_9 
REMARK    3  A    between atoms: O07_7  and  C08_8 
REMARK    4  A    between atoms: C08_8  and  C28_28 
REMARK    5  A    between atoms: C12_12  and  S14_14 
REMARK    6  A    between atoms: S14_14  and  N15_15 
REMARK    7  A    between atoms: N15_15  and  C18_18 
REMARK    8  A    between atoms: C18_18  and  C19_19 
REMARK    9  A    between atoms: C18_18  and  C22_22 
REMARK       I    between atoms: N25_25  and  C29_29 
REMARK   10  A    between atoms: C29_29  and  O30_30 
REMARK   11  A    between atoms: O30_30  and  C32_32 
REMARK   12  A    between atoms: C32_32  and  C33_33 
REMARK   13  A    between atoms: C32_32  and  C34_34 
ROOT
ATOM      1  C18 24F d   1      -1.792  26.481  57.191  0.00  0.00     0.107 C 
ATOM      2  H10 24F d   1      -2.400  25.798  57.803  0.00  0.00     0.091 H 
ENDROOT
BRANCH   1   3
ATOM      3  N15 24F d   1      -2.353  27.849  57.242  0.00  0.00    -0.299 N 
ATOM      4  H9  24F d   1      -1.744  28.638  57.156  0.00  0.00     0.173 HD
BRANCH   3   5
ATOM      5  S14 24F d   1      -3.967  28.083  57.439  0.00  0.00     0.266 S 
ATOM      6  O16 24F d   1      -4.135  29.543  57.455  0.00  0.00    -0.200 OA
ATOM      7  O17 24F d   1      -4.345  27.380  58.663  0.00  0.00    -0.200 OA
BRANCH   5   8
ATOM      8  C12 24F d   1      -4.830  27.422  56.069  0.00  0.00     0.120 A 
ATOM      9  C11 24F d   1      -5.335  26.126  56.044  0.00  0.00    -0.052 A 
ATOM     10  C10 24F d   1      -5.974  25.841  54.773  0.00  0.00    -0.064 A 
ATOM     11  H8  24F d   1      -5.261  25.419  56.869  0.00  0.00     0.086 H 
ATOM     12  C09 24F d   1      -5.900  26.961  53.932  0.00  0.00     0.016 A 
ATOM     13  H7  24F d   1      -6.443  24.894  54.510  0.00  0.00     0.085 H 
ATOM     14  S13 24F d   1      -5.092  28.329  54.629  0.00  0.00    -0.076 SA
BRANCH  12  15
ATOM     15  C04 24F d   1      -6.464  26.975  52.556  0.00  0.00    -0.019 A 
ATOM     16  C03 24F d   1      -7.551  26.102  52.193  0.00  0.00    -0.069 A 
ATOM     17  C02 24F d   1      -8.095  26.119  50.874  0.00  0.00    -0.050 A 
ATOM     18  H2  24F d   1      -7.961  25.423  52.932  0.00  0.00     0.085 H 
ATOM     19  C01 24F d   1      -7.579  26.997  49.878  0.00  0.00     0.068 A 
ATOM     20  H1  24F d   1      -8.914  25.453  50.626  0.00  0.00     0.087 H 
ATOM     21  C06 24F d   1      -6.491  27.869  50.235  0.00  0.00    -0.050 A 
ATOM     22  C05 24F d   1      -5.941  27.860  51.559  0.00  0.00    -0.069 A 
ATOM     23  H4  24F d   1      -6.081  28.543  49.491  0.00  0.00     0.087 H 
ATOM     24  H3  24F d   1      -5.124  28.528  51.807  0.00  0.00     0.085 H 
BRANCH  19  25
ATOM     25  O07 24F d   1      -8.109  27.005  48.599  0.00  0.00    -0.352 OA
BRANCH  25  26
ATOM     26  C08 24F d   1      -8.017  28.152  47.754  0.00  0.00     0.023 C 
ATOM     27  H5  24F d   1      -6.999  28.235  47.346  0.00  0.00     0.074 H 
ATOM     28  H6  24F d   1      -8.257  29.059  48.328  0.00  0.00     0.074 H 
BRANCH  26  29
ATOM     29  C28 24F d   1      -9.020  27.978  46.614  0.00  0.00    -0.056 C 
ATOM     30  H20 24F d   1      -8.970  28.850  45.946  0.00  0.00     0.030 H 
ATOM     31  H21 24F d   1     -10.035  27.891  47.029  0.00  0.00     0.030 H 
ATOM     32  H22 24F d   1      -8.777  27.067  46.047  0.00  0.00     0.030 H 
ENDBRANCH  26  29
ENDBRANCH  25  26
ENDBRANCH  19  25
ENDBRANCH  12  15
ENDBRANCH   5   8
ENDBRANCH   3   5
ENDBRANCH   1   3
BRANCH   1  33
ATOM     33  C19 24F d   1      -1.848  26.031  55.702  0.00  0.00     0.197 C 
ATOM     34  OM0 24F d   1      -2.074  24.835  55.459  0.00  0.00    -0.646 OA
ATOM     35  O21 24F d   1      -1.642  26.913  54.855  0.00  0.00    -0.646 OA
ENDBRANCH   1  33
BRANCH   1  36
ATOM     36  C22 24F d   1      -0.356  26.508  57.749  0.00  0.00    -0.021 C 
ATOM     37  C23 24F d   1       0.542  25.318  57.317  0.00  0.00    -0.044 C 
ATOM     38  C24 24F d   1       1.964  25.431  57.887  0.00  0.00     0.000 C 
ATOM     39  H12 24F d   1       0.601  25.298  56.219  0.00  0.00     0.036 H 
ATOM     40  H13 24F d   1       0.089  24.383  57.677  0.00  0.00     0.036 H 
ATOM     41  N25 24F d   1       1.908  25.540  59.364  0.00  0.00    -0.328 N 
ATOM     42  H14 24F d   1       2.453  26.326  57.474  0.00  0.00     0.064 H 
ATOM     43  H15 24F d   1       2.541  24.537  57.609  0.00  0.00     0.064 H 
ATOM     44  C26 24F d   1       1.101  26.673  59.888  0.00  0.00     0.000 C 
ATOM     45  C29 24F d   1       2.342  24.596  60.186  0.00  0.00     0.363 C 
ATOM     46  C27 24F d   1      -0.340  26.674  59.296  0.00  0.00    -0.044 C 
ATOM     47  H16 24F d   1       1.597  27.618  59.621  0.00  0.00     0.064 H 
ATOM     48  H17 24F d   1       1.037  26.589  60.983  0.00  0.00     0.064 H 
ATOM     49  H18 24F d   1      -0.905  25.843  59.745  0.00  0.00     0.036 H 
ATOM     50  H19 24F d   1      -0.825  27.628  59.552  0.00  0.00     0.036 H 
ATOM     51  O31 24F d   1       2.064  24.438  61.378  0.00  0.00    -0.238 OA
ATOM     52  H11 24F d   1       0.112  27.410  57.329  0.00  0.00     0.044 H 
BRANCH  45  53
ATOM     53  O30 24F d   1       3.231  23.693  59.533  0.00  0.00    -0.299 OA
BRANCH  53  54
ATOM     54  C32 24F d   1       3.458  22.386  60.079  0.00  0.00     0.043 C 
ATOM     55  H23 24F d   1       3.416  22.427  61.177  0.00  0.00     0.083 H 
BRANCH  54  56
ATOM     56  C33 24F d   1       4.845  21.903  59.636  0.00  0.00    -0.052 C 
ATOM     57  H24 24F d   1       5.033  20.901  60.048  0.00  0.00     0.030 H 
ATOM     58  H25 24F d   1       5.611  22.601  60.005  0.00  0.00     0.030 H 
ATOM     59  H26 24F d   1       4.885  21.861  58.538  0.00  0.00     0.030 H 
ENDBRANCH  54  56
BRANCH  54  60
ATOM     60  C34 24F d   1       2.373  21.437  59.560  0.00  0.00    -0.052 C 
ATOM     61  H27 24F d   1       2.538  20.431  59.973  0.00  0.00     0.030 H 
ATOM     62  H28 24F d   1       2.418  21.394  58.462  0.00  0.00     0.030 H 
ATOM     63  H29 24F d   1       1.384  21.804  59.873  0.00  0.00     0.030 H 
ENDBRANCH  54  60
ENDBRANCH  53  54
ENDBRANCH  45  53
ENDBRANCH   1  36
TORSDOF 13
