REMARK  10 active torsions:
REMARK  status: ('A' for Active; 'I' for Inactive)
REMARK    1  A    between atoms: C1_1  and  C2_2 
REMARK    2  A    between atoms: C2_2  and  C4_3 
REMARK    3  A    between atoms: C2_2  and  N6_5 
REMARK    4  A    between atoms: C4_3  and  O5_4 
REMARK       I    between atoms: N6_5  and  C7_6 
REMARK    5  A    between atoms: C7_6  and  C9_8 
REMARK    6  A    between atoms: C13_12  and  C14_13 
REMARK    7  A    between atoms: C19_18  and  N20_19 
REMARK    8  A    between atoms: N20_19  and  C21_20 
REMARK    9  A    between atoms: C23_22  and  C24_23 
REMARK   10  A    between atoms: C26_25  and  C27_26 
ROOT
ATOM      1  C9  685 d   1      12.166  40.343   9.312  0.00  0.00     0.099 A 
ATOM      2  S10 685 d   1      12.794  41.714  10.065  0.00  0.00    -0.061 SA
ATOM      3  C11 685 d   1      11.668  41.702  11.176  0.00  0.00     0.128 A 
ATOM      4  N12 685 d   1      10.943  40.721  11.000  0.00  0.00    -0.243 NA
ATOM      5  C13 685 d   1      11.103  39.992  10.055  0.00  0.00     0.054 A 
ATOM      6  C15 685 d   1      11.574  42.603  12.262  0.00  0.00     0.113 A 
ATOM      7  C16 685 d   1      10.549  42.603  13.123  0.00  0.00    -0.034 A 
ATOM      8  C17 685 d   1      10.670  43.475  14.126  0.00  0.00     0.023 A 
ATOM      9  N18 685 d   1      11.653  44.259  14.279  0.00  0.00    -0.075 NA
ATOM     10  C19 685 d   1      12.611  44.158  13.498  0.00  0.00     0.727 A 
ATOM     11  N29 685 d   1      12.587  43.352  12.506  0.00  0.00    -0.060 NA
ATOM     12  H12 685 d   1       9.691  41.949  13.014  0.00  0.00     0.089 H 
ATOM     13  H13 685 d   1       9.873  43.515  14.860  0.00  0.00     0.115 H 
ENDROOT
BRANCH  10  14
ATOM     14  N20 685 d   1      13.664  44.936  13.707  0.00  0.00    -0.188 N 
ATOM     15  H14 685 d   1      13.575  45.629  14.463  0.00  0.00     0.184 HD
BRANCH  14  16
ATOM     16  C21 685 d   1      14.849  44.924  13.037  0.00  0.00     0.050 A 
ATOM     17  C22 685 d   1      15.101  44.179  11.945  0.00  0.00    -0.051 A 
ATOM     18  C23 685 d   1      16.355  44.238  11.356  0.00  0.00    -0.059 A 
ATOM     19  H15 685 d   1      14.331  43.539  11.530  0.00  0.00     0.087 H 
ATOM     20  C25 685 d   1      17.297  45.074  11.830  0.00  0.00    -0.071 A 
ATOM     21  C26 685 d   1      17.042  45.822  12.919  0.00  0.00    -0.059 A 
ATOM     22  H19 685 d   1      18.259  45.145  11.336  0.00  0.00     0.085 H 
ATOM     23  C28 685 d   1      15.830  45.748  13.526  0.00  0.00    -0.051 A 
ATOM     24  H23 685 d   1      15.635  46.347  14.408  0.00  0.00     0.087 H 
BRANCH  18  25
ATOM     25  C24 685 d   1      16.757  43.433  10.178  0.00  0.00    -0.051 C 
ATOM     26  H16 685 d   1      17.798  43.667   9.912  0.00  0.00     0.033 H 
ATOM     27  H17 685 d   1      16.099  43.671   9.329  0.00  0.00     0.033 H 
ATOM     28  H18 685 d   1      16.672  42.363  10.419  0.00  0.00     0.033 H 
ENDBRANCH  18  25
BRANCH  21  29
ATOM     29  C27 685 d   1      18.127  46.682  13.462  0.00  0.00    -0.051 C 
ATOM     30  H20 685 d   1      17.758  47.224  14.345  0.00  0.00     0.033 H 
ATOM     31  H21 685 d   1      18.442  47.404  12.694  0.00  0.00     0.033 H 
ATOM     32  H22 685 d   1      18.984  46.054  13.748  0.00  0.00     0.033 H 
ENDBRANCH  21  29
ENDBRANCH  14  16
ENDBRANCH  10  14
BRANCH   1  33
ATOM     33  C7  685 d   1      12.712  39.691   8.122  0.00  0.00     0.261 C 
ATOM     34  N6  685 d   1      13.966  39.520   8.026  0.00  0.00    -0.350 N 
ATOM     35  H8  685 d   1      14.556  39.844   8.765  0.00  0.00     0.163 HD
ATOM     36  O8  685 d   1      12.105  39.264   7.277  0.00  0.00    -0.267 OA
BRANCH  34  37
ATOM     37  C2  685 d   1      14.559  38.884   6.904  0.00  0.00     0.029 C 
ATOM     38  H4  685 d   1      13.785  38.727   6.138  0.00  0.00     0.075 H 
BRANCH  37  39
ATOM     39  C1  685 d   1      15.719  39.634   6.337  0.00  0.00    -0.055 C 
ATOM     40  H1  685 d   1      16.125  39.084   5.475  0.00  0.00     0.030 H 
ATOM     41  H2  685 d   1      16.499  39.739   7.106  0.00  0.00     0.030 H 
ATOM     42  H3  685 d   1      15.387  40.631   6.012  0.00  0.00     0.030 H 
ENDBRANCH  37  39
BRANCH  37  43
ATOM     43  C4  685 d   1      15.197  37.619   7.278  0.00  0.00     0.035 C 
ATOM     44  H5  685 d   1      14.574  36.989   7.929  0.00  0.00     0.077 H 
ATOM     45  H6  685 d   1      16.191  37.746   7.733  0.00  0.00     0.077 H 
BRANCH  43  46
ATOM     46  O5  685 d   1      15.243  37.175   5.948  0.00  0.00    -0.399 OA
ATOM     47  H7  685 d   1      15.643  36.314   5.917  0.00  0.00     0.209 HD
ENDBRANCH  43  46
ENDBRANCH  37  43
ENDBRANCH  34  37
ENDBRANCH   1  33
BRANCH   5  48
ATOM     48  C14 685 d   1      10.197  38.861   9.835  0.00  0.00    -0.034 C 
ATOM     49  H9  685 d   1       9.428  38.849  10.621  0.00  0.00     0.035 H 
ATOM     50  H10 685 d   1      10.768  37.922   9.867  0.00  0.00     0.035 H 
ATOM     51  H11 685 d   1       9.715  38.963   8.852  0.00  0.00     0.035 H 
ENDBRANCH   5  48
TORSDOF 10
