REMARK  7 active torsions:
REMARK  status: ('A' for Active; 'I' for Inactive)
REMARK    1  A    between atoms: C3_3  and  O4_4 
REMARK    2  A    between atoms: C7_7  and  C8_8 
REMARK    3  A    between atoms: C8_8  and  C9_9 
REMARK    4  A    between atoms: C9_9  and  N10_10 
REMARK    5  A    between atoms: N10_10  and  C11_11 
REMARK    6  A    between atoms: C14_14  and  N15_15 
REMARK    7  A    between atoms: C20_20  and  C21_21 
ROOT
ATOM      1  C11 ZMA d   1      -8.953  -8.593  55.842  0.00  0.00     0.754 A 
ATOM      2  N12 ZMA d   1      -8.585  -8.857  54.578  0.00  0.00     0.133 NA
ATOM      3  N13 ZMA d   1      -8.833  -7.359  56.358  0.00  0.00     0.131 NA
ATOM      4  C14 ZMA d   1      -8.365  -6.342  55.626  0.00  0.00     0.752 A 
ATOM      5  N16 ZMA d   1      -7.981  -6.582  54.309  0.00  0.00     0.121 N 
ATOM      6  N17 ZMA d   1      -7.525  -5.852  53.428  0.00  0.00    -0.113 NA
ATOM      7  C18 ZMA d   1      -8.104  -7.874  53.800  0.00  0.00     0.782 A 
ATOM      8  N19 ZMA d   1      -7.676  -7.829  52.544  0.00  0.00    -0.035 NA
ATOM      9  C20 ZMA d   1      -7.313  -6.565  52.320  0.00  0.00     0.223 A 
ENDROOT
BRANCH   1  10
ATOM     10  N10 ZMA d   1      -9.420  -9.544  56.644  0.00  0.00    -0.221 N 
ATOM     11  H10 ZMA d   1      -9.544 -10.518  56.333  0.00  0.00     0.177 HD
BRANCH  10  12
ATOM     12  C9  ZMA d   1      -9.746  -9.104  58.006  0.00  0.00     0.013 C 
ATOM     13  H8  ZMA d   1      -9.566  -9.933  58.706  0.00  0.00     0.065 H 
ATOM     14  H9  ZMA d   1      -9.103  -8.252  58.274  0.00  0.00     0.065 H 
BRANCH  12  15
ATOM     15  C8  ZMA d   1     -11.208  -8.677  58.101  0.00  0.00    -0.026 C 
ATOM     16  H6  ZMA d   1     -11.410  -7.893  57.357  0.00  0.00     0.042 H 
ATOM     17  H7  ZMA d   1     -11.856  -9.544  57.905  0.00  0.00     0.042 H 
BRANCH  15  18
ATOM     18  C7  ZMA d   1     -11.492  -8.135  59.501  0.00  0.00    -0.057 A 
ATOM     19  C1  ZMA d   1     -10.992  -8.796  60.617  0.00  0.00    -0.074 A 
ATOM     20  C2  ZMA d   1     -11.241  -8.297  61.889  0.00  0.00    -0.051 A 
ATOM     21  H1  ZMA d   1     -10.408  -9.701  60.495  0.00  0.00     0.084 H 
ATOM     22  C3  ZMA d   1     -11.984  -7.133  62.045  0.00  0.00     0.065 A 
ATOM     23  H2  ZMA d   1     -10.856  -8.815  62.760  0.00  0.00     0.087 H 
ATOM     24  C5  ZMA d   1     -12.476  -6.469  60.928  0.00  0.00    -0.051 A 
ATOM     25  C6  ZMA d   1     -12.230  -6.969  59.657  0.00  0.00    -0.074 A 
ATOM     26  H4  ZMA d   1     -13.053  -5.559  61.050  0.00  0.00     0.087 H 
ATOM     27  H5  ZMA d   1     -12.614  -6.450  58.786  0.00  0.00     0.084 H 
BRANCH  22  28
ATOM     28  O4  ZMA d   1     -12.231  -6.638  63.286  0.00  0.00    -0.361 OA
ATOM     29  H3  ZMA d   1     -12.748  -5.845  63.212  0.00  0.00     0.217 HD
ENDBRANCH  22  28
ENDBRANCH  15  18
ENDBRANCH  12  15
ENDBRANCH  10  12
ENDBRANCH   1  10
BRANCH   4  30
ATOM     30  N15 ZMA d   1      -8.266  -5.125  56.156  0.00  0.00    -0.230 N 
ATOM     31  H11 ZMA d   1      -8.554  -4.963  57.132  0.00  0.00     0.174 HD
ATOM     32  H12 ZMA d   1      -7.901  -4.345  55.590  0.00  0.00     0.174 HD
ENDBRANCH   4  30
BRANCH   9  33
ATOM     33  C21 ZMA d   1      -6.809  -6.054  51.131  0.00  0.00     0.125 A 
ATOM     34  C22 ZMA d   1      -6.554  -6.688  49.991  0.00  0.00    -0.045 A 
ATOM     35  C23 ZMA d   1      -6.081  -5.796  49.121  0.00  0.00    -0.059 A 
ATOM     36  H13 ZMA d   1      -6.705  -7.750  49.801  0.00  0.00     0.088 H 
ATOM     37  C24 ZMA d   1      -6.034  -4.598  49.703  0.00  0.00     0.019 A 
ATOM     38  H14 ZMA d   1      -5.780  -6.012  48.097  0.00  0.00     0.086 H 
ATOM     39  O25 ZMA d   1      -6.492  -4.739  50.984  0.00  0.00    -0.319 OA
ATOM     40  H15 ZMA d   1      -5.692  -3.673  49.241  0.00  0.00     0.123 H 
ENDBRANCH   9  33
TORSDOF 7
