REMARK  8 active torsions:
REMARK  status: ('A' for Active; 'I' for Inactive)
REMARK    1  A    between atoms: N30_30  and  C9_9 
REMARK    2  A    between atoms: C12_12  and  C11_11 
REMARK    3  A    between atoms: N31_31  and  C12_12 
REMARK    4  A    between atoms: C13_13  and  O35_35 
REMARK    5  A    between atoms: C25_25  and  C14_14 
REMARK    6  A    between atoms: C23_23  and  N31_31 
REMARK    7  A    between atoms: O35_35  and  C24_24 
REMARK    8  A    between atoms: C25_25  and  N28_28 
ROOT
ATOM      1  C1  ENS d   1       0.617   8.187  25.498  0.00  0.00     0.029 C 
ATOM      2  C11 ENS d   1       1.093   7.069  25.731  0.00  0.00     0.135 C 
ATOM      3  C13 ENS d   1       0.436   5.953  25.309  0.00  0.00     0.238 C 
ATOM      4  N26 ENS d   1       0.115   9.428  25.290  0.00  0.00    -0.095 N 
ATOM      5  O33 ENS d   1       1.063   4.739  25.393  0.00  0.00    -0.163 OA
ENDROOT
BRANCH   2   6
ATOM      6  C12 ENS d   1       2.435   7.003  26.177  0.00  0.00     0.127 C 
ATOM      7  N30 ENS d   1       3.230   6.128  25.634  0.00  0.00    -0.340 N 
ATOM      8  H28 ENS d   1       2.953   5.667  24.756  0.00  0.00     0.167 HD
BRANCH   7   9
ATOM      9  C9  ENS d   1       4.430   5.812  26.214  0.00  0.00     0.061 A 
ATOM     10  C4  ENS d   1       4.601   5.649  27.621  0.00  0.00    -0.055 A 
ATOM     11  C2  ENS d   1       5.868   5.380  28.172  0.00  0.00    -0.080 A 
ATOM     12  H3  ENS d   1       3.741   5.734  28.276  0.00  0.00     0.087 H 
ATOM     13  C3  ENS d   1       6.992   5.260  27.344  0.00  0.00    -0.069 A 
ATOM     14  H1  ENS d   1       5.975   5.265  29.245  0.00  0.00     0.083 H 
ATOM     15  C7  ENS d   1       6.803   5.417  25.973  0.00  0.00     0.016 A 
ATOM     16  H2  ENS d   1       7.973   5.053  27.756  0.00  0.00     0.085 H 
ATOM     17  C5  ENS d   1       7.698   5.351  24.932  0.00  0.00     0.061 A 
ATOM     18  C8  ENS d   1       5.577   5.686  25.423  0.00  0.00     0.071 A 
ATOM     19  C6  ENS d   1       6.970   5.584  23.774  0.00  0.00    -0.001 A 
ATOM     20 CL36 ENS d   1       9.420   5.059  25.054  0.00  0.00    -0.082 Cl
ATOM     21  N27 ENS d   1       5.668   5.792  24.080  0.00  0.00    -0.362 N 
ATOM     22  H4  ENS d   1       7.385   5.598  22.767  0.00  0.00     0.114 H 
ATOM     23  H27 ENS d   1       4.902   5.991  23.421  0.00  0.00     0.165 HD
ENDBRANCH   7   9
BRANCH   6  24
ATOM     24  N31 ENS d   1       2.928   7.720  27.243  0.00  0.00    -0.363 N 
ATOM     25  H29 ENS d   1       3.847   7.418  27.597  0.00  0.00     0.162 HD
BRANCH  24  26
ATOM     26  C23 ENS d   1       2.323   8.849  27.937  0.00  0.00     0.075 C 
ATOM     27  C10 ENS d   1       3.345   9.674  28.384  0.00  0.00     0.176 C 
ATOM     28  N28 ENS d   1       3.075  10.817  29.100  0.00  0.00    -0.354 N 
ATOM     29  O32 ENS d   1       4.630   9.224  28.299  0.00  0.00    -0.175 OA
ATOM     30  C20 ENS d   1       1.717  11.337  29.205  0.00  0.00    -0.003 C 
ATOM     31  C16 ENS d   1       0.908  10.518  30.216  0.00  0.00    -0.050 C 
ATOM     32  H15 ENS d   1       1.755  12.386  29.535  0.00  0.00     0.064 H 
ATOM     33  H16 ENS d   1       1.230  11.280  28.220  0.00  0.00     0.064 H 
ATOM     34  C15 ENS d   1       0.393   9.205  29.621  0.00  0.00    -0.061 C 
ATOM     35  H7  ENS d   1       1.550  10.287  31.079  0.00  0.00     0.035 H 
ATOM     36  H8  ENS d   1       0.048  11.117  30.549  0.00  0.00     0.035 H 
ATOM     37  C19 ENS d   1       1.517   8.280  29.132  0.00  0.00    -0.039 C 
ATOM     38  H5  ENS d   1      -0.262   9.440  28.769  0.00  0.00     0.033 H 
ATOM     39  H6  ENS d   1      -0.185   8.675  30.392  0.00  0.00     0.033 H 
ATOM     40  H13 ENS d   1       1.069   7.324  28.824  0.00  0.00     0.036 H 
ATOM     41  H14 ENS d   1       2.212   8.107  29.967  0.00  0.00     0.036 H 
ATOM     42  H21 ENS d   1       1.657   9.407  27.263  0.00  0.00     0.085 H 
BRANCH  28  43
ATOM     43  C25 ENS d   1       4.122  11.451  29.904  0.00  0.00     0.058 C 
ATOM     44  H25 ENS d   1       3.706  11.712  30.888  0.00  0.00     0.077 H 
ATOM     45  H26 ENS d   1       4.951  10.740  30.034  0.00  0.00     0.077 H 
BRANCH  43  46
ATOM     46  C14 ENS d   1       4.652  12.707  29.247  0.00  0.00     0.171 C 
ATOM     47  N29 ENS d   1       5.632  13.396  29.757  0.00  0.00    -0.362 N 
ATOM     48  C21 ENS d   1       6.156  14.591  29.133  0.00  0.00    -0.003 C 
ATOM     49  C22 ENS d   1       6.306  13.080  30.996  0.00  0.00    -0.003 C 
ATOM     50  C17 ENS d   1       7.273  15.070  30.053  0.00  0.00    -0.049 C 
ATOM     51  H17 ENS d   1       6.553  14.361  28.133  0.00  0.00     0.064 H 
ATOM     52  H18 ENS d   1       5.371  15.357  29.049  0.00  0.00     0.064 H 
ATOM     53  C18 ENS d   1       6.993  14.383  31.386  0.00  0.00    -0.049 C 
ATOM     54  H9  ENS d   1       8.256  14.770  29.660  0.00  0.00     0.035 H 
ATOM     55  H10 ENS d   1       7.242  16.164  30.165  0.00  0.00     0.035 H 
ATOM     56  H11 ENS d   1       6.332  15.000  32.012  0.00  0.00     0.035 H 
ATOM     57  H12 ENS d   1       7.930  14.184  31.927  0.00  0.00     0.035 H 
ATOM     58  H19 ENS d   1       5.583  12.773  31.767  0.00  0.00     0.064 H 
ATOM     59  H20 ENS d   1       7.044  12.279  30.846  0.00  0.00     0.064 H 
ATOM     60  O34 ENS d   1       4.122  13.075  28.058  0.00  0.00    -0.175 OA
ENDBRANCH  43  46
ENDBRANCH  28  43
ENDBRANCH  24  26
ENDBRANCH   6  24
ENDBRANCH   2   6
BRANCH   3  61
ATOM     61  O35 ENS d   1      -0.689   6.088  24.732  0.00  0.00    -0.332 OA
BRANCH  61  62
ATOM     62  C24 ENS d   1      -1.351   4.865  24.467  0.00  0.00     0.012 C 
ATOM     63  H22 ENS d   1      -2.311   5.068  23.970  0.00  0.00     0.067 H 
ATOM     64  H23 ENS d   1      -1.533   4.334  25.413  0.00  0.00     0.067 H 
ATOM     65  H24 ENS d   1      -0.723   4.243  23.812  0.00  0.00     0.067 H 
ENDBRANCH  61  62
ENDBRANCH   3  61
TORSDOF 8
