REMARK  10 active torsions:
REMARK  status: ('A' for Active; 'I' for Inactive)
REMARK    1  A    between atoms: C7_4  and  C16_19 
REMARK    2  A    between atoms: C9_15  and  C10_5 
REMARK    3  A    between atoms: C20_8  and  O28_28 
REMARK    4  A    between atoms: C21_9  and  O26_26 
REMARK    5  A    between atoms: C22_10  and  O24_24 
REMARK    6  A    between atoms: N17_20  and  C3_12 
REMARK    7  A    between atoms: C18_21  and  N17_20 
REMARK    8  A    between atoms: O24_24  and  C25_25 
REMARK    9  A    between atoms: O26_26  and  C27_27 
REMARK   10  A    between atoms: O28_28  and  C29_29 
ROOT
ATOM      1  N1  T2A d   1       0.051  91.805  30.514  0.00  0.00    -0.196 N 
ATOM      2  C5  T2A d   1       0.636  91.928  32.849  0.00  0.00     0.051 A 
ATOM      3  C6  T2A d   1       0.475  91.227  31.681  0.00  0.00     0.103 A 
ATOM      4  C7  T2A d   1       0.680  89.905  31.365  0.00  0.00     0.063 A 
ATOM      5  N2  T2A d   1      -0.253  93.224  30.507  0.00  0.00     0.028 NA
ATOM      6  C3  T2A d   1      -0.071  93.826  31.692  0.00  0.00     0.744 A 
ATOM      7  N4  T2A d   1       0.352  93.235  32.820  0.00  0.00    -0.071 NA
ATOM      8  N8  T2A d   1       0.358  89.770  30.029  0.00  0.00    -0.231 NA
ATOM      9  C9  T2A d   1      -0.026  90.935  29.504  0.00  0.00     0.162 A 
ATOM     10  H1  T2A d   1       0.980  91.442  33.761  0.00  0.00     0.119 H 
ENDROOT
BRANCH   6  11
ATOM     11  N17 T2A d   1      -0.329  95.202  31.821  0.00  0.00    -0.187 N 
ATOM     12  H10 T2A d   1      -0.221  95.602  32.764  0.00  0.00     0.184 HD
BRANCH  11  13
ATOM     13  C18 T2A d   1      -0.718  96.094  30.804  0.00  0.00     0.054 A 
ATOM     14  C19 T2A d   1      -0.256  96.009  29.507  0.00  0.00    -0.022 A 
ATOM     15  C20 T2A d   1      -0.670  96.913  28.548  0.00  0.00     0.106 A 
ATOM     16  H11 T2A d   1       0.440  95.223  29.237  0.00  0.00     0.091 H 
ATOM     17  C21 T2A d   1      -1.544  97.924  28.883  0.00  0.00     0.135 A 
ATOM     18  C22 T2A d   1      -2.009  98.021  30.179  0.00  0.00     0.106 A 
ATOM     19  C23 T2A d   1      -1.592  97.109  31.127  0.00  0.00    -0.022 A 
ATOM     20  H12 T2A d   1      -1.958  97.193  32.144  0.00  0.00     0.091 H 
BRANCH  15  21
ATOM     21  O28 T2A d   1      -0.211  96.835  27.244  0.00  0.00    -0.353 OA
BRANCH  21  22
ATOM     22  C29 T2A d   1       0.261  95.509  27.046  0.00  0.00     0.010 C 
ATOM     23  H19 T2A d   1       0.637  95.403  26.017  0.00  0.00     0.066 H 
ATOM     24  H20 T2A d   1      -0.562  94.798  27.211  0.00  0.00     0.066 H 
ATOM     25  H21 T2A d   1       1.074  95.299  27.757  0.00  0.00     0.066 H 
ENDBRANCH  21  22
ENDBRANCH  15  21
BRANCH  17  26
ATOM     26  O26 T2A d   1      -1.956  98.826  27.915  0.00  0.00    -0.351 OA
BRANCH  26  27
ATOM     27  C27 T2A d   1      -1.053  99.923  27.970  0.00  0.00     0.011 C 
ATOM     28  H16 T2A d   1      -1.339 100.671  27.216  0.00  0.00     0.067 H 
ATOM     29  H17 T2A d   1      -0.032  99.568  27.766  0.00  0.00     0.067 H 
ATOM     30  H18 T2A d   1      -1.090 100.378  28.971  0.00  0.00     0.067 H 
ENDBRANCH  26  27
ENDBRANCH  17  26
BRANCH  18  31
ATOM     31  O24 T2A d   1      -2.896  99.040  30.504  0.00  0.00    -0.353 OA
BRANCH  31  32
ATOM     32  C25 T2A d   1      -2.707  99.369  31.875  0.00  0.00     0.010 C 
ATOM     33  H13 T2A d   1      -3.400 100.176  32.157  0.00  0.00     0.066 H 
ATOM     34  H14 T2A d   1      -1.671  99.704  32.032  0.00  0.00     0.066 H 
ATOM     35  H15 T2A d   1      -2.904  98.482  32.495  0.00  0.00     0.066 H 
ENDBRANCH  31  32
ENDBRANCH  18  31
ENDBRANCH  11  13
ENDBRANCH   6  11
BRANCH   9  36
ATOM     36  C10 T2A d   1      -0.408  91.164  28.097  0.00  0.00     0.012 A 
ATOM     37  C15 T2A d   1      -1.645  91.678  27.782  0.00  0.00    -0.069 A 
ATOM     38  C14 T2A d   1      -1.958  91.880  26.455  0.00  0.00    -0.082 A 
ATOM     39  H3  T2A d   1      -2.359  91.919  28.561  0.00  0.00     0.085 H 
ATOM     40  C13 T2A d   1      -1.043  91.573  25.470  0.00  0.00    -0.083 A 
ATOM     41  H6  T2A d   1      -2.928  92.282  26.184  0.00  0.00     0.083 H 
ATOM     42  C12 T2A d   1       0.194  91.059  25.796  0.00  0.00    -0.082 A 
ATOM     43  H2  T2A d   1      -1.299  91.737  24.430  0.00  0.00     0.083 H 
ATOM     44  C11 T2A d   1       0.512  90.852  27.119  0.00  0.00    -0.069 A 
ATOM     45  H5  T2A d   1       0.909  90.820  25.017  0.00  0.00     0.083 H 
ATOM     46  H4  T2A d   1       1.480  90.446  27.390  0.00  0.00     0.085 H 
ENDBRANCH   9  36
BRANCH   4  47
ATOM     47  C16 T2A d   1       1.131  88.759  32.147  0.00  0.00    -0.033 C 
ATOM     48  H7  T2A d   1       1.159  87.866  31.506  0.00  0.00     0.035 H 
ATOM     49  H8  T2A d   1       0.436  88.589  32.983  0.00  0.00     0.035 H 
ATOM     50  H9  T2A d   1       2.138  88.958  32.542  0.00  0.00     0.035 H 
ENDBRANCH   4  47
TORSDOF 10
