REMARK  7 active torsions:
REMARK  status: ('A' for Active; 'I' for Inactive)
REMARK    1  A    between atoms: PAM_2  and  CAL_5 
REMARK    2  A    between atoms: CAL_5  and  OAK_6 
REMARK    3  A    between atoms: OAK_6  and  CAJ_7 
REMARK    4  A    between atoms: CAJ_7  and  CAQ_8 
REMARK    5  A    between atoms: CAJ_7  and  CAA_10 
REMARK    6  A    between atoms: CAQ_8  and  OAR_9 
REMARK    7  A    between atoms: CAA_10  and  NAB_11 
ROOT
ATOM      1  CAJ CFV d   1     141.117  99.941  47.267  0.00  0.00     0.075 C 
ATOM      2  H3  CFV d   1     140.539  99.055  46.967  0.00  0.00     0.089 H 
ENDROOT
BRANCH   1   3
ATOM      3  OAK CFV d   1     140.844 101.026  46.458  0.00  0.00    -0.369 OA
BRANCH   3   4
ATOM      4  CAL CFV d   1     141.326 100.640  45.183  0.00  0.00     0.122 C 
ATOM      5  H1  CFV d   1     141.721 101.535  44.680  0.00  0.00     0.095 H 
ATOM      6  H2  CFV d   1     142.138  99.913  45.329  0.00  0.00     0.095 H 
BRANCH   4   7
ATOM      7  PAM CFV d   1     140.095  99.896  44.115  0.00  0.00     0.283 P 
ATOM      8  OAN CFV d   1     139.477 101.083  43.527  0.00  0.00    -0.638 OA
ATOM      9  OAO CFV d   1     140.903  99.087  43.212  0.00  0.00    -0.638 OA
ATOM     10  OAP CFV d   1     139.245  99.118  45.007  0.00  0.00    -0.638 OA
ENDBRANCH   4   7
ENDBRANCH   3   4
ENDBRANCH   1   3
BRANCH   1  11
ATOM     11  CAQ CFV d   1     142.543  99.862  47.069  0.00  0.00     0.042 C 
ATOM     12  H4  CFV d   1     143.003 100.856  47.167  0.00  0.00     0.077 H 
ATOM     13  H5  CFV d   1     142.774  99.447  46.077  0.00  0.00     0.077 H 
BRANCH  11  14
ATOM     14  OAR CFV d   1     142.999  99.009  48.076  0.00  0.00    -0.398 OA
ATOM     15  H6  CFV d   1     143.941  98.911  48.004  0.00  0.00     0.209 HD
ENDBRANCH  11  14
ENDBRANCH   1  11
BRANCH   1  16
ATOM     16  CAA CFV d   1     141.105 100.132  48.741  0.00  0.00     0.029 C 
ATOM     17  H7  CFV d   1     142.018 100.660  49.054  0.00  0.00     0.069 H 
ATOM     18  H8  CFV d   1     141.057  99.154  49.242  0.00  0.00     0.069 H 
BRANCH  16  19
ATOM     19  NAB CFV d   1     139.951 100.912  49.090  0.00  0.00    -0.319 N 
ATOM     20  CAC CFV d   1     138.711 100.539  48.712  0.00  0.00    -0.013 A 
ATOM     21  CAD CFV d   1     137.659 101.333  49.064  0.00  0.00    -0.024 A 
ATOM     22  H9  CFV d   1     138.554  99.626  48.140  0.00  0.00     0.111 H 
ATOM     23  CAE CFV d   1     137.908 102.453  49.781  0.00  0.00     0.124 A 
ATOM     24  H10 CFV d   1     136.642 101.071  48.775  0.00  0.00     0.091 H 
ATOM     25  NAF CFV d   1     136.926 103.216  50.125  0.00  0.00    -0.284 NA
ATOM     26  NAG CFV d   1     139.127 102.779  50.128  0.00  0.00    -0.305 N 
ATOM     27  H11 CFV d   1     137.101 104.053  50.659  0.00  0.00     0.188 HD
ATOM     28  CAH CFV d   1     140.133 102.017  49.790  0.00  0.00     0.259 A 
ATOM     29  H12 CFV d   1     139.289 103.614  50.654  0.00  0.00     0.171 HD
ATOM     30  OAI CFV d   1     141.371 102.318  50.128  0.00  0.00    -0.151 OA
ENDBRANCH  16  19
ENDBRANCH   1  16
TORSDOF 7
