REMARK  8 active torsions:
REMARK  status: ('A' for Active; 'I' for Inactive)
REMARK    1  A    between atoms: C4_4  and  N15_5 
REMARK    2  A    between atoms: C10_8  and  C18_9 
REMARK    3  A    between atoms: C18_9  and  C19_10 
REMARK    4  A    between atoms: C19_10  and  N20_11 
REMARK    5  A    between atoms: N20_11  and  C21_12 
REMARK    6  A    between atoms: C21_12  and  C22_13 
REMARK    7  A    between atoms: C12_21  and  N16_22 
REMARK    8  A    between atoms: N16_22  and  C17_23 
ROOT
ATOM      1  C18 PK2 d   1      15.172  16.223  18.875  0.00  0.00    -0.014 C 
ATOM      2  H5  PK2 d   1      14.851  16.951  18.115  0.00  0.00     0.042 H 
ATOM      3  H6  PK2 d   1      14.408  16.155  19.663  0.00  0.00     0.042 H 
ENDROOT
BRANCH   1   4
ATOM      4  C10 PK2 d   1      16.489  16.688  19.491  0.00  0.00     0.004 A 
ATOM      5  C6  PK2 d   1      16.751  16.825  20.869  0.00  0.00     0.073 A 
ATOM      6  N5  PK2 d   1      15.820  16.488  21.792  0.00  0.00    -0.190 N 
ATOM      7  C1  PK2 d   1      18.014  17.248  21.313  0.00  0.00     0.062 A 
ATOM      8  C4  PK2 d   1      15.958  16.624  23.061  0.00  0.00     0.679 A 
ATOM      9  H4  PK2 d   1      14.933  16.092  21.450  0.00  0.00     0.184 HD
ATOM     10  N3  PK2 d   1      17.144  17.009  23.593  0.00  0.00    -0.156 N 
ATOM     11  C2  PK2 d   1      18.169  17.380  22.814  0.00  0.00     0.272 A 
ATOM     12  H1  PK2 d   1      17.256  17.016  24.587  0.00  0.00     0.187 HD
ATOM     13  O14 PK2 d   1      19.247  17.753  23.221  0.00  0.00    -0.267 OA
ATOM     14  C7  PK2 d   1      19.056  17.667  20.466  0.00  0.00    -0.037 A 
ATOM     15  C8  PK2 d   1      18.717  17.622  19.104  0.00  0.00     0.080 A 
ATOM     16  H29 PK2 d   1      20.024  17.992  20.829  0.00  0.00     0.088 H 
ATOM     17  C9  PK2 d   1      17.524  17.124  18.653  0.00  0.00     0.111 A 
ATOM     18  N13 PK2 d   1      19.506  17.981  17.998  0.00  0.00    -0.188 N 
ATOM     19  N11 PK2 d   1      17.559  17.267  17.311  0.00  0.00    -0.062 NA
ATOM     20  C12 PK2 d   1      18.680  17.743  16.942  0.00  0.00     0.701 A 
ATOM     21  H28 PK2 d   1      20.473  18.337  17.988  0.00  0.00     0.184 HD
BRANCH   8  22
ATOM     22  N15 PK2 d   1      14.977  16.389  23.972  0.00  0.00    -0.234 N 
ATOM     23  H2  PK2 d   1      14.042  16.092  23.657  0.00  0.00     0.174 HD
ATOM     24  H3  PK2 d   1      15.168  16.508  24.977  0.00  0.00     0.174 HD
ENDBRANCH   8  22
BRANCH  20  25
ATOM     25  N16 PK2 d   1      19.022  18.098  15.690  0.00  0.00    -0.229 N 
ATOM     26  H24 PK2 d   1      19.953  18.517  15.555  0.00  0.00     0.177 HD
BRANCH  25  27
ATOM     27  C17 PK2 d   1      18.186  17.939  14.513  0.00  0.00    -0.005 C 
ATOM     28  H25 PK2 d   1      18.722  18.315  13.629  0.00  0.00     0.057 H 
ATOM     29  H26 PK2 d   1      17.254  18.508  14.646  0.00  0.00     0.057 H 
ATOM     30  H27 PK2 d   1      17.949  16.874  14.373  0.00  0.00     0.057 H 
ENDBRANCH  25  27
ENDBRANCH  20  25
ENDBRANCH   1   4
BRANCH   1  31
ATOM     31  C19 PK2 d   1      15.345  14.820  18.204  0.00  0.00     0.085 C 
ATOM     32  H7  PK2 d   1      15.231  14.027  18.958  0.00  0.00     0.076 H 
ATOM     33  H8  PK2 d   1      16.340  14.746  17.741  0.00  0.00     0.076 H 
BRANCH  31  34
ATOM     34  N20 PK2 d   1      14.274  14.682  17.146  0.00  0.00    -0.074 N 
ATOM     35  H9  PK2 d   1      14.503  13.915  16.533  0.00  0.00     0.277 HD
ATOM     36  H10 PK2 d   1      14.217  15.534  16.611  0.00  0.00     0.277 HD
BRANCH  34  37
ATOM     37  C21 PK2 d   1      12.959  14.418  17.807  0.00  0.00     0.085 C 
ATOM     38  H11 PK2 d   1      12.816  15.149  18.616  0.00  0.00     0.076 H 
ATOM     39  H12 PK2 d   1      12.972  13.402  18.229  0.00  0.00     0.076 H 
BRANCH  37  40
ATOM     40  C22 PK2 d   1      11.767  14.532  16.813  0.00  0.00    -0.031 C 
ATOM     41  C27 PK2 d   1      11.879  15.871  16.024  0.00  0.00    -0.060 C 
ATOM     42  C26 PK2 d   1      10.747  15.906  14.954  0.00  0.00    -0.065 C 
ATOM     43  H14 PK2 d   1      12.860  15.930  15.530  0.00  0.00     0.033 H 
ATOM     44  H15 PK2 d   1      11.764  16.720  16.714  0.00  0.00     0.033 H 
ATOM     45  C25 PK2 d   1       9.362  15.822  15.644  0.00  0.00    -0.065 C 
ATOM     46  H16 PK2 d   1      10.866  15.053  14.270  0.00  0.00     0.033 H 
ATOM     47  H17 PK2 d   1      10.813  16.844  14.384  0.00  0.00     0.033 H 
ATOM     48  C24 PK2 d   1       9.240  14.553  16.526  0.00  0.00    -0.065 C 
ATOM     49  H18 PK2 d   1       8.579  15.796  14.872  0.00  0.00     0.033 H 
ATOM     50  H19 PK2 d   1       9.224  16.711  16.277  0.00  0.00     0.033 H 
ATOM     51  C23 PK2 d   1      10.395  14.528  17.572  0.00  0.00    -0.060 C 
ATOM     52  H20 PK2 d   1       9.303  13.658  15.890  0.00  0.00     0.033 H 
ATOM     53  H21 PK2 d   1       8.273  14.563  17.049  0.00  0.00     0.033 H 
ATOM     54  H22 PK2 d   1      10.328  15.416  18.218  0.00  0.00     0.033 H 
ATOM     55  H23 PK2 d   1      10.316  13.620  18.188  0.00  0.00     0.033 H 
ATOM     56  H13 PK2 d   1      11.799  13.684  16.113  0.00  0.00     0.042 H 
ENDBRANCH  37  40
ENDBRANCH  34  37
ENDBRANCH  31  34
ENDBRANCH   1  31
TORSDOF 8
