REMARK  6 active torsions:
REMARK  status: ('A' for Active; 'I' for Inactive)
REMARK    1  A    between atoms: C11_2  and  N5_3 
REMARK    2  A    between atoms: N5_3  and  C12_4 
REMARK    3  A    between atoms: C8_8  and  C9_9 
REMARK    4  A    between atoms: C9_9  and  C10_19 
REMARK    5  A    between atoms: C4_12  and  N3_13 
REMARK    6  A    between atoms: C10_19  and  O2_20 
ROOT
ATOM      1  N6  PK3 d   1      17.435  17.273  17.190  0.00  0.00    -0.187 N 
ATOM      2  C11 PK3 d   1      18.747  17.735  16.923  0.00  0.00     0.701 A 
ATOM      3  N4  PK3 d   1      19.464  17.962  18.035  0.00  0.00    -0.063 NA
ATOM      4  C6  PK3 d   1      18.713  17.639  19.089  0.00  0.00     0.104 A 
ATOM      5  C7  PK3 d   1      17.483  17.224  18.607  0.00  0.00     0.087 A 
ATOM      6  C8  PK3 d   1      16.441  16.867  19.474  0.00  0.00     0.002 A 
ATOM      7  C3  PK3 d   1      16.704  16.848  20.856  0.00  0.00     0.073 A 
ATOM      8  N2  PK3 d   1      15.757  16.527  21.774  0.00  0.00    -0.190 N 
ATOM      9  C4  PK3 d   1      15.931  16.581  23.154  0.00  0.00     0.679 A 
ATOM     10  N1  PK3 d   1      17.140  16.971  23.630  0.00  0.00    -0.156 N 
ATOM     11  C1  PK3 d   1      18.146  17.354  22.823  0.00  0.00     0.272 A 
ATOM     12  O1  PK3 d   1      19.225  17.731  23.231  0.00  0.00    -0.267 OA
ATOM     13  C2  PK3 d   1      17.953  17.290  21.324  0.00  0.00     0.063 A 
ATOM     14  C5  PK3 d   1      18.971  17.710  20.457  0.00  0.00    -0.035 A 
ATOM     15  H1  PK3 d   1      16.668  17.040  16.543  0.00  0.00     0.184 HD
ATOM     16  H8  PK3 d   1      14.839  16.220  21.422  0.00  0.00     0.184 HD
ATOM     17  H11 PK3 d   1      17.289  16.974  24.619  0.00  0.00     0.187 HD
ATOM     18  H12 PK3 d   1      19.919  18.075  20.834  0.00  0.00     0.088 H 
ENDROOT
BRANCH   6  19
ATOM     19  C9  PK3 d   1      15.140  16.291  18.836  0.00  0.00    -0.017 C 
ATOM     20  H6  PK3 d   1      14.853  16.909  17.973  0.00  0.00     0.043 H 
ATOM     21  H7  PK3 d   1      14.332  16.305  19.582  0.00  0.00     0.043 H 
BRANCH  19  22
ATOM     22  C10 PK3 d   1      15.382  14.813  18.360  0.00  0.00     0.021 C 
ATOM     23  H13 PK3 d   1      15.266  14.135  19.219  0.00  0.00     0.074 H 
ATOM     24  H14 PK3 d   1      16.403  14.727  17.960  0.00  0.00     0.074 H 
BRANCH  22  25
ATOM     25  O2  PK3 d   1      14.450  14.441  17.343  0.00  0.00    -0.401 OA
ATOM     26  H15 PK3 d   1      14.549  15.021  16.597  0.00  0.00     0.209 HD
ENDBRANCH  22  25
ENDBRANCH  19  22
ENDBRANCH   6  19
BRANCH   2  27
ATOM     27  N5  PK3 d   1      19.175  17.933  15.655  0.00  0.00    -0.229 N 
ATOM     28  H2  PK3 d   1      20.176  18.067  15.450  0.00  0.00     0.177 HD
BRANCH  27  29
ATOM     29  C12 PK3 d   1      18.181  17.952  14.581  0.00  0.00    -0.005 C 
ATOM     30  H3  PK3 d   1      18.685  18.122  13.618  0.00  0.00     0.057 H 
ATOM     31  H4  PK3 d   1      17.458  18.761  14.764  0.00  0.00     0.057 H 
ATOM     32  H5  PK3 d   1      17.653  16.988  14.553  0.00  0.00     0.057 H 
ENDBRANCH  27  29
ENDBRANCH   2  27
BRANCH   9  33
ATOM     33  N3  PK3 d   1      14.962  16.223  23.916  0.00  0.00    -0.234 N 
ATOM     34  H9  PK3 d   1      15.072  16.256  24.939  0.00  0.00     0.174 HD
ATOM     35  H10 PK3 d   1      14.074  15.902  23.504  0.00  0.00     0.174 HD
ENDBRANCH   9  33
TORSDOF 6
