REMARK WARNING: 32 MAX_TORS EXCEEDED!!!
REMARK  41 active torsions:
REMARK  status: ('A' for Active; 'I' for Inactive)
REMARK    1  A    between atoms: CA_2  and  CB_3 
REMARK    2  A    between atoms: N_6  and  CN_7 
REMARK    3  A    between atoms: CA_8  and  CB_9 
REMARK    4  A    between atoms: CB_9  and  CG_10 
REMARK    5  A    between atoms: CG_10  and  CD1_11 
REMARK    6  A    between atoms: CG_10  and  CD2_12 
REMARK    7  A    between atoms: N_15  and  CN_16 
REMARK    8  A    between atoms: CA_17  and  CB_18 
REMARK    9  A    between atoms: CB_18  and  CG_19 
REMARK   10  A    between atoms: CG_19  and  CD1_20 
REMARK   11  A    between atoms: CG_19  and  CD2_21 
REMARK   12  A    between atoms: N_24  and  CN_25 
REMARK   13  A    between atoms: CA_26  and  CB_27 
REMARK   14  A    between atoms: CB_27  and  CG1_28 
REMARK   15  A    between atoms: CB_27  and  CG2_29 
REMARK   16  A    between atoms: N_32  and  CN_33 
REMARK   17  A    between atoms: CA_34  and  CB_37 
REMARK   18  A    between atoms: CB_37  and  OG1_38 
REMARK   19  A    between atoms: CB_37  and  CG2_39 
REMARK   20  A    between atoms: CG2_39  and  CD1_40 
REMARK   21  A    between atoms: CG2_39  and  CD2_41 
REMARK   22  A    between atoms: CD2_41  and  CE_42 
REMARK   23  A    between atoms: CE_42  and  CZ_43 
REMARK   24  A    between atoms: CZ_43  and  CH_44 
REMARK   25  A    between atoms: CA_46  and  CB_49 
REMARK   26  A    between atoms: CB_49  and  CG_50 
REMARK   27  A    between atoms: N_51  and  CN_55 
REMARK   28  A    between atoms: N_56  and  CN_57 
REMARK   29  A    between atoms: CA_58  and  CB_59 
REMARK   30  A    between atoms: CB_59  and  CG_60 
REMARK   31  A    between atoms: CG_60  and  CD1_61 
REMARK   32  A    between atoms: CG_60  and  CD2_62 
REMARK   33  A    between atoms: CA_66  and  CB_69 
REMARK   34  A    between atoms: CB_69  and  CG1_70 
REMARK   35  A    between atoms: CB_69  and  CG2_71 
REMARK   36  A    between atoms: N_72  and  CN_73 
REMARK   37  A    between atoms: CA_74  and  CB_75 
REMARK   38  A    between atoms: CB_75  and  CG_76 
REMARK   39  A    between atoms: CG_76  and  CD1_77 
REMARK   40  A    between atoms: CG_76  and  CD2_78 
REMARK   41  A    between atoms: CA_82  and  CB_85 
ROOT
ATOM      1  N   DAL d   1       5.226  13.107  19.517  0.00  0.00    -0.346 N 
ATOM      2  CA  DAL d   1       4.610  13.211  18.206  0.00  0.00     0.086 C 
ATOM      3  C   DAL d   1       4.828  11.911  17.445  0.00  0.00     0.242 C 
ATOM      4  O   DAL d   1       4.842  10.826  18.033  0.00  0.00    -0.271 OA
ATOM      5  H   DAL d   1       4.651  12.816  20.308  0.00  0.00     0.163 HD
ATOM      6  H   DAL d   1       5.064  14.031  17.650  0.00  0.00     0.086 H 
ATOM      7  N   MLE d   1       4.998  12.011  16.133  0.00  0.00    -0.341 N 
ATOM      8  CA  MLE d   1       5.224  10.813  15.324  0.00  0.00     0.091 C 
ATOM      9  C   MLE d   1       6.499  10.890  14.483  0.00  0.00     0.243 C 
ATOM     10  O   MLE d   1       6.463  11.162  13.283  0.00  0.00    -0.271 OA
ATOM     11  N   MLE d   1       7.628  10.618  15.130  0.00  0.00    -0.341 N 
ATOM     12  CA  MLE d   1       8.938  10.675  14.471  0.00  0.00     0.091 C 
ATOM     13  C   MLE d   1       9.710   9.332  14.346  0.00  0.00     0.243 C 
ATOM     14  O   MLE d   1       9.505   8.393  15.119  0.00  0.00    -0.271 OA
ATOM     15  N   MLE d   1      17.203   9.207  20.175  0.00  0.00    -0.342 N 
ATOM     16  CA  MLE d   1      16.340   9.878  21.142  0.00  0.00     0.091 C 
ATOM     17  C   MLE d   1      14.896   9.368  21.127  0.00  0.00     0.241 C 
ATOM     18  O   MLE d   1      14.469   8.736  22.092  0.00  0.00    -0.271 OA
ATOM     19  N   MLE d   1      11.342  11.118  20.334  0.00  0.00    -0.341 N 
ATOM     20  CA  MLE d   1      10.635  12.112  21.120  0.00  0.00     0.091 C 
ATOM     21  C   MLE d   1       9.120  12.030  21.022  0.00  0.00     0.241 C 
ATOM     22  O   MLE d   1       8.569  10.962  20.796  0.00  0.00    -0.271 OA
ATOM     23  H   MLE d   1       5.372   9.981  16.012  0.00  0.00     0.087 H 
ATOM     24  H   MLE d   1       8.729  10.952  13.438  0.00  0.00     0.087 H 
ATOM     25  H   MLE d   1      16.753   9.626  22.119  0.00  0.00     0.087 H 
ATOM     26  H   MLE d   1      10.858  11.905  22.167  0.00  0.00     0.087 H 
ATOM     27  N   MVA d   1      10.593   9.243  13.361  0.00  0.00    -0.341 N 
ATOM     28  CA  MVA d   1      11.392   8.033  13.203  0.00  0.00     0.094 C 
ATOM     29  C   MVA d   1      12.884   8.373  13.359  0.00  0.00     0.243 C 
ATOM     30  O   MVA d   1      13.639   8.422  12.373  0.00  0.00    -0.271 OA
ATOM     31  H   MVA d   1      11.047   7.347  13.977  0.00  0.00     0.088 H 
ATOM     32  N   BMT d   1      13.310   8.630  14.595  0.00  0.00    -0.339 N 
ATOM     33  CA  BMT d   1      14.711   8.961  14.853  0.00  0.00     0.116 C 
ATOM     34  C   BMT d   1      15.560   7.761  15.276  0.00  0.00     0.243 C 
ATOM     35  O   BMT d   1      15.041   6.664  15.456  0.00  0.00    -0.271 OA
ATOM     36  H   BMT d   1      15.119   9.255  13.886  0.00  0.00     0.091 H 
ATOM     37  N   ABA d   1      16.865   7.963  15.404  0.00  0.00    -0.346 N 
ATOM     38  CA  ABA d   1      17.768   6.889  15.785  0.00  0.00     0.089 C 
ATOM     39  C   ABA d   1      18.543   7.310  17.020  0.00  0.00     0.242 C 
ATOM     40  O   ABA d   1      19.618   7.887  16.910  0.00  0.00    -0.271 OA
ATOM     41  H   ABA d   1      17.244   8.894  15.231  0.00  0.00     0.163 HD
ATOM     42  H   ABA d   1      17.202   5.982  15.998  0.00  0.00     0.087 H 
ATOM     43  N   SAR d   1      17.982   7.026  18.190  0.00  0.00    -0.346 N 
ATOM     44  CA  SAR d   1      18.645   7.395  19.424  0.00  0.00     0.071 C 
ATOM     45  C   SAR d   1      17.762   8.042  20.483  0.00  0.00     0.238 C 
ATOM     46  O   SAR d   1      17.588   7.496  21.583  0.00  0.00    -0.272 OA
ATOM     47  H   SAR d   1      19.400   8.135  19.159  0.00  0.00     0.079 H 
ATOM     48  H   SAR d   1      19.021   6.470  19.860  0.00  0.00     0.079 H 
ATOM     49  N   VAL d   1      14.153   9.597  20.047  0.00  0.00    -0.346 N 
ATOM     50  CA  VAL d   1      12.749   9.158  19.989  0.00  0.00     0.092 C 
ATOM     51  C   VAL d   1      11.984  10.106  20.917  0.00  0.00     0.243 C 
ATOM     52  O   VAL d   1      11.965   9.912  22.138  0.00  0.00    -0.271 OA
ATOM     53  H   VAL d   1      14.562  10.083  19.249  0.00  0.00     0.163 HD
ATOM     54  H   VAL d   1      12.408   9.175  18.954  0.00  0.00     0.088 H 
ATOM     55  N   ALA d   1       8.449  13.161  21.210  0.00  0.00    -0.346 N 
ATOM     56  CA  ALA d   1       6.996  13.210  21.157  0.00  0.00     0.086 C 
ATOM     57  C   ALA d   1       6.510  13.377  19.725  0.00  0.00     0.240 C 
ATOM     58  O   ALA d   1       7.275  13.736  18.837  0.00  0.00    -0.271 OA
ATOM     59  H   ALA d   1       8.967  14.019  21.397  0.00  0.00     0.163 HD
ATOM     60  H   ALA d   1       6.609  12.266  21.541  0.00  0.00     0.086 H 
ENDROOT
BRANCH  33  61
ATOM     61  CB  BMT d   1      14.887  10.203  15.759  0.00  0.00     0.067 C 
ATOM     62  H   BMT d   1      15.941  10.475  15.695  0.00  0.00     0.087 H 
BRANCH  61  63
ATOM     63  OG1 BMT d   1      14.522   9.884  17.099  0.00  0.00    -0.393 OA
ATOM     64  H   BMT d   1      14.634  10.660  17.653  0.00  0.00     0.210 HD
ENDBRANCH  61  63
BRANCH  61  65
ATOM     65  CG2 BMT d   1      14.080  11.421  15.299  0.00  0.00    -0.030 C 
ATOM     66  H   BMT d   1      13.016  11.202  15.391  0.00  0.00     0.043 H 
BRANCH  65  67
ATOM     67  CD1 BMT d   1      14.358  11.726  13.816  0.00  0.00    -0.070 C 
ATOM     68  H   BMT d   1      15.420  11.934  13.682  0.00  0.00     0.028 H 
ATOM     69  H   BMT d   1      14.076  10.865  13.210  0.00  0.00     0.028 H 
ATOM     70  H   BMT d   1      13.775  12.595  13.509  0.00  0.00     0.028 H 
ENDBRANCH  65  67
BRANCH  65  71
ATOM     71  CD2 BMT d   1      14.395  12.618  16.189  0.00  0.00    -0.060 C 
ATOM     72  H   BMT d   1      14.114  12.374  17.214  0.00  0.00     0.033 H 
ATOM     73  H   BMT d   1      13.837  13.480  15.824  0.00  0.00     0.033 H 
BRANCH  71  74
ATOM     74  CE  BMT d   1      15.872  12.948  16.157  0.00  0.00    -0.065 C 
ATOM     75  H   BMT d   1      16.006  13.913  15.668  0.00  0.00     0.033 H 
ATOM     76  H   BMT d   1      16.396  12.163  15.613  0.00  0.00     0.033 H 
BRANCH  74  77
ATOM     77  CZ  BMT d   1      16.387  13.022  17.443  0.00  0.00    -0.069 C 
ATOM     78  H   BMT d   1      16.600  12.011  17.791  0.00  0.00     0.032 H 
ATOM     79  H   BMT d   1      15.655  13.513  18.084  0.00  0.00     0.032 H 
BRANCH  77  80
ATOM     80  CH  BMT d   1      17.651  13.812  17.472  0.00  0.00    -0.077 C 
ATOM     81  H   BMT d   1      18.390  13.336  16.827  0.00  0.00     0.027 H 
ATOM     82  H   BMT d   1      17.454  14.823  17.117  0.00  0.00     0.027 H 
ATOM     83  H   BMT d   1      18.030  13.852  18.493  0.00  0.00     0.027 H 
ENDBRANCH  77  80
ENDBRANCH  74  77
ENDBRANCH  71  74
ENDBRANCH  65  71
ENDBRANCH  61  65
ENDBRANCH  33  61
BRANCH  32  84
ATOM     84  CN  BMT d   1      12.635   8.274  15.837  0.00  0.00    -0.015 C 
ATOM     85  H   BMT d   1      11.653   8.747  15.864  0.00  0.00     0.056 H 
ATOM     86  H   BMT d   1      12.520   7.191  15.889  0.00  0.00     0.056 H 
ATOM     87  H   BMT d   1      13.229   8.618  16.683  0.00  0.00     0.056 H 
ENDBRANCH  32  84
BRANCH  28  88
ATOM     88  CB  MVA d   1      11.199   7.317  11.816  0.00  0.00    -0.033 C 
ATOM     89  H   MVA d   1      11.738   7.880  11.054  0.00  0.00     0.042 H 
BRANCH  88  90
ATOM     90  CG1 MVA d   1      11.740   5.910  11.918  0.00  0.00    -0.071 C 
ATOM     91  H   MVA d   1      12.799   5.947  12.172  0.00  0.00     0.028 H 
ATOM     92  H   MVA d   1      11.198   5.369  12.693  0.00  0.00     0.028 H 
ATOM     93  H   MVA d   1      11.612   5.403  10.962  0.00  0.00     0.028 H 
ENDBRANCH  88  90
BRANCH  88  94
ATOM     94  CG2 MVA d   1       9.719   7.274  11.404  0.00  0.00    -0.071 C 
ATOM     95  H   MVA d   1       9.149   6.728  12.156  0.00  0.00     0.028 H 
ATOM     96  H   MVA d   1       9.336   8.291  11.323  0.00  0.00     0.028 H 
ATOM     97  H   MVA d   1       9.626   6.772  10.441  0.00  0.00     0.028 H 
ENDBRANCH  88  94
ENDBRANCH  28  88
BRANCH  38  98
ATOM     98  CB  ABA d   1      18.745   6.627  14.636  0.00  0.00    -0.041 C 
ATOM     99  H   ABA d   1      19.520   5.957  15.009  0.00  0.00     0.036 H 
ATOM    100  H   ABA d   1      19.131   7.591  14.305  0.00  0.00     0.036 H 
BRANCH  98 101
ATOM    101  CG  ABA d   1      18.105   5.966  13.454  0.00  0.00    -0.074 C 
ATOM    102  H   ABA d   1      17.689   5.005  13.758  0.00  0.00     0.027 H 
ATOM    103  H   ABA d   1      17.308   6.603  13.070  0.00  0.00     0.027 H 
ATOM    104  H   ABA d   1      18.854   5.810  12.677  0.00  0.00     0.027 H 
ENDBRANCH  98 101
ENDBRANCH  38  98
BRANCH  27 105
ATOM    105  CN  MVA d   1      11.090  10.306  12.487  0.00  0.00    -0.015 C 
ATOM    106  H   MVA d   1      10.256  10.744  11.939  0.00  0.00     0.056 H 
ATOM    107  H   MVA d   1      11.573  11.074  13.090  0.00  0.00     0.056 H 
ATOM    108  H   MVA d   1      11.810   9.889  11.783  0.00  0.00     0.056 H 
ENDBRANCH  27 105
BRANCH  43 109
ATOM    109  CN  SAR d   1      16.737   6.320  18.489  0.00  0.00    -0.015 C 
ATOM    110  H   SAR d   1      15.901   6.852  18.035  0.00  0.00     0.056 H 
ATOM    111  H   SAR d   1      16.788   5.309  18.085  0.00  0.00     0.056 H 
ATOM    112  H   SAR d   1      16.597   6.275  19.569  0.00  0.00     0.056 H 
ENDBRANCH  43 109
BRANCH  12 113
ATOM    113  CB  MLE d   1       9.811  11.724  15.196  0.00  0.00    -0.035 C 
ATOM    114  H   MLE d   1      10.739  11.755  14.625  0.00  0.00     0.037 H 
ATOM    115  H   MLE d   1       9.833  11.396  16.235  0.00  0.00     0.037 H 
BRANCH 113 116
ATOM    116  CG  MLE d   1       9.338  13.190  15.257  0.00  0.00    -0.059 C 
ATOM    117  H   MLE d   1       8.370  13.226  15.756  0.00  0.00     0.038 H 
BRANCH 116 118
ATOM    118  CD1 MLE d   1      10.338  14.025  16.051  0.00  0.00    -0.073 C 
ATOM    119  H   MLE d   1      10.417  13.629  17.064  0.00  0.00     0.028 H 
ATOM    120  H   MLE d   1      11.313  13.981  15.565  0.00  0.00     0.028 H 
ATOM    121  H   MLE d   1       9.996  15.059  16.089  0.00  0.00     0.028 H 
ENDBRANCH 116 118
BRANCH 116 122
ATOM    122  CD2 MLE d   1       9.179  13.756  13.851  0.00  0.00    -0.073 C 
ATOM    123  H   MLE d   1      10.137  13.713  13.333  0.00  0.00     0.028 H 
ATOM    124  H   MLE d   1       8.442  13.167  13.305  0.00  0.00     0.028 H 
ATOM    125  H   MLE d   1       8.845  14.792  13.913  0.00  0.00     0.028 H 
ENDBRANCH 116 122
ENDBRANCH 113 116
ENDBRANCH  12 113
BRANCH  11 126
ATOM    126  CN  MLE d   1       7.765  10.153  16.510  0.00  0.00    -0.015 C 
ATOM    127  H   MLE d   1       7.330  10.890  17.185  0.00  0.00     0.056 H 
ATOM    128  H   MLE d   1       7.245   9.202  16.625  0.00  0.00     0.056 H 
ATOM    129  H   MLE d   1       8.821  10.022  16.745  0.00  0.00     0.056 H 
ENDBRANCH  11 126
BRANCH  15 130
ATOM    130  CN  MLE d   1      17.664  10.136  19.143  0.00  0.00    -0.015 C 
ATOM    131  H   MLE d   1      18.682  10.453  19.370  0.00  0.00     0.056 H 
ATOM    132  H   MLE d   1      17.644   9.639  18.173  0.00  0.00     0.056 H 
ATOM    133  H   MLE d   1      17.008  11.006  19.120  0.00  0.00     0.056 H 
ENDBRANCH  15 130
BRANCH   8 134
ATOM    134  CB  MLE d   1       3.992  10.529  14.448  0.00  0.00    -0.035 C 
ATOM    135  H   MLE d   1       4.254   9.709  13.779  0.00  0.00     0.037 H 
ATOM    136  H   MLE d   1       3.739  11.457  13.936  0.00  0.00     0.037 H 
BRANCH 134 137
ATOM    137  CG  MLE d   1       2.742  10.090  15.242  0.00  0.00    -0.059 C 
ATOM    138  H   MLE d   1       2.467  10.887  15.932  0.00  0.00     0.038 H 
BRANCH 137 139
ATOM    139  CD1 MLE d   1       1.615   9.825  14.284  0.00  0.00    -0.073 C 
ATOM    140  H   MLE d   1       1.393  10.734  13.725  0.00  0.00     0.028 H 
ATOM    141  H   MLE d   1       1.906   9.034  13.593  0.00  0.00     0.028 H 
ATOM    142  H   MLE d   1       0.731   9.515  14.842  0.00  0.00     0.028 H 
ENDBRANCH 137 139
BRANCH 137 143
ATOM    143  CD2 MLE d   1       3.030   8.829  16.046  0.00  0.00    -0.073 C 
ATOM    144  H   MLE d   1       3.318   8.025  15.368  0.00  0.00     0.028 H 
ATOM    145  H   MLE d   1       3.842   9.024  16.746  0.00  0.00     0.028 H 
ATOM    146  H   MLE d   1       2.135   8.539  16.597  0.00  0.00     0.028 H 
ENDBRANCH 137 143
ENDBRANCH 134 137
ENDBRANCH   8 134
BRANCH  16 147
ATOM    147  CB  MLE d   1      16.373  11.407  20.976  0.00  0.00    -0.035 C 
ATOM    148  H   MLE d   1      15.338  11.746  20.951  0.00  0.00     0.037 H 
ATOM    149  H   MLE d   1      16.942  11.616  20.070  0.00  0.00     0.037 H 
BRANCH 147 150
ATOM    150  CG  MLE d   1      17.068  12.165  22.130  0.00  0.00    -0.059 C 
ATOM    151  H   MLE d   1      17.170  13.210  21.837  0.00  0.00     0.038 H 
BRANCH 150 152
ATOM    152  CD1 MLE d   1      16.230  12.066  23.394  0.00  0.00    -0.073 C 
ATOM    153  H   MLE d   1      15.249  12.506  23.214  0.00  0.00     0.028 H 
ATOM    154  H   MLE d   1      16.114  11.018  23.670  0.00  0.00     0.028 H 
ATOM    155  H   MLE d   1      16.728  12.603  24.201  0.00  0.00     0.028 H 
ENDBRANCH 150 152
BRANCH 150 156
ATOM    156  CD2 MLE d   1      18.449  11.595  22.397  0.00  0.00    -0.073 C 
ATOM    157  H   MLE d   1      18.360  10.544  22.671  0.00  0.00     0.028 H 
ATOM    158  H   MLE d   1      19.059  11.688  21.498  0.00  0.00     0.028 H 
ATOM    159  H   MLE d   1      18.916  12.146  23.213  0.00  0.00     0.028 H 
ENDBRANCH 150 156
ENDBRANCH 147 150
ENDBRANCH  16 147
BRANCH   7 160
ATOM    160  CN  MLE d   1       4.911  13.197  15.273  0.00  0.00    -0.015 C 
ATOM    161  H   MLE d   1       5.843  13.312  14.719  0.00  0.00     0.056 H 
ATOM    162  H   MLE d   1       4.083  13.077  14.574  0.00  0.00     0.056 H 
ATOM    163  H   MLE d   1       4.743  14.080  15.890  0.00  0.00     0.056 H 
ENDBRANCH   7 160
BRANCH   2 164
ATOM    164  CB  DAL d   1       3.136  13.488  18.357  0.00  0.00    -0.049 C 
ATOM    165  H   DAL d   1       2.680  13.572  17.370  0.00  0.00     0.030 H 
ATOM    166  H   DAL d   1       2.668  12.671  18.906  0.00  0.00     0.030 H 
ATOM    167  H   DAL d   1       2.997  14.421  18.903  0.00  0.00     0.030 H 
ENDBRANCH   2 164
BRANCH  50 168
ATOM    168  CB  VAL d   1      12.541   7.690  20.512  0.00  0.00    -0.033 C 
ATOM    169  H   VAL d   1      12.843   7.655  21.559  0.00  0.00     0.042 H 
BRANCH 168 170
ATOM    170  CG1 VAL d   1      11.078   7.296  20.396  0.00  0.00    -0.071 C 
ATOM    171  H   VAL d   1      10.471   7.978  20.992  0.00  0.00     0.028 H 
ATOM    172  H   VAL d   1      10.770   7.351  19.352  0.00  0.00     0.028 H 
ATOM    173  H   VAL d   1      10.947   6.277  20.761  0.00  0.00     0.028 H 
ENDBRANCH 168 170
BRANCH 168 174
ATOM    174  CG2 VAL d   1      13.394   6.716  19.726  0.00  0.00    -0.071 C 
ATOM    175  H   VAL d   1      13.115   6.758  18.673  0.00  0.00     0.028 H 
ATOM    176  H   VAL d   1      14.445   6.984  19.836  0.00  0.00     0.028 H 
ATOM    177  H   VAL d   1      13.234   5.707  20.105  0.00  0.00     0.028 H 
ENDBRANCH 168 174
ENDBRANCH  50 168
BRANCH  19 178
ATOM    178  CN  MLE d   1      10.907  11.197  18.944  0.00  0.00    -0.015 C 
ATOM    179  H   MLE d   1      11.774  11.115  18.288  0.00  0.00     0.056 H 
ATOM    180  H   MLE d   1      10.213  10.383  18.735  0.00  0.00     0.056 H 
ATOM    181  H   MLE d   1      10.410  12.152  18.774  0.00  0.00     0.056 H 
ENDBRANCH  19 178
BRANCH  56 182
ATOM    182  CB  ALA d   1       6.472  14.355  22.030  0.00  0.00    -0.049 C 
ATOM    183  H   ALA d   1       6.787  14.197  23.062  0.00  0.00     0.030 H 
ATOM    184  H   ALA d   1       6.875  15.301  21.667  0.00  0.00     0.030 H 
ATOM    185  H   ALA d   1       5.383  14.379  21.980  0.00  0.00     0.030 H 
ENDBRANCH  56 182
BRANCH  20 186
ATOM    186  CB  MLE d   1      11.133  13.508  20.723  0.00  0.00    -0.035 C 
ATOM    187  H   MLE d   1      10.681  14.239  21.394  0.00  0.00     0.037 H 
ATOM    188  H   MLE d   1      10.855  13.691  19.685  0.00  0.00     0.037 H 
BRANCH 186 189
ATOM    189  CG  MLE d   1      12.662  13.619  20.843  0.00  0.00    -0.059 C 
ATOM    190  H   MLE d   1      13.116  12.758  20.351  0.00  0.00     0.038 H 
BRANCH 189 191
ATOM    191  CD1 MLE d   1      13.196  14.854  20.140  0.00  0.00    -0.073 C 
ATOM    192  H   MLE d   1      12.938  14.808  19.082  0.00  0.00     0.028 H 
ATOM    193  H   MLE d   1      12.752  15.744  20.585  0.00  0.00     0.028 H 
ATOM    194  H   MLE d   1      14.280  14.893  20.250  0.00  0.00     0.028 H 
ENDBRANCH 189 191
BRANCH 189 195
ATOM    195  CD2 MLE d   1      13.035  13.629  22.298  0.00  0.00    -0.073 C 
ATOM    196  H   MLE d   1      12.563  14.481  22.787  0.00  0.00     0.028 H 
ATOM    197  H   MLE d   1      12.694  12.706  22.766  0.00  0.00     0.028 H 
ATOM    198  H   MLE d   1      14.118  13.707  22.394  0.00  0.00     0.028 H 
ENDBRANCH 189 195
ENDBRANCH 186 189
ENDBRANCH  20 186
TORSDOF 41
