REMARK  4 active torsions:
REMARK  status: ('A' for Active; 'I' for Inactive)
REMARK    1  A    between atoms: C_1  and  C1_3 
REMARK       I    between atoms: C_1  and  N_16 
REMARK    2  A    between atoms: C1_3  and  C2_4 
REMARK    3  A    between atoms: C2_4  and  N3_5 
REMARK    4  A    between atoms: CA_18  and  C3_21 
REMARK       I    between atoms: C3_21  and  N1_25 
ROOT
ATOM      1  C   X99 d   1       6.773  38.021  30.682  0.00  0.00     0.222 C 
ATOM      2  O   X99 d   1       7.422  37.914  29.634  0.00  0.00    -0.273 OA
ATOM      3  N   X99 d   1       5.430  38.009  30.683  0.00  0.00    -0.333 N 
ATOM      4  CD  X99 d   1       4.483  38.425  31.731  0.00  0.00     0.059 C 
ATOM      5  CA  X99 d   1       4.729  37.572  29.472  0.00  0.00     0.097 C 
ATOM      6  CB  X99 d   1       3.499  36.895  30.017  0.00  0.00     0.025 C 
ATOM      7  CG  X99 d   1       3.218  37.631  31.336  0.00  0.00     0.261 C 
ATOM      8  F1  X99 d   1       2.929  36.729  32.305  0.00  0.00    -0.204 F 
ATOM      9  F2  X99 d   1       2.178  38.481  31.155  0.00  0.00    -0.204 F 
ATOM     10  H9  X99 d   1       4.302  39.510  31.701  0.00  0.00     0.073 H 
ATOM     11  H10 X99 d   1       4.840  38.140  32.731  0.00  0.00     0.073 H 
ATOM     12  H11 X99 d   1       5.347  36.852  28.915  0.00  0.00     0.088 H 
ATOM     13  H12 X99 d   1       3.689  35.827  30.199  0.00  0.00     0.045 H 
ATOM     14  H13 X99 d   1       2.653  37.003  29.322  0.00  0.00     0.045 H 
ENDROOT
BRANCH   1  15
ATOM     15  C1  X99 d   1       7.312  38.436  31.837  0.00  0.00     0.025 C 
ATOM     16  H1  X99 d   1       7.134  37.676  32.612  0.00  0.00     0.049 H 
ATOM     17  H2  X99 d   1       6.838  39.382  32.137  0.00  0.00     0.049 H 
BRANCH  15  18
ATOM     18  C2  X99 d   1       8.831  38.657  31.684  0.00  0.00     0.014 C 
ATOM     19  H3  X99 d   1       9.019  39.631  31.209  0.00  0.00     0.065 H 
ATOM     20  H4  X99 d   1       9.263  37.858  31.064  0.00  0.00     0.065 H 
BRANCH  18  21
ATOM     21  N3  X99 d   1       9.430  38.631  33.006  0.00  0.00    -0.279 N 
ATOM     22  C4  X99 d   1      10.075  37.580  33.534  0.00  0.00     0.261 A 
ATOM     23  O6  X99 d   1      10.210  36.482  33.024  0.00  0.00    -0.267 OA
ATOM     24  C8  X99 d   1      10.584  37.941  34.905  0.00  0.00     0.048 A 
ATOM     25  C9  X99 d   1      11.303  37.212  35.868  0.00  0.00    -0.067 A 
ATOM     26  C13 X99 d   1      10.184  39.261  35.122  0.00  0.00     0.048 A 
ATOM     27  C10 X99 d   1      11.591  37.880  37.073  0.00  0.00    -0.082 A 
ATOM     28  H5  X99 d   1      11.619  36.190  35.692  0.00  0.00     0.085 H 
ATOM     29  C11 X99 d   1      11.187  39.214  37.291  0.00  0.00    -0.082 A 
ATOM     30  H6  X99 d   1      12.136  37.358  37.851  0.00  0.00     0.083 H 
ATOM     31  C12 X99 d   1      10.470  39.932  36.318  0.00  0.00    -0.067 A 
ATOM     32  H7  X99 d   1      11.435  39.696  38.230  0.00  0.00     0.083 H 
ATOM     33  H8  X99 d   1      10.154  40.955  36.485  0.00  0.00     0.085 H 
ATOM     34  C5  X99 d   1       9.440  39.671  33.873  0.00  0.00     0.261 A 
ATOM     35  O7  X99 d   1       8.925  40.777  33.704  0.00  0.00    -0.267 OA
ENDBRANCH  18  21
ENDBRANCH  15  18
ENDBRANCH   1  15
BRANCH   5  36
ATOM     36  C3  X99 d   1       4.380  38.725  28.543  0.00  0.00     0.243 C 
ATOM     37  O1  X99 d   1       4.702  39.883  28.819  0.00  0.00    -0.271 OA
ATOM     38  N1  X99 d   1       3.697  38.426  27.426  0.00  0.00    -0.350 N 
ATOM     39  CD1 X99 d   1       3.222  37.069  27.098  0.00  0.00    -0.002 C 
ATOM     40  CA1 X99 d   1       3.288  39.404  26.421  0.00  0.00    -0.002 C 
ATOM     41  CG1 X99 d   1       2.344  37.288  25.900  0.00  0.00    -0.049 C 
ATOM     42  H14 X99 d   1       2.649  36.640  27.933  0.00  0.00     0.064 H 
ATOM     43  H15 X99 d   1       4.064  36.406  26.853  0.00  0.00     0.064 H 
ATOM     44  CB1 X99 d   1       2.840  38.522  25.254  0.00  0.00    -0.049 C 
ATOM     45  H20 X99 d   1       1.296  37.414  26.211  0.00  0.00     0.035 H 
ATOM     46  H21 X99 d   1       2.421  36.436  25.208  0.00  0.00     0.035 H 
ATOM     47  H18 X99 d   1       3.685  38.300  24.586  0.00  0.00     0.035 H 
ATOM     48  H19 X99 d   1       2.039  39.011  24.681  0.00  0.00     0.035 H 
ATOM     49  H16 X99 d   1       4.130  40.049  26.130  0.00  0.00     0.064 H 
ATOM     50  H17 X99 d   1       2.459  40.027  26.788  0.00  0.00     0.064 H 
ENDBRANCH   5  36
TORSDOF 4
