REMARK  5 active torsions:
REMARK  status: ('A' for Active; 'I' for Inactive)
REMARK    1  A    between atoms: C_1  and  C1_3 
REMARK       I    between atoms: C_1  and  N_22 
REMARK    2  A    between atoms: C1_3  and  C2_4 
REMARK    3  A    between atoms: C2_4  and  N3_5 
REMARK    4  A    between atoms: C5_7  and  C14_16 
REMARK    5  A    between atoms: CA_23  and  C3_24 
REMARK       I    between atoms: C3_24  and  N1_29 
ROOT
ATOM      1  C1  X98 d   1       7.129  39.413  32.201  0.00  0.00     0.025 C 
ATOM      2  H1  X98 d   1       6.765  38.788  33.030  0.00  0.00     0.049 H 
ATOM      3  H2  X98 d   1       6.714  40.427  32.297  0.00  0.00     0.049 H 
ENDROOT
BRANCH   1   4
ATOM      4  C   X98 d   1       6.699  38.809  30.880  0.00  0.00     0.222 C 
ATOM      5  O   X98 d   1       7.471  38.105  30.231  0.00  0.00    -0.273 OA
ATOM      6  N   X98 d   1       5.373  38.597  30.873  0.00  0.00    -0.339 N 
ATOM      7  CA  X98 d   1       4.701  38.022  29.708  0.00  0.00     0.092 C 
ATOM      8  CD  X98 d   1       4.421  38.869  31.963  0.00  0.00    -0.001 C 
ATOM      9  CB  X98 d   1       3.480  37.312  30.303  0.00  0.00    -0.036 C 
ATOM     10  H14 X98 d   1       5.358  37.294  29.210  0.00  0.00     0.087 H 
ATOM     11  CG  X98 d   1       3.347  37.838  31.735  0.00  0.00    -0.048 C 
ATOM     12  H15 X98 d   1       3.635  36.223  30.308  0.00  0.00     0.036 H 
ATOM     13  H16 X98 d   1       2.577  37.551  29.722  0.00  0.00     0.036 H 
ATOM     14  H17 X98 d   1       3.470  37.010  32.448  0.00  0.00     0.035 H 
ATOM     15  H18 X98 d   1       2.357  38.296  31.872  0.00  0.00     0.035 H 
ATOM     16  H19 X98 d   1       4.014  39.888  31.888  0.00  0.00     0.064 H 
ATOM     17  H20 X98 d   1       4.896  38.735  32.946  0.00  0.00     0.064 H 
BRANCH   7  18
ATOM     18  C3  X98 d   1       4.308  39.089  28.702  0.00  0.00     0.242 C 
ATOM     19  O1  X98 d   1       4.354  40.284  28.997  0.00  0.00    -0.271 OA
ATOM     20  N1  X98 d   1       3.895  38.663  27.501  0.00  0.00    -0.350 N 
ATOM     21  CD1 X98 d   1       3.437  39.518  26.394  0.00  0.00    -0.002 C 
ATOM     22  CA1 X98 d   1       3.818  37.244  27.159  0.00  0.00    -0.002 C 
ATOM     23  CG1 X98 d   1       3.034  38.528  25.331  0.00  0.00    -0.049 C 
ATOM     24  H21 X98 d   1       4.249  40.169  26.038  0.00  0.00     0.064 H 
ATOM     25  H22 X98 d   1       2.580  40.135  26.702  0.00  0.00     0.064 H 
ATOM     26  CB1 X98 d   1       2.796  37.233  26.028  0.00  0.00    -0.049 C 
ATOM     27  H27 X98 d   1       3.839  38.418  24.589  0.00  0.00     0.035 H 
ATOM     28  H28 X98 d   1       2.115  38.863  24.828  0.00  0.00     0.035 H 
ATOM     29  H25 X98 d   1       1.771  37.183  26.425  0.00  0.00     0.035 H 
ATOM     30  H26 X98 d   1       2.969  36.384  25.350  0.00  0.00     0.035 H 
ATOM     31  H23 X98 d   1       3.470  36.647  28.015  0.00  0.00     0.064 H 
ATOM     32  H24 X98 d   1       4.792  36.864  26.818  0.00  0.00     0.064 H 
ENDBRANCH   7  18
ENDBRANCH   1   4
BRANCH   1  33
ATOM     33  C2  X98 d   1       8.653  39.476  32.236  0.00  0.00     0.011 C 
ATOM     34  H3  X98 d   1       8.956  40.522  32.079  0.00  0.00     0.065 H 
ATOM     35  H4  X98 d   1       9.040  38.855  31.415  0.00  0.00     0.065 H 
BRANCH  33  36
ATOM     36  N3  X98 d   1       9.253  39.013  33.475  0.00  0.00    -0.310 N 
ATOM     37  C4  X98 d   1       9.364  39.940  34.540  0.00  0.00     0.278 A 
ATOM     38  C5  X98 d   1      10.001  39.429  35.820  0.00  0.00     0.135 A 
ATOM     39  O13 X98 d   1       8.947  41.109  34.373  0.00  0.00    -0.265 OA
ATOM     40  N6  X98 d   1      10.429  38.191  35.957  0.00  0.00    -0.240 NA
ATOM     41  C7  X98 d   1      10.301  37.299  34.884  0.00  0.00     0.084 A 
ATOM     42  C8  X98 d   1      10.766  35.964  35.042  0.00  0.00    -0.053 A 
ATOM     43  C12 X98 d   1       9.709  37.690  33.624  0.00  0.00     0.066 A 
ATOM     44  C9  X98 d   1      10.656  35.050  33.999  0.00  0.00    -0.081 A 
ATOM     45  H5  X98 d   1      11.209  35.657  35.982  0.00  0.00     0.087 H 
ATOM     46  C10 X98 d   1      10.083  35.427  32.776  0.00  0.00    -0.081 A 
ATOM     47  H6  X98 d   1      11.017  34.037  34.133  0.00  0.00     0.083 H 
ATOM     48  C11 X98 d   1       9.616  36.723  32.581  0.00  0.00    -0.055 A 
ATOM     49  H7  X98 d   1      10.003  34.702  31.974  0.00  0.00     0.083 H 
ATOM     50  H8  X98 d   1       9.178  36.999  31.629  0.00  0.00     0.087 H 
BRANCH  38  51
ATOM     51  C14 X98 d   1      10.118  40.416  36.933  0.00  0.00    -0.002 A 
ATOM     52  C15 X98 d   1      10.162  39.972  38.272  0.00  0.00    -0.071 A 
ATOM     53  C16 X98 d   1      10.278  40.900  39.316  0.00  0.00    -0.082 A 
ATOM     54  H9  X98 d   1      10.106  38.912  38.493  0.00  0.00     0.084 H 
ATOM     55  C17 X98 d   1      10.347  42.279  39.037  0.00  0.00    -0.083 A 
ATOM     56  H10 X98 d   1      10.315  40.555  40.343  0.00  0.00     0.083 H 
ATOM     57  C18 X98 d   1      10.302  42.726  37.711  0.00  0.00    -0.082 A 
ATOM     58  H11 X98 d   1      10.435  42.993  39.848  0.00  0.00     0.083 H 
ATOM     59  C19 X98 d   1      10.187  41.804  36.661  0.00  0.00    -0.071 A 
ATOM     60  H12 X98 d   1      10.356  43.787  37.496  0.00  0.00     0.083 H 
ATOM     61  H13 X98 d   1      10.151  42.155  35.636  0.00  0.00     0.084 H 
ENDBRANCH  38  51
ENDBRANCH  33  36
ENDBRANCH   1  33
TORSDOF 5
