REMARK  7 active torsions:
REMARK  status: ('A' for Active; 'I' for Inactive)
REMARK    1  A    between atoms: C_1  and  C1_3 
REMARK       I    between atoms: C_1  and  N_25 
REMARK    2  A    between atoms: C1_3  and  C2_4 
REMARK    3  A    between atoms: C2_4  and  C3_5 
REMARK    4  A    between atoms: C3_5  and  N4_6 
REMARK    5  A    between atoms: C7_9  and  C11_13 
REMARK    6  A    between atoms: C7_9  and  C17_19 
REMARK    7  A    between atoms: CA_26  and  C4_27 
REMARK       I    between atoms: C4_27  and  N1_32 
ROOT
ATOM      1  C2  X97 d   1       9.081  38.568  31.366  0.00  0.00    -0.042 C 
ATOM      2  H3  X97 d   1       9.053  39.544  30.859  0.00  0.00     0.036 H 
ATOM      3  H4  X97 d   1       9.356  37.787  30.642  0.00  0.00     0.036 H 
ENDROOT
BRANCH   1   4
ATOM      4  C1  X97 d   1       7.694  38.263  31.895  0.00  0.00     0.011 C 
ATOM      5  H1  X97 d   1       7.707  37.308  32.441  0.00  0.00     0.047 H 
ATOM      6  H2  X97 d   1       7.370  39.068  32.571  0.00  0.00     0.047 H 
BRANCH   4   7
ATOM      7  C   X97 d   1       6.744  38.168  30.722  0.00  0.00     0.220 C 
ATOM      8  O   X97 d   1       7.182  38.056  29.573  0.00  0.00    -0.273 OA
ATOM      9  N   X97 d   1       5.436  38.027  31.004  0.00  0.00    -0.339 N 
ATOM     10  CA  X97 d   1       4.411  37.776  29.978  0.00  0.00     0.092 C 
ATOM     11  CD  X97 d   1       4.859  38.086  32.359  0.00  0.00    -0.001 C 
ATOM     12  CB  X97 d   1       3.121  37.588  30.785  0.00  0.00    -0.036 C 
ATOM     13  H18 X97 d   1       4.650  36.851  29.433  0.00  0.00     0.087 H 
ATOM     14  CG  X97 d   1       3.394  38.239  32.101  0.00  0.00    -0.048 C 
ATOM     15  H19 X97 d   1       2.901  36.519  30.920  0.00  0.00     0.036 H 
ATOM     16  H20 X97 d   1       2.274  38.075  30.280  0.00  0.00     0.036 H 
ATOM     17  H21 X97 d   1       2.815  37.745  32.896  0.00  0.00     0.035 H 
ATOM     18  H22 X97 d   1       3.125  39.305  32.060  0.00  0.00     0.035 H 
ATOM     19  H23 X97 d   1       5.253  38.947  32.918  0.00  0.00     0.064 H 
ATOM     20  H24 X97 d   1       5.067  37.161  32.917  0.00  0.00     0.064 H 
BRANCH  10  21
ATOM     21  C4  X97 d   1       4.294  38.911  28.961  0.00  0.00     0.242 C 
ATOM     22  O1  X97 d   1       4.591  40.065  29.268  0.00  0.00    -0.271 OA
ATOM     23  N1  X97 d   1       3.841  38.600  27.736  0.00  0.00    -0.350 N 
ATOM     24  CD1 X97 d   1       3.754  39.604  26.656  0.00  0.00    -0.002 C 
ATOM     25  CA1 X97 d   1       3.440  37.268  27.273  0.00  0.00    -0.002 C 
ATOM     26  CG1 X97 d   1       3.588  38.767  25.415  0.00  0.00    -0.049 C 
ATOM     27  H25 X97 d   1       4.672  40.207  26.604  0.00  0.00     0.064 H 
ATOM     28  H26 X97 d   1       2.888  40.266  26.803  0.00  0.00     0.064 H 
ATOM     29  CB1 X97 d   1       2.864  37.547  25.879  0.00  0.00    -0.049 C 
ATOM     30  H31 X97 d   1       4.568  38.500  24.992  0.00  0.00     0.035 H 
ATOM     31  H32 X97 d   1       2.997  39.306  24.659  0.00  0.00     0.035 H 
ATOM     32  H29 X97 d   1       1.782  37.735  25.936  0.00  0.00     0.035 H 
ATOM     33  H30 X97 d   1       3.054  36.701  25.203  0.00  0.00     0.035 H 
ATOM     34  H27 X97 d   1       2.678  36.832  27.936  0.00  0.00     0.064 H 
ATOM     35  H28 X97 d   1       4.306  36.592  27.215  0.00  0.00     0.064 H 
ENDBRANCH  10  21
ENDBRANCH   4   7
ENDBRANCH   1   4
BRANCH   1  36
ATOM     36  C3  X97 d   1      10.152  38.619  32.450  0.00  0.00     0.007 C 
ATOM     37  H5  X97 d   1       9.993  39.530  33.045  0.00  0.00     0.065 H 
ATOM     38  H6  X97 d   1      11.135  38.669  31.958  0.00  0.00     0.065 H 
BRANCH  36  39
ATOM     39  N4  X97 d   1      10.156  37.505  33.337  0.00  0.00    -0.267 N 
ATOM     40  C5  X97 d   1      10.602  36.199  32.998  0.00  0.00     0.326 A 
ATOM     41  N6  X97 d   1      10.401  35.348  34.098  0.00  0.00    -0.317 N 
ATOM     42  O9  X97 d   1      11.064  35.851  31.901  0.00  0.00    -0.247 OA
ATOM     43  C7  X97 d   1       9.793  36.070  35.232  0.00  0.00     0.171 A 
ATOM     44  H7  X97 d   1      10.640  34.377  34.111  0.00  0.00     0.166 HD
ATOM     45  C8  X97 d   1       9.668  37.538  34.635  0.00  0.00     0.266 A 
ATOM     46  O10 X97 d   1       9.262  38.558  35.195  0.00  0.00    -0.269 OA
BRANCH  43  47
ATOM     47  C11 X97 d   1       8.416  35.486  35.550  0.00  0.00    -0.016 A 
ATOM     48  C12 X97 d   1       8.288  34.111  35.835  0.00  0.00    -0.074 A 
ATOM     49  C13 X97 d   1       7.028  33.553  36.079  0.00  0.00    -0.082 A 
ATOM     50  H8  X97 d   1       9.171  33.483  35.865  0.00  0.00     0.084 H 
ATOM     51  C14 X97 d   1       5.882  34.358  36.043  0.00  0.00    -0.083 A 
ATOM     52  H9  X97 d   1       6.939  32.495  36.297  0.00  0.00     0.083 H 
ATOM     53  C15 X97 d   1       5.999  35.725  35.764  0.00  0.00    -0.082 A 
ATOM     54  H10 X97 d   1       4.907  33.923  36.231  0.00  0.00     0.083 H 
ATOM     55  C16 X97 d   1       7.258  36.290  35.519  0.00  0.00    -0.074 A 
ATOM     56  H11 X97 d   1       5.113  36.349  35.737  0.00  0.00     0.083 H 
ATOM     57  H12 X97 d   1       7.342  37.349  35.305  0.00  0.00     0.084 H 
ENDBRANCH  43  47
BRANCH  43  58
ATOM     58  C17 X97 d   1      10.654  36.064  36.492  0.00  0.00    -0.016 A 
ATOM     59  C18 X97 d   1      11.964  35.549  36.456  0.00  0.00    -0.074 A 
ATOM     60  C19 X97 d   1      12.750  35.534  37.616  0.00  0.00    -0.082 A 
ATOM     61  H13 X97 d   1      12.366  35.162  35.527  0.00  0.00     0.084 H 
ATOM     62  C20 X97 d   1      12.240  36.030  38.821  0.00  0.00    -0.083 A 
ATOM     63  H14 X97 d   1      13.758  35.136  37.580  0.00  0.00     0.083 H 
ATOM     64  C21 X97 d   1      10.937  36.545  38.863  0.00  0.00    -0.082 A 
ATOM     65  H15 X97 d   1      12.849  36.016  39.717  0.00  0.00     0.083 H 
ATOM     66  C22 X97 d   1      10.145  36.563  37.707  0.00  0.00    -0.074 A 
ATOM     67  H16 X97 d   1      10.540  36.931  39.795  0.00  0.00     0.083 H 
ATOM     68  H17 X97 d   1       9.138  36.962  37.748  0.00  0.00     0.084 H 
ENDBRANCH  43  58
ENDBRANCH  36  39
ENDBRANCH   1  36
TORSDOF 7
