REMARK  7 active torsions:
REMARK  status: ('A' for Active; 'I' for Inactive)
REMARK    1  A    between atoms: C8_7  and  C13_8 
REMARK    2  A    between atoms: C14_11  and  N4_12 
REMARK    3  A    between atoms: N4_12  and  C15_13 
REMARK    4  A    between atoms: C15_13  and  C16_14 
REMARK    5  A    between atoms: C16_14  and  N5_15 
REMARK    6  A    between atoms: C7_17  and  N1_18 
REMARK    7  A    between atoms: N1_18  and  C3_19 
ROOT
ATOM      1  F2  LUG d   1      35.904 -15.718   3.695  0.00  0.00    -0.203 F 
ATOM      2  C11 LUG d   1      37.002 -14.995   4.015  0.00  0.00     0.157 A 
ATOM      3  C12 LUG d   1      37.870 -15.255   5.116  0.00  0.00     0.182 A 
ATOM      4  F1  LUG d   1      37.701 -16.270   5.980  0.00  0.00    -0.200 F 
ATOM      5  C10 LUG d   1      37.228 -13.938   3.153  0.00  0.00    -0.042 A 
ATOM      6  C9  LUG d   1      38.320 -13.137   3.406  0.00  0.00    -0.063 A 
ATOM      7  C8  LUG d   1      39.164 -13.424   4.468  0.00  0.00     0.049 A 
ATOM      8  C7  LUG d   1      38.982 -14.464   5.344  0.00  0.00     0.089 A 
ATOM      9  H1  LUG d   1      36.572 -13.747   2.311  0.00  0.00     0.088 H 
ATOM     10  H2  LUG d   1      38.520 -12.280   2.773  0.00  0.00     0.085 H 
ENDROOT
BRANCH   7  11
ATOM     11  C13 LUG d   1      40.275 -12.509   4.705  0.00  0.00     0.206 A 
ATOM     12  N2  LUG d   1      40.908 -12.396   5.892  0.00  0.00    -0.119 NA
ATOM     13  N3  LUG d   1      41.862 -11.392   5.759  0.00  0.00    -0.103 NA
ATOM     14  C14 LUG d   1      41.708 -10.952   4.494  0.00  0.00     0.268 A 
ATOM     15  O1  LUG d   1      40.736 -11.599   3.801  0.00  0.00    -0.255 OA
BRANCH  14  16
ATOM     16  N4  LUG d   1      42.509  -9.856   3.933  0.00  0.00    -0.351 N 
ATOM     17  H3  LUG d   1      43.122  -9.933   3.109  0.00  0.00     0.163 HD
BRANCH  16  18
ATOM     18  C15 LUG d   1      42.305  -8.626   4.726  0.00  0.00     0.018 C 
ATOM     19  H4  LUG d   1      43.261  -8.300   5.163  0.00  0.00     0.066 H 
ATOM     20  H5  LUG d   1      41.580  -8.816   5.531  0.00  0.00     0.066 H 
BRANCH  18  21
ATOM     21  C16 LUG d   1      41.773  -7.555   3.797  0.00  0.00     0.094 C 
ATOM     22  H6  LUG d   1      40.677  -7.503   3.876  0.00  0.00     0.077 H 
ATOM     23  H7  LUG d   1      42.055  -7.787   2.759  0.00  0.00     0.077 H 
BRANCH  21  24
ATOM     24  N5  LUG d   1      42.373  -6.250   4.205  0.00  0.00    -0.078 N 
ATOM     25  H8  LUG d   1      42.033  -5.520   3.599  0.00  0.00     0.274 HD
ATOM     26  H9  LUG d   1      43.377  -6.305   4.134  0.00  0.00     0.274 HD
ATOM     27  H10 LUG d   1      42.114  -6.044   5.157  0.00  0.00     0.274 HD
ENDBRANCH  21  24
ENDBRANCH  18  21
ENDBRANCH  16  18
ENDBRANCH  14  16
ENDBRANCH   7  11
BRANCH   8  28
ATOM     28  N1  LUG d   1      39.918 -14.599   6.429  0.00  0.00    -0.350 N 
ATOM     29  H11 LUG d   1      40.082 -13.785   7.038  0.00  0.00     0.166 HD
BRANCH  28  30
ATOM     30  C3  LUG d   1      40.629 -15.804   6.703  0.00  0.00     0.071 A 
ATOM     31  C4  LUG d   1      40.364 -16.996   6.042  0.00  0.00    -0.053 A 
ATOM     32  C5  LUG d   1      41.084 -18.149   6.364  0.00  0.00    -0.065 A 
ATOM     33  H12 LUG d   1      39.598 -17.032   5.276  0.00  0.00     0.087 H 
ATOM     34  C6  LUG d   1      42.076 -18.154   7.356  0.00  0.00     0.009 A 
ATOM     35  H13 LUG d   1      40.870 -19.068   5.831  0.00  0.00     0.085 H 
ATOM     36  I1  LUG d   1      43.154 -19.914   7.832  0.00  0.00    -0.044 I 
ATOM     37  C1  LUG d   1      42.343 -16.968   8.019  0.00  0.00    -0.027 A 
ATOM     38  C2  LUG d   1      41.623 -15.812   7.699  0.00  0.00     0.144 A 
ATOM     39  H14 LUG d   1      43.109 -16.935   8.785  0.00  0.00     0.090 H 
ATOM     40  F3  LUG d   1      41.921 -14.685   8.386  0.00  0.00    -0.204 F 
ENDBRANCH  28  30
ENDBRANCH   8  28
TORSDOF 7
