REMARK WARNING: 32 MAX_TORS EXCEEDED!!!
REMARK  50 active torsions:
REMARK  status: ('A' for Active; 'I' for Inactive)
REMARK    1  A    between atoms: N_1  and  CA_2 
REMARK    2  A    between atoms: CA_2  and  C_3 
REMARK    3  A    between atoms: CA_2  and  CB_5 
REMARK       I    between atoms: C_3  and  N_8 
REMARK    4  A    between atoms: CB_5  and  OG1_6 
REMARK    5  A    between atoms: CB_5  and  CG2_7 
REMARK    6  A    between atoms: N_8  and  CA_9 
REMARK    7  A    between atoms: CA_9  and  C_10 
REMARK    8  A    between atoms: CA_9  and  CB_12 
REMARK       I    between atoms: C_10  and  N_14 
REMARK    9  A    between atoms: CB_12  and  OG_13 
REMARK   10  A    between atoms: N_14  and  CA_15 
REMARK   11  A    between atoms: CA_15  and  C_16 
REMARK   12  A    between atoms: CA_15  and  CB_18 
REMARK       I    between atoms: C_16  and  N_25 
REMARK   13  A    between atoms: CB_18  and  CG_19 
REMARK   14  A    between atoms: N_25  and  CA_26 
REMARK   15  A    between atoms: CA_26  and  C_27 
REMARK   16  A    between atoms: CA_26  and  CB_29 
REMARK       I    between atoms: C_27  and  N_30 
REMARK   17  A    between atoms: N_30  and  CA_31 
REMARK   18  A    between atoms: CA_31  and  C_32 
REMARK   19  A    between atoms: CA_31  and  CB_34 
REMARK       I    between atoms: C_32  and  N_39 
REMARK   20  A    between atoms: CB_34  and  CG_35 
REMARK   21  A    between atoms: CG_35  and  CD_36 
REMARK   22  A    between atoms: N_39  and  CA_40 
REMARK   23  A    between atoms: CA_40  and  C_41 
REMARK   24  A    between atoms: CA_40  and  CB_43 
REMARK       I    between atoms: C_41  and  N_51 
REMARK   25  A    between atoms: CB_43  and  CG_44 
REMARK   26  A    between atoms: CZ_49  and  OH_50 
REMARK   27  A    between atoms: N_51  and  CA_52 
REMARK   28  A    between atoms: CA_52  and  C_53 
REMARK   29  A    between atoms: CA_52  and  CB_55 
REMARK       I    between atoms: C_53  and  N_65 
REMARK   30  A    between atoms: CB_55  and  CG_56 
REMARK   31  A    between atoms: N_65  and  CA_66 
REMARK   32  A    between atoms: CA_66  and  C_67 
REMARK   33  A    between atoms: CA_66  and  CB_69 
REMARK       I    between atoms: C_67  and  N_73 
REMARK   34  A    between atoms: CB_69  and  CG_70 
REMARK       I    between atoms: CG_70  and  ND2_72 
REMARK   35  A    between atoms: N_73  and  CA_74 
REMARK   36  A    between atoms: CA_74  and  C_75 
REMARK   37  A    between atoms: CA_74  and  CB_77 
REMARK       I    between atoms: C_75  and  N_81 
REMARK   38  A    between atoms: CB_77  and  CG_78 
REMARK   39  A    between atoms: CG_78  and  CD1_79 
REMARK   40  A    between atoms: CG_78  and  CD2_80 
REMARK   41  A    between atoms: N_81  and  CA_82 
REMARK   42  A    between atoms: CA_82  and  C_83 
REMARK   43  A    between atoms: CA_82  and  CB_85 
REMARK       I    between atoms: C_83  and  N_89 
REMARK   44  A    between atoms: CB_85  and  CG_86 
REMARK   45  A    between atoms: CG_86  and  CD1_87 
REMARK   46  A    between atoms: CG_86  and  CD2_88 
REMARK   47  A    between atoms: N_89  and  CA_90 
REMARK   48  A    between atoms: CA_90  and  C_91 
REMARK   49  A    between atoms: CA_90  and  CB_93 
REMARK   50  A    between atoms: CB_93  and  OG_94 
ROOT
ATOM      1  CA  TYR d   1      -8.482   2.835   8.363  0.00  0.00     0.093 C 
ATOM      2  H36 TYR d   1      -8.951   2.472   9.290  0.00  0.00     0.088 H 
ENDROOT
BRANCH   1   3
ATOM      3  N   TYR d   1      -7.093   3.221   8.640  0.00  0.00    -0.346 N 
ATOM      4  C   GLU d   1      -6.266   2.325   9.169  0.00  0.00     0.241 C 
ATOM      5  O   GLU d   1      -6.618   1.168   9.467  0.00  0.00    -0.271 OA
ATOM      6  H35 TYR d   1      -6.773   4.146   8.433  0.00  0.00     0.163 HD
BRANCH   4   7
ATOM      7  CA  GLU d   1      -4.839   2.746   9.401  0.00  0.00     0.090 C 
ATOM      8  H30 GLU d   1      -4.239   1.836   9.550  0.00  0.00     0.087 H 
BRANCH   7   9
ATOM      9  N   GLU d   1      -4.306   3.449   8.222  0.00  0.00    -0.346 N 
ATOM     10  C   ALA d   1      -4.229   2.810   7.046  0.00  0.00     0.240 C 
ATOM     11  O   ALA d   1      -4.539   1.617   6.919  0.00  0.00    -0.271 OA
ATOM     12  H29 GLU d   1      -4.003   4.399   8.298  0.00  0.00     0.163 HD
BRANCH  10  13
ATOM     13  CA  ALA d   1      -3.697   3.603   5.856  0.00  0.00     0.086 C 
ATOM     14  H25 ALA d   1      -4.064   3.142   4.927  0.00  0.00     0.086 H 
BRANCH  13  15
ATOM     15  N   ALA d   1      -4.191   4.973   5.940  0.00  0.00    -0.346 N 
ATOM     16  C   PHE d   1      -5.506   5.194   5.861  0.00  0.00     0.241 C 
ATOM     17  O   PHE d   1      -6.345   4.275   5.831  0.00  0.00    -0.271 OA
ATOM     18  H24 ALA d   1      -3.554   5.736   6.055  0.00  0.00     0.163 HD
BRANCH  16  19
ATOM     19  CA  PHE d   1      -5.976   6.640   5.847  0.00  0.00     0.093 C 
ATOM     20  H16 PHE d   1      -7.057   6.641   6.049  0.00  0.00     0.088 H 
BRANCH  19  21
ATOM     21  N   PHE d   1      -5.345   7.427   6.875  0.00  0.00    -0.346 N 
ATOM     22  C   SER d   1      -5.306   6.997   8.135  0.00  0.00     0.243 C 
ATOM     23  O   SER d   1      -5.908   5.986   8.498  0.00  0.00    -0.271 OA
ATOM     24  H15 PHE d   1      -4.931   8.307   6.640  0.00  0.00     0.163 HD
BRANCH  22  25
ATOM     25  CA  SER d   1      -4.455   7.809   9.108  0.00  0.00     0.109 C 
ATOM     26  H11 SER d   1      -4.630   8.880   8.930  0.00  0.00     0.090 H 
BRANCH  25  27
ATOM     27  N   SER d   1      -4.792   7.505  10.507  0.00  0.00    -0.344 N 
ATOM     28  C   THR d   1      -5.849   8.077  11.073  0.00  0.00     0.251 C 
ATOM     29  O   THR d   1      -6.563   8.869  10.460  0.00  0.00    -0.271 OA
ATOM     30  H10 SER d   1      -4.226   6.869  11.031  0.00  0.00     0.163 HD
BRANCH  28  31
ATOM     31  CA  THR d   1      -6.127   7.735  12.551  0.00  0.00     0.199 C 
ATOM     32  H4  THR d   1      -5.312   7.099  12.926  0.00  0.00     0.103 H 
BRANCH  31  33
ATOM     33  N   THR d   1      -6.180   8.978  13.372  0.00  0.00    -0.064 N 
ATOM     34  H1  THR d   1      -5.307   9.475  13.286  0.00  0.00     0.275 HD
ATOM     35  H2  THR d   1      -6.335   8.736  14.338  0.00  0.00     0.275 HD
ATOM     36  H3  THR d   1      -6.933   9.563  13.047  0.00  0.00     0.275 HD
ENDBRANCH  31  33
BRANCH  31  37
ATOM     37  CB  THR d   1      -7.444   6.970  12.671  0.00  0.00     0.068 C 
ATOM     38  H5  THR d   1      -8.256   7.554  12.213  0.00  0.00     0.086 H 
BRANCH  37  39
ATOM     39  OG1 THR d   1      -7.720   6.772  14.077  0.00  0.00    -0.393 OA
ATOM     40  H6  THR d   1      -7.790   7.616  14.507  0.00  0.00     0.210 HD
ENDBRANCH  37  39
BRANCH  37  41
ATOM     41  CG2 THR d   1      -7.330   5.615  11.958  0.00  0.00    -0.050 C 
ATOM     42  H7  THR d   1      -8.282   5.071  12.049  0.00  0.00     0.031 H 
ATOM     43  H8  THR d   1      -6.525   5.024  12.419  0.00  0.00     0.031 H 
ATOM     44  H9  THR d   1      -7.102   5.778  10.894  0.00  0.00     0.031 H 
ENDBRANCH  37  41
ENDBRANCH  31  37
ENDBRANCH  28  31
ENDBRANCH  25  27
BRANCH  25  45
ATOM     45  CB  SER d   1      -2.977   7.483   8.835  0.00  0.00     0.044 C 
ATOM     46  H12 SER d   1      -2.348   7.976   9.591  0.00  0.00     0.077 H 
ATOM     47  H13 SER d   1      -2.701   7.847   7.834  0.00  0.00     0.077 H 
BRANCH  45  48
ATOM     48  OG  SER d   1      -2.775   6.065   8.899  0.00  0.00    -0.398 OA
ATOM     49  H14 SER d   1      -1.861   5.869   8.730  0.00  0.00     0.209 HD
ENDBRANCH  45  48
ENDBRANCH  25  45
ENDBRANCH  22  25
ENDBRANCH  19  21
BRANCH  19  50
ATOM     50  CB  PHE d   1      -5.758   7.255   4.463  0.00  0.00    -0.014 C 
ATOM     51  H17 PHE d   1      -4.682   7.430   4.318  0.00  0.00     0.043 H 
ATOM     52  H18 PHE d   1      -6.296   8.213   4.412  0.00  0.00     0.043 H 
BRANCH  50  53
ATOM     53  CG  PHE d   1      -6.254   6.363   3.368  0.00  0.00    -0.056 A 
ATOM     54  CD1 PHE d   1      -7.615   6.363   3.025  0.00  0.00    -0.077 A 
ATOM     55  CE1 PHE d   1      -8.081   5.465   2.053  0.00  0.00    -0.082 A 
ATOM     56  H19 PHE d   1      -8.300   7.051   3.507  0.00  0.00     0.084 H 
ATOM     57  CZ  PHE d   1      -7.220   4.570   1.417  0.00  0.00    -0.083 A 
ATOM     58  H21 PHE d   1      -9.133   5.466   1.790  0.00  0.00     0.083 H 
ATOM     59  CE2 PHE d   1      -5.877   4.560   1.768  0.00  0.00    -0.082 A 
ATOM     60  H23 PHE d   1      -7.595   3.892   0.659  0.00  0.00     0.083 H 
ATOM     61  CD2 PHE d   1      -5.402   5.443   2.742  0.00  0.00    -0.077 A 
ATOM     62  H22 PHE d   1      -5.196   3.867   1.287  0.00  0.00     0.083 H 
ATOM     63  H20 PHE d   1      -4.354   5.416   3.018  0.00  0.00     0.084 H 
ENDBRANCH  50  53
ENDBRANCH  19  50
ENDBRANCH  16  19
ENDBRANCH  13  15
BRANCH  13  64
ATOM     64  CB  ALA d   1      -2.189   3.604   5.836  0.00  0.00    -0.049 C 
ATOM     65  H26 ALA d   1      -1.823   2.569   5.773  0.00  0.00     0.030 H 
ATOM     66  H27 ALA d   1      -1.810   4.071   6.757  0.00  0.00     0.030 H 
ATOM     67  H28 ALA d   1      -1.834   4.173   4.964  0.00  0.00     0.030 H 
ENDBRANCH  13  64
ENDBRANCH  10  13
ENDBRANCH   7   9
BRANCH   7  68
ATOM     68  CB  GLU d   1      -4.716   3.592  10.660  0.00  0.00    -0.029 C 
ATOM     69  H31 GLU d   1      -5.352   3.157  11.445  0.00  0.00     0.037 H 
ATOM     70  H32 GLU d   1      -5.056   4.614  10.437  0.00  0.00     0.037 H 
BRANCH  68  71
ATOM     71  CG  GLU d   1      -3.274   3.649  11.165  0.00  0.00     0.018 C 
ATOM     72  H33 GLU d   1      -2.625   4.016  10.357  0.00  0.00     0.049 H 
ATOM     73  H34 GLU d   1      -2.956   2.638  11.460  0.00  0.00     0.049 H 
BRANCH  71  74
ATOM     74  CD  GLU d   1      -3.151   4.562  12.343  0.00  0.00     0.172 C 
ATOM     75  OE1 GLU d   1      -3.242   5.777  12.130  0.00  0.00    -0.648 OA
ATOM     76  OE2 GLU d   1      -2.916   4.082  13.476  0.00  0.00    -0.648 OA
ENDBRANCH  71  74
ENDBRANCH  68  71
ENDBRANCH   7  68
ENDBRANCH   4   7
ENDBRANCH   1   3
BRANCH   1  77
ATOM     77  C   TYR d   1      -8.534   1.747   7.291  0.00  0.00     0.241 C 
ATOM     78  O   TYR d   1      -9.274   0.758   7.397  0.00  0.00    -0.271 OA
ATOM     79  N   TRP d   1      -7.719   1.918   6.264  0.00  0.00    -0.346 N 
ATOM     80  H44 TRP d   1      -7.047   2.659   6.276  0.00  0.00     0.163 HD
BRANCH  79  81
ATOM     81  CA  TRP d   1      -7.802   1.016   5.103  0.00  0.00     0.093 C 
ATOM     82  H45 TRP d   1      -8.843   0.991   4.749  0.00  0.00     0.088 H 
BRANCH  81  83
ATOM     83  C   TRP d   1      -7.373  -0.417   5.484  0.00  0.00     0.241 C 
ATOM     84  O   TRP d   1      -7.940  -1.418   4.989  0.00  0.00    -0.271 OA
ATOM     85  N   ASN d   1      -6.377  -0.521   6.356  0.00  0.00    -0.346 N 
ATOM     86  H54 ASN d   1      -5.977   0.304   6.755  0.00  0.00     0.163 HD
BRANCH  85  87
ATOM     87  CA  ASN d   1      -5.865  -1.830   6.733  0.00  0.00     0.097 C 
ATOM     88  H55 ASN d   1      -5.708  -2.391   5.800  0.00  0.00     0.088 H 
BRANCH  87  89
ATOM     89  C   ASN d   1      -6.848  -2.637   7.549  0.00  0.00     0.241 C 
ATOM     90  O   ASN d   1      -6.713  -3.857   7.642  0.00  0.00    -0.271 OA
ATOM     91  N   LEU d   1      -7.850  -1.977   8.134  0.00  0.00    -0.346 N 
ATOM     92  H60 LEU d   1      -7.883  -0.978   8.102  0.00  0.00     0.163 HD
BRANCH  91  93
ATOM     93  CA  LEU d   1      -8.902  -2.730   8.824  0.00  0.00     0.089 C 
ATOM     94  H61 LEU d   1      -8.413  -3.429   9.518  0.00  0.00     0.087 H 
BRANCH  93  95
ATOM     95  C   LEU d   1      -9.773  -3.558   7.856  0.00  0.00     0.241 C 
ATOM     96  O   LEU d   1     -10.564  -4.377   8.308  0.00  0.00    -0.271 OA
ATOM     97  N   LEU d   1      -9.667  -3.320   6.539  0.00  0.00    -0.346 N 
ATOM     98  H71 LEU d   1      -9.056  -2.599   6.213  0.00  0.00     0.163 HD
BRANCH  97  99
ATOM     99  CA  LEU d   1     -10.442  -4.110   5.573  0.00  0.00     0.089 C 
ATOM    100  H72 LEU d   1     -11.487  -4.139   5.915  0.00  0.00     0.087 H 
BRANCH  99 101
ATOM    101  C   LEU d   1      -9.931  -5.512   5.454  0.00  0.00     0.241 C 
ATOM    102  O   LEU d   1     -10.665  -6.405   5.020  0.00  0.00    -0.271 OA
ATOM    103  N   SER d   1      -8.674  -5.731   5.801  0.00  0.00    -0.346 N 
ATOM    104  H82 SER d   1      -8.116  -4.991   6.178  0.00  0.00     0.163 HD
BRANCH 103 105
ATOM    105  CA  SER d   1      -8.117  -7.053   5.629  0.00  0.00     0.083 C 
ATOM    106  H83 SER d   1      -8.776  -7.636   4.968  0.00  0.00     0.086 H 
BRANCH 105 107
ATOM    107  C   SER d   1      -8.037  -7.736   6.982  0.00  0.00     0.112 C 
ATOM    108  O   SER d   1      -7.178  -7.400   7.781  0.00  0.00    -0.305 OA
ATOM    109  H84 SER d   1      -8.744  -8.524   7.239  0.00  0.00     0.146 H 
ENDBRANCH 105 107
BRANCH 105 110
ATOM    110  CB  SER d   1      -6.716  -6.978   4.993  0.00  0.00     0.041 C 
ATOM    111  H85 SER d   1      -6.378  -8.002   4.777  0.00  0.00     0.077 H 
ATOM    112  H86 SER d   1      -6.031  -6.511   5.717  0.00  0.00     0.077 H 
BRANCH 110 113
ATOM    113  OG  SER d   1      -6.671  -6.215   3.766  0.00  0.00    -0.398 OA
ATOM    114  H87 SER d   1      -5.782  -6.210   3.430  0.00  0.00     0.209 HD
ENDBRANCH 110 113
ENDBRANCH 105 110
ENDBRANCH 103 105
ENDBRANCH  99 101
BRANCH  99 115
ATOM    115  CB  LEU d   1     -10.392  -3.490   4.183  0.00  0.00    -0.035 C 
ATOM    116  H73 LEU d   1     -10.752  -4.239   3.462  0.00  0.00     0.037 H 
ATOM    117  H74 LEU d   1      -9.345  -3.239   3.959  0.00  0.00     0.037 H 
BRANCH 115 118
ATOM    118  CG  LEU d   1     -11.228  -2.227   4.009  0.00  0.00    -0.059 C 
ATOM    119  H75 LEU d   1     -11.174  -1.629   4.931  0.00  0.00     0.038 H 
BRANCH 118 120
ATOM    120  CD1 LEU d   1     -10.688  -1.395   2.866  0.00  0.00    -0.073 C 
ATOM    121  H76 LEU d   1     -11.300  -0.488   2.752  0.00  0.00     0.028 H 
ATOM    122  H77 LEU d   1     -10.725  -1.982   1.936  0.00  0.00     0.028 H 
ATOM    123  H78 LEU d   1      -9.647  -1.111   3.079  0.00  0.00     0.028 H 
ENDBRANCH 118 120
BRANCH 118 124
ATOM    124  CD2 LEU d   1     -12.694  -2.645   3.773  0.00  0.00    -0.073 C 
ATOM    125  H79 LEU d   1     -13.046  -3.246   4.625  0.00  0.00     0.028 H 
ATOM    126  H80 LEU d   1     -12.761  -3.241   2.851  0.00  0.00     0.028 H 
ATOM    127  H81 LEU d   1     -13.320  -1.746   3.675  0.00  0.00     0.028 H 
ENDBRANCH 118 124
ENDBRANCH 115 118
ENDBRANCH  99 115
ENDBRANCH  97  99
ENDBRANCH  93  95
BRANCH  93 128
ATOM    128  CB  LEU d   1      -9.787  -1.778   9.643  0.00  0.00    -0.035 C 
ATOM    129  H62 LEU d   1     -10.645  -2.340  10.041  0.00  0.00     0.037 H 
ATOM    130  H63 LEU d   1     -10.149  -0.972   8.988  0.00  0.00     0.037 H 
BRANCH 128 131
ATOM    131  CG  LEU d   1      -9.015  -1.167  10.800  0.00  0.00    -0.059 C 
ATOM    132  H64 LEU d   1      -8.047  -0.800  10.428  0.00  0.00     0.038 H 
BRANCH 131 133
ATOM    133  CD1 LEU d   1      -9.804   0.006  11.364  0.00  0.00    -0.073 C 
ATOM    134  H65 LEU d   1      -9.249   0.452  12.202  0.00  0.00     0.028 H 
ATOM    135  H66 LEU d   1     -10.783  -0.348  11.719  0.00  0.00     0.028 H 
ATOM    136  H67 LEU d   1      -9.950   0.761  10.578  0.00  0.00     0.028 H 
ENDBRANCH 131 133
BRANCH 131 137
ATOM    137  CD2 LEU d   1      -8.766  -2.174  11.853  0.00  0.00    -0.073 C 
ATOM    138  H68 LEU d   1      -8.196  -3.014  11.430  0.00  0.00     0.028 H 
ATOM    139  H69 LEU d   1      -9.726  -2.542  12.242  0.00  0.00     0.028 H 
ATOM    140  H70 LEU d   1      -8.191  -1.715  12.671  0.00  0.00     0.028 H 
ENDBRANCH 131 137
ENDBRANCH 128 131
ENDBRANCH  93 128
ENDBRANCH  91  93
ENDBRANCH  87  89
BRANCH  87 141
ATOM    141  CB  ASN d   1      -4.504  -1.687   7.392  0.00  0.00     0.036 C 
ATOM    142  H56 ASN d   1      -4.274  -2.614   7.937  0.00  0.00     0.051 H 
ATOM    143  H57 ASN d   1      -4.538  -0.845   8.099  0.00  0.00     0.051 H 
BRANCH 141 144
ATOM    144  CG  ASN d   1      -3.401  -1.429   6.372  0.00  0.00     0.217 C 
ATOM    145  OD1 ASN d   1      -3.470  -1.926   5.237  0.00  0.00    -0.274 OA
ATOM    146  ND2 ASN d   1      -2.363  -0.690   6.773  0.00  0.00    -0.370 N 
ATOM    147  H58 ASN d   1      -1.615  -0.494   6.139  0.00  0.00     0.159 HD
ATOM    148  H59 ASN d   1      -2.334  -0.333   7.707  0.00  0.00     0.159 HD
ENDBRANCH 141 144
ENDBRANCH  87 141
ENDBRANCH  85  87
ENDBRANCH  81  83
BRANCH  81 149
ATOM    149  CB  TRP d   1      -6.894   1.547   3.964  0.00  0.00    -0.012 C 
ATOM    150  H46 TRP d   1      -5.843   1.405   4.254  0.00  0.00     0.044 H 
ATOM    151  H47 TRP d   1      -7.094   2.619   3.822  0.00  0.00     0.044 H 
BRANCH 149 152
ATOM    152  CG  TRP d   1      -7.135   0.840   2.675  0.00  0.00    -0.028 A 
ATOM    153  CD1 TRP d   1      -6.345  -0.142   2.083  0.00  0.00    -0.015 A 
ATOM    154  NE1 TRP d   1      -6.938  -0.578   0.921  0.00  0.00    -0.365 N 
ATOM    155  H48 TRP d   1      -5.400  -0.509   2.480  0.00  0.00     0.112 H 
ATOM    156  CE2 TRP d   1      -8.125   0.093   0.739  0.00  0.00     0.042 A 
ATOM    157  H49 TRP d   1      -6.554  -1.294   0.287  0.00  0.00     0.165 HD
ATOM    158  CD2 TRP d   1      -8.281   0.997   1.822  0.00  0.00    -0.002 A 
ATOM    159  CZ2 TRP d   1      -9.053  -0.003  -0.294  0.00  0.00    -0.056 A 
ATOM    160  CE3 TRP d   1      -9.411   1.846   1.848  0.00  0.00    -0.070 A 
ATOM    161  CZ3 TRP d   1     -10.366   1.729   0.829  0.00  0.00    -0.082 A 
ATOM    162  H50 TRP d   1      -9.537   2.574   2.641  0.00  0.00     0.084 H 
ATOM    163  CH2 TRP d   1     -10.181   0.795  -0.231  0.00  0.00    -0.081 A 
ATOM    164  H52 TRP d   1     -11.252   2.354   0.847  0.00  0.00     0.083 H 
ATOM    165  H53 TRP d   1     -10.938   0.708  -1.002  0.00  0.00     0.083 H 
ATOM    166  H51 TRP d   1      -8.896  -0.683  -1.123  0.00  0.00     0.086 H 
ENDBRANCH 149 152
ENDBRANCH  81 149
ENDBRANCH  79  81
ENDBRANCH   1  77
BRANCH   1 167
ATOM    167  CB  TYR d   1      -9.254   4.025   7.819  0.00  0.00    -0.014 C 
ATOM    168  H37 TYR d   1     -10.150   3.653   7.301  0.00  0.00     0.043 H 
ATOM    169  H38 TYR d   1      -8.613   4.560   7.103  0.00  0.00     0.043 H 
BRANCH 167 170
ATOM    170  CG  TYR d   1      -9.692   5.004   8.901  0.00  0.00    -0.056 A 
ATOM    171  CD1 TYR d   1     -10.615   4.640   9.871  0.00  0.00    -0.074 A 
ATOM    172  CE1 TYR d   1     -11.049   5.571  10.855  0.00  0.00    -0.051 A 
ATOM    173  H39 TYR d   1     -11.011   3.631   9.879  0.00  0.00     0.084 H 
ATOM    174  CZ  TYR d   1     -10.569   6.870  10.814  0.00  0.00     0.065 A 
ATOM    175  H41 TYR d   1     -11.747   5.268  11.627  0.00  0.00     0.087 H 
ATOM    176  CE2 TYR d   1      -9.654   7.257   9.843  0.00  0.00    -0.051 A 
ATOM    177  CD2 TYR d   1      -9.239   6.330   8.875  0.00  0.00    -0.074 A 
ATOM    178  H42 TYR d   1      -9.263   8.268   9.833  0.00  0.00     0.087 H 
ATOM    179  H40 TYR d   1      -8.556   6.645   8.094  0.00  0.00     0.084 H 
BRANCH 174 180
ATOM    180  OH  TYR d   1     -10.992   7.779  11.757  0.00  0.00    -0.361 OA
ATOM    181  H43 TYR d   1     -11.611   7.360  12.343  0.00  0.00     0.217 HD
ENDBRANCH 174 180
ENDBRANCH 167 170
ENDBRANCH   1 167
TORSDOF 50
