REMARK  32 active torsions:
REMARK  status: ('A' for Active; 'I' for Inactive)
REMARK    1  A    between atoms: CT1_2  and  OT2_3 
REMARK       I    between atoms: N_8  and  CT1_2 
REMARK    2  A    between atoms: OT2_3  and  CT2_4 
REMARK    3  A    between atoms: CT2_4  and  CT3_5 
REMARK    4  A    between atoms: CT2_4  and  CT4_6 
REMARK    5  A    between atoms: CT2_4  and  CT5_7 
REMARK    6  A    between atoms: CA_9  and  N_8 
REMARK    7  A    between atoms: CA_9  and  CB_12 
REMARK    8  A    between atoms: C_10  and  CA_9 
REMARK       I    between atoms: N_19  and  C_10 
REMARK    9  A    between atoms: CB_12  and  CG_13 
REMARK   10  A    between atoms: CA_20  and  N_19 
REMARK   11  A    between atoms: CA_20  and  CB_23 
REMARK   12  A    between atoms: C_21  and  CA_20 
REMARK       I    between atoms: N_29  and  C_21 
REMARK   13  A    between atoms: CB_23  and  CG_24 
REMARK   14  A    between atoms: CA_30  and  N_29 
REMARK   15  A    between atoms: CA_30  and  CB_31 
REMARK   16  A    between atoms: CH_38  and  CA_30 
REMARK   17  A    between atoms: CB_31  and  CG_32 
REMARK   18  A    between atoms: CH_38  and  OH_39 
REMARK   19  A    between atoms: CM_40  and  CH_38 
REMARK   20  A    between atoms: CA2_41  and  CM_40 
REMARK   21  A    between atoms: CA2_41  and  CB2_42 
REMARK   22  A    between atoms: C_46  and  CA2_41 
REMARK   23  A    between atoms: CB2_42  and  CG2_43 
REMARK   24  A    between atoms: CG2_43  and  CD3_44 
REMARK   25  A    between atoms: CG2_43  and  CD4_45 
REMARK       I    between atoms: C_46  and  N_48 
REMARK   26  A    between atoms: N_48  and  CA_49 
REMARK   27  A    between atoms: CA_49  and  CB_52 
REMARK   28  A    between atoms: CA_49  and  C_50 
REMARK   29  A    between atoms: CB_52  and  CG_53 
REMARK   30  A    between atoms: CG_53  and  CD_54 
REMARK   31  A    between atoms: CD_54  and  CE_55 
REMARK   32  A    between atoms: CE_55  and  NZ_56 
ROOT
ATOM      1  CA  0EL d   1       5.270  32.921  15.147  0.00  0.00     0.037 C 
ATOM      2  H27 0EL d   1       5.009  33.709  15.869  0.00  0.00     0.076 H 
ENDROOT
BRANCH   1   3
ATOM      3  N   0EL d   1       4.393  31.754  15.386  0.00  0.00    -0.352 N 
ATOM      4  C   0EL d   1       3.241  31.887  16.024  0.00  0.00     0.241 C 
ATOM      5  O   0EL d   1       2.860  32.972  16.477  0.00  0.00    -0.271 OA
ATOM      6  H26 0EL d   1       4.675  30.851  15.061  0.00  0.00     0.163 HD
BRANCH   4   7
ATOM      7  CA  0EL d   1       2.398  30.620  16.195  0.00  0.00     0.094 C 
ATOM      8  H20 0EL d   1       2.511  29.951  15.329  0.00  0.00     0.088 H 
BRANCH   7   9
ATOM      9  N   0EL d   1       2.867  29.903  17.391  0.00  0.00    -0.346 N 
ATOM     10  C   0EL d   1       3.243  28.642  17.315  0.00  0.00     0.241 C 
ATOM     11  O   0EL d   1       3.025  27.931  16.331  0.00  0.00    -0.271 OA
ATOM     12  H19 0EL d   1       2.901  30.377  18.271  0.00  0.00     0.163 HD
BRANCH  10  13
ATOM     13  CA  0EL d   1       3.945  28.088  18.551  0.00  0.00     0.095 C 
ATOM     14  H11 0EL d   1       3.686  28.687  19.437  0.00  0.00     0.088 H 
BRANCH  13  15
ATOM     15  N   0EL d   1       3.563  26.701  18.770  0.00  0.00    -0.323 N 
ATOM     16  CT1 0EL d   1       2.437  26.369  19.343  0.00  0.00     0.362 C 
ATOM     17  OT1 0EL d   1       1.575  27.182  19.787  0.00  0.00    -0.238 OA
ATOM     18  H10 0EL d   1       4.184  25.977  18.471  0.00  0.00     0.165 HD
BRANCH  16  19
ATOM     19  OT2 0EL d   1       2.230  24.963  19.445  0.00  0.00    -0.294 OA
BRANCH  19  20
ATOM     20  CT2 0EL d   1       1.242  24.579  20.397  0.00  0.00     0.061 C 
BRANCH  20  21
ATOM     21  CT3 0EL d   1       1.359  23.081  20.680  0.00  0.00    -0.048 C 
ATOM     22  H1  0EL d   1       0.596  22.786  21.415  0.00  0.00     0.031 H 
ATOM     23  H2  0EL d   1       2.359  22.861  21.081  0.00  0.00     0.031 H 
ATOM     24  H3  0EL d   1       1.206  22.519  19.747  0.00  0.00     0.031 H 
ENDBRANCH  20  21
BRANCH  20  25
ATOM     25  CT4 0EL d   1      -0.149  24.895  19.842  0.00  0.00    -0.048 C 
ATOM     26  H4  0EL d   1      -0.913  24.599  20.576  0.00  0.00     0.031 H 
ATOM     27  H5  0EL d   1      -0.305  24.339  18.906  0.00  0.00     0.031 H 
ATOM     28  H6  0EL d   1      -0.229  25.974  19.645  0.00  0.00     0.031 H 
ENDBRANCH  20  25
BRANCH  20  29
ATOM     29  CT5 0EL d   1       1.451  25.369  21.691  0.00  0.00    -0.048 C 
ATOM     30  H7  0EL d   1       0.689  25.074  22.428  0.00  0.00     0.031 H 
ATOM     31  H8  0EL d   1       1.362  26.445  21.482  0.00  0.00     0.031 H 
ATOM     32  H9  0EL d   1       2.452  25.155  22.093  0.00  0.00     0.031 H 
ENDBRANCH  20  29
ENDBRANCH  19  20
ENDBRANCH  16  19
ENDBRANCH  13  15
BRANCH  13  33
ATOM     33  CB  0EL d   1       5.451  28.170  18.271  0.00  0.00    -0.014 C 
ATOM     34  H12 0EL d   1       5.675  29.157  17.840  0.00  0.00     0.043 H 
ATOM     35  H13 0EL d   1       5.717  27.385  17.548  0.00  0.00     0.043 H 
BRANCH  33  36
ATOM     36  CG  0EL d   1       6.294  27.984  19.523  0.00  0.00    -0.056 A 
ATOM     37  CD1 0EL d   1       5.911  28.621  20.700  0.00  0.00    -0.077 A 
ATOM     38  CE1 0EL d   1       6.667  28.456  21.859  0.00  0.00    -0.082 A 
ATOM     39  H14 0EL d   1       5.025  29.245  20.715  0.00  0.00     0.084 H 
ATOM     40  CZ  0EL d   1       7.810  27.651  21.840  0.00  0.00    -0.083 A 
ATOM     41  H16 0EL d   1       6.369  28.952  22.776  0.00  0.00     0.083 H 
ATOM     42  CE2 0EL d   1       8.199  27.012  20.656  0.00  0.00    -0.082 A 
ATOM     43  H18 0EL d   1       8.396  27.521  22.743  0.00  0.00     0.083 H 
ATOM     44  CD2 0EL d   1       7.441  27.180  19.493  0.00  0.00    -0.077 A 
ATOM     45  H17 0EL d   1       9.086  26.389  20.641  0.00  0.00     0.083 H 
ATOM     46  H15 0EL d   1       7.739  26.691  18.573  0.00  0.00     0.084 H 
ENDBRANCH  33  36
ENDBRANCH  13  33
ENDBRANCH  10  13
ENDBRANCH   7   9
BRANCH   7  47
ATOM     47  CB  0EL d   1       0.960  31.169  16.227  0.00  0.00     0.002 C 
ATOM     48  H21 0EL d   1       0.673  31.377  15.185  0.00  0.00     0.046 H 
ATOM     49  H22 0EL d   1       0.990  32.111  16.794  0.00  0.00     0.046 H 
BRANCH  47  50
ATOM     50  CG  0EL d   1      -0.157  30.318  16.835  0.00  0.00     0.030 A 
ATOM     51  ND1 0EL d   1      -0.295  28.940  16.638  0.00  0.00    -0.353 N 
ATOM     52  CE1 0EL d   1      -1.382  28.544  17.303  0.00  0.00     0.063 A 
ATOM     53  H23 0EL d   1       0.329  28.340  16.081  0.00  0.00     0.166 HD
ATOM     54  NE2 0EL d   1      -1.923  29.587  17.895  0.00  0.00    -0.254 NA
ATOM     55  H25 0EL d   1      -1.760  27.524  17.348  0.00  0.00     0.143 H 
ATOM     56  CD2 0EL d   1      -1.192  30.701  17.623  0.00  0.00     0.025 A 
ATOM     57  H24 0EL d   1      -1.399  31.711  17.973  0.00  0.00     0.117 H 
ENDBRANCH  47  50
ENDBRANCH   7  47
ENDBRANCH   4   7
ENDBRANCH   1   3
BRANCH   1  58
ATOM     58  CB  0EL d   1       6.738  32.564  15.322  0.00  0.00    -0.041 C 
ATOM     59  H28 0EL d   1       7.338  33.473  15.165  0.00  0.00     0.036 H 
ATOM     60  H29 0EL d   1       7.005  31.813  14.564  0.00  0.00     0.036 H 
BRANCH  58  61
ATOM     61  CG  0EL d   1       7.073  31.997  16.704  0.00  0.00    -0.052 C 
ATOM     62  CD1 0EL d   1       6.592  32.952  17.814  0.00  0.00    -0.062 C 
ATOM     63  CE1 0EL d   1       6.936  32.384  19.198  0.00  0.00    -0.065 C 
ATOM     64  H31 0EL d   1       5.502  33.079  17.735  0.00  0.00     0.033 H 
ATOM     65  H32 0EL d   1       7.085  33.928  17.691  0.00  0.00     0.033 H 
ATOM     66  CZ  0EL d   1       8.435  32.110  19.284  0.00  0.00    -0.065 C 
ATOM     67  H35 0EL d   1       6.383  31.446  19.356  0.00  0.00     0.033 H 
ATOM     68  H36 0EL d   1       6.652  33.112  19.973  0.00  0.00     0.033 H 
ATOM     69  CE2 0EL d   1       8.849  31.187  18.141  0.00  0.00    -0.065 C 
ATOM     70  H39 0EL d   1       8.665  31.629  20.246  0.00  0.00     0.033 H 
ATOM     71  H40 0EL d   1       8.986  33.059  19.207  0.00  0.00     0.033 H 
ATOM     72  CD2 0EL d   1       8.464  31.809  16.791  0.00  0.00    -0.062 C 
ATOM     73  H37 0EL d   1       9.938  31.035  18.174  0.00  0.00     0.033 H 
ATOM     74  H38 0EL d   1       8.339  30.219  18.253  0.00  0.00     0.033 H 
ATOM     75  H33 0EL d   1       8.966  32.782  16.686  0.00  0.00     0.033 H 
ATOM     76  H34 0EL d   1       8.789  31.140  15.980  0.00  0.00     0.033 H 
ATOM     77  H30 0EL d   1       6.569  31.027  16.827  0.00  0.00     0.040 H 
ENDBRANCH  58  61
ENDBRANCH   1  58
BRANCH   1  78
ATOM     78  CH  0EL d   1       5.057  33.450  13.730  0.00  0.00     0.056 C 
ATOM     79  H41 0EL d   1       5.817  34.210  13.496  0.00  0.00     0.086 H 
BRANCH  78  80
ATOM     80  OH  0EL d   1       5.169  32.375  12.798  0.00  0.00    -0.393 OA
ATOM     81  H42 0EL d   1       5.036  32.706  11.917  0.00  0.00     0.210 HD
ENDBRANCH  78  80
BRANCH  78  82
ATOM     82  CM  0EL d   1       3.674  34.082  13.681  0.00  0.00    -0.028 C 
ATOM     83  H43 0EL d   1       3.507  34.642  14.613  0.00  0.00     0.038 H 
ATOM     84  H44 0EL d   1       2.923  33.283  13.593  0.00  0.00     0.038 H 
BRANCH  82  85
ATOM     85  CA2 0EL d   1       3.522  35.003  12.542  0.00  0.00     0.026 C 
ATOM     86  H45 0EL d   1       4.472  35.069  11.991  0.00  0.00     0.054 H 
BRANCH  85  87
ATOM     87  CB2 0EL d   1       2.474  34.490  11.666  0.00  0.00    -0.051 C 
ATOM     88  H46 0EL d   1       2.517  33.391  11.642  0.00  0.00     0.034 H 
ATOM     89  H47 0EL d   1       2.615  34.885  10.649  0.00  0.00     0.034 H 
BRANCH  87  90
ATOM     90  CG2 0EL d   1       1.122  34.938  12.206  0.00  0.00    -0.060 C 
ATOM     91  H48 0EL d   1       1.116  36.035  12.283  0.00  0.00     0.038 H 
BRANCH  90  92
ATOM     92  CD3 0EL d   1       0.006  34.498  11.262  0.00  0.00    -0.073 C 
ATOM     93  H49 0EL d   1      -0.964  34.827  11.663  0.00  0.00     0.028 H 
ATOM     94  H50 0EL d   1       0.013  33.402  11.172  0.00  0.00     0.028 H 
ATOM     95  H51 0EL d   1       0.165  34.948  10.271  0.00  0.00     0.028 H 
ENDBRANCH  90  92
BRANCH  90  96
ATOM     96  CD4 0EL d   1       0.874  34.339  13.593  0.00  0.00    -0.073 C 
ATOM     97  H52 0EL d   1       1.676  34.654  14.277  0.00  0.00     0.028 H 
ATOM     98  H53 0EL d   1       0.862  33.241  13.522  0.00  0.00     0.028 H 
ATOM     99  H54 0EL d   1      -0.095  34.692  13.977  0.00  0.00     0.028 H 
ENDBRANCH  90  96
ENDBRANCH  87  90
ENDBRANCH  85  87
BRANCH  85 100
ATOM    100  C   0EL d   1       3.167  36.226  12.976  0.00  0.00     0.222 C 
ATOM    101  O   0EL d   1       2.649  36.384  14.088  0.00  0.00    -0.273 OA
ATOM    102  N   0EL d   1       3.360  37.232  12.120  0.00  0.00    -0.346 N 
ATOM    103  H55 0EL d   1       3.661  37.021  11.190  0.00  0.00     0.163 HD
BRANCH 102 104
ATOM    104  CA  0EL d   1       3.144  38.654  12.496  0.00  0.00     0.096 C 
ATOM    105  H56 0EL d   1       3.668  38.833  13.446  0.00  0.00     0.089 H 
BRANCH 104 106
ATOM    106  CB  0EL d   1       3.751  39.574  11.435  0.00  0.00    -0.037 C 
ATOM    107  H57 0EL d   1       3.003  39.743  10.646  0.00  0.00     0.036 H 
ATOM    108  H58 0EL d   1       4.634  39.080  11.004  0.00  0.00     0.036 H 
BRANCH 106 109
ATOM    109  CG  0EL d   1       4.176  40.925  12.004  0.00  0.00    -0.061 C 
ATOM    110  H59 0EL d   1       5.223  41.115  11.726  0.00  0.00     0.033 H 
ATOM    111  H60 0EL d   1       4.087  40.894  13.100  0.00  0.00     0.033 H 
BRANCH 109 112
ATOM    112  CD  0EL d   1       3.312  42.058  11.472  0.00  0.00    -0.043 C 
ATOM    113  H61 0EL d   1       2.262  41.843  11.717  0.00  0.00     0.035 H 
ATOM    114  H62 0EL d   1       3.431  42.106  10.380  0.00  0.00     0.035 H 
BRANCH 112 115
ATOM    115  CE  0EL d   1       3.679  43.413  12.060  0.00  0.00     0.080 C 
ATOM    116  H63 0EL d   1       4.508  43.275  12.770  0.00  0.00     0.075 H 
ATOM    117  H64 0EL d   1       2.804  43.814  12.592  0.00  0.00     0.075 H 
BRANCH 115 118
ATOM    118  NZ  0EL d   1       4.092  44.382  11.039  0.00  0.00    -0.079 N 
ATOM    119  H65 0EL d   1       4.323  45.258  11.481  0.00  0.00     0.274 HD
ATOM    120  H66 0EL d   1       3.338  44.524  10.386  0.00  0.00     0.274 HD
ATOM    121  H67 0EL d   1       4.899  44.030  10.549  0.00  0.00     0.274 HD
ENDBRANCH 115 118
ENDBRANCH 112 115
ENDBRANCH 109 112
ENDBRANCH 106 109
ENDBRANCH 104 106
BRANCH 104 122
ATOM    122  C   0EL d   1       1.665  38.991  12.711  0.00  0.00     0.196 C 
ATOM    123  O   0EL d   1       0.900  39.209  11.766  0.00  0.00    -0.646 OA
ATOM    124  *** 0EL d   1       1.216  39.047  13.887  0.00  0.00    -0.646 OA
ENDBRANCH 104 122
ENDBRANCH 102 104
ENDBRANCH  85 100
ENDBRANCH  82  85
ENDBRANCH  78  82
ENDBRANCH   1  78
TORSDOF 32
