REMARK WARNING: 32 MAX_TORS EXCEEDED!!!
REMARK  45 active torsions:
REMARK  status: ('A' for Active; 'I' for Inactive)
REMARK    1  A    between atoms: CA_2  and  C_3 
REMARK       I    between atoms: C_3  and  N_8 
REMARK    2  A    between atoms: N_8  and  CA_9 
REMARK    3  A    between atoms: CA_9  and  C_10 
REMARK    4  A    between atoms: CA_9  and  CB_12 
REMARK       I    between atoms: C_10  and  N_18 
REMARK    5  A    between atoms: CB_12  and  CG_13 
REMARK    6  A    between atoms: CA_19  and  C_20 
REMARK       I    between atoms: C_20  and  N_25 
REMARK    7  A    between atoms: N_25  and  CA_26 
REMARK    8  A    between atoms: CA_26  and  C_27 
REMARK    9  A    between atoms: CA_26  and  CB_29 
REMARK       I    between atoms: C_27  and  N_36 
REMARK   10  A    between atoms: CB_29  and  CG_30 
REMARK   11  A    between atoms: N_36  and  CA_37 
REMARK   12  A    between atoms: CA_37  and  C_38 
REMARK   13  A    between atoms: CA_37  and  CB_40 
REMARK       I    between atoms: C_38  and  N_46 
REMARK   14  A    between atoms: CB_40  and  CG_41 
REMARK   15  A    between atoms: N_46  and  CA_47 
REMARK   16  A    between atoms: CA_47  and  CB_48 
REMARK   17  A    between atoms: CA_47  and  CH_52 
REMARK   18  A    between atoms: CB_48  and  CG_49 
REMARK   19  A    between atoms: CG_49  and  CD1_50 
REMARK   20  A    between atoms: CG_49  and  CD2_51 
REMARK   21  A    between atoms: CH_52  and  OH_53 
REMARK   22  A    between atoms: CH_52  and  CM_54 
REMARK   23  A    between atoms: CM_54  and  C_55 
REMARK       I    between atoms: C_55  and  N_57 
REMARK   24  A    between atoms: N_57  and  CA_58 
REMARK   25  A    between atoms: CA_58  and  C_59 
REMARK   26  A    between atoms: CA_58  and  CB_61 
REMARK       I    between atoms: C_59  and  N_64 
REMARK   27  A    between atoms: CB_61  and  CG1_62 
REMARK   28  A    between atoms: CB_61  and  CG2_63 
REMARK   29  A    between atoms: N_64  and  CA_65 
REMARK   30  A    between atoms: CA_65  and  C_66 
REMARK   31  A    between atoms: CA_65  and  CB_68 
REMARK       I    between atoms: C_66  and  N_72 
REMARK   32  A    between atoms: CB_68  and  CG1_69 
REMARK   33  A    between atoms: CB_68  and  CG2_70 
REMARK   34  A    between atoms: CG1_69  and  CD1_71 
REMARK   35  A    between atoms: N_72  and  CA_73 
REMARK   36  A    between atoms: CA_73  and  C_74 
REMARK   37  A    between atoms: CA_73  and  CB_76 
REMARK       I    between atoms: C_74  and  N_82 
REMARK   38  A    between atoms: CB_76  and  CG_77 
REMARK   39  A    between atoms: N_82  and  CA_83 
REMARK   40  A    between atoms: CA_83  and  C_84 
REMARK   41  A    between atoms: CA_83  and  CB_86 
REMARK   42  A    between atoms: CB_86  and  CG_87 
REMARK   43  A    between atoms: CG_87  and  CD_88 
REMARK   44  A    between atoms: CD_88  and  CE_89 
REMARK   45  A    between atoms: CE_89  and  NZ_90 
ROOT
ATOM      1  CA  STA d   1       4.986  33.411  14.632  0.00  0.00     0.037 C 
ATOM      2  H41 STA d   1       4.605  34.203  15.294  0.00  0.00     0.076 H 
ENDROOT
BRANCH   1   3
ATOM      3  N   STA d   1       4.154  32.175  14.774  0.00  0.00    -0.352 N 
ATOM      4  C   HIS d   1       3.201  32.152  15.700  0.00  0.00     0.241 C 
ATOM      5  O   HIS d   1       2.848  33.094  16.388  0.00  0.00    -0.271 OA
ATOM      6  H40 STA d   1       4.312  31.383  14.184  0.00  0.00     0.163 HD
BRANCH   4   7
ATOM      7  CA  HIS d   1       2.652  30.761  15.950  0.00  0.00     0.094 C 
ATOM      8  H34 HIS d   1       2.812  30.133  15.061  0.00  0.00     0.088 H 
BRANCH   7   9
ATOM      9  N   HIS d   1       3.370  30.171  17.145  0.00  0.00    -0.346 N 
ATOM     10  C   PHE d   1       3.522  28.852  17.172  0.00  0.00     0.241 C 
ATOM     11  O   PHE d   1       3.072  28.077  16.314  0.00  0.00    -0.271 OA
ATOM     12  H33 HIS d   1       3.715  30.750  17.883  0.00  0.00     0.163 HD
BRANCH  10  13
ATOM     13  CA  PHE d   1       4.390  28.365  18.344  0.00  0.00     0.093 C 
ATOM     14  H25 PHE d   1       4.278  29.024  19.218  0.00  0.00     0.088 H 
BRANCH  13  15
ATOM     15  N   PHE d   1       3.999  26.972  18.679  0.00  0.00    -0.346 N 
ATOM     16  C   PRO d   1       3.289  26.670  19.745  0.00  0.00     0.241 C 
ATOM     17  O   PRO d   1       2.759  27.528  20.447  0.00  0.00    -0.271 OA
ATOM     18  H24 PHE d   1       4.287  26.233  18.070  0.00  0.00     0.163 HD
BRANCH  16  19
ATOM     19  CA  PRO d   1       3.133  25.180  20.019  0.00  0.00     0.091 C 
ATOM     20  N   PRO d   1       2.886  24.972  21.480  0.00  0.00    -0.337 N 
ATOM     21  C   HIS d   1       4.228  24.830  21.943  0.00  0.00     0.243 C 
ATOM     22  CD  PRO d   1       1.327  25.273  21.605  0.00  0.00    -0.001 C 
ATOM     23  O   HIS d   1       5.215  24.907  21.238  0.00  0.00    -0.271 OA
ATOM     24  CG  PRO d   1       0.929  24.221  20.578  0.00  0.00    -0.048 C 
ATOM     25  H22 PRO d   1       1.058  26.296  21.303  0.00  0.00     0.064 H 
ATOM     26  H23 PRO d   1       0.926  25.070  22.609  0.00  0.00     0.064 H 
ATOM     27  CB  PRO d   1       1.832  24.672  19.445  0.00  0.00    -0.036 C 
ATOM     28  H20 PRO d   1       1.163  23.201  20.916  0.00  0.00     0.035 H 
ATOM     29  H21 PRO d   1      -0.136  24.283  20.311  0.00  0.00     0.035 H 
ATOM     30  H18 PRO d   1       2.032  23.823  18.774  0.00  0.00     0.036 H 
ATOM     31  H19 PRO d   1       1.339  25.477  18.881  0.00  0.00     0.036 H 
ATOM     32  H17 PRO d   1       4.005  24.620  19.649  0.00  0.00     0.087 H 
BRANCH  21  33
ATOM     33  CA  HIS d   1       4.274  24.464  23.418  0.00  0.00     0.094 C 
ATOM     34  H11 HIS d   1       3.291  24.677  23.863  0.00  0.00     0.088 H 
BRANCH  33  35
ATOM     35  N   HIS d   1       4.562  23.030  23.587  0.00  0.00    -0.346 N 
ATOM     36  C   PRO d   1       3.625  22.103  23.466  0.00  0.00     0.249 C 
ATOM     37  O   PRO d   1       3.514  21.435  22.437  0.00  0.00    -0.271 OA
ATOM     38  H10 HIS d   1       5.497  22.747  23.800  0.00  0.00     0.163 HD
BRANCH  36  39
ATOM     39  CA  PRO d   1       2.694  21.876  24.646  0.00  0.00     0.178 C 
ATOM     40  N   PRO d   1       1.287  21.935  24.229  0.00  0.00    -0.062 N 
ATOM     41  CD  PRO d   1       0.727  20.656  23.797  0.00  0.00     0.083 C 
ATOM     42  H1  PRO d   1       1.213  22.586  23.463  0.00  0.00     0.278 HD
ATOM     43  H2  PRO d   1       0.742  22.270  25.008  0.00  0.00     0.278 HD
ATOM     44  CG  PRO d   1       1.746  19.642  24.285  0.00  0.00    -0.040 C 
ATOM     45  H8  PRO d   1       0.629  20.619  22.702  0.00  0.00     0.075 H 
ATOM     46  H9  PRO d   1      -0.255  20.480  24.259  0.00  0.00     0.075 H 
ATOM     47  CB  PRO d   1       2.767  20.423  25.094  0.00  0.00    -0.028 C 
ATOM     48  H6  PRO d   1       1.258  18.885  24.916  0.00  0.00     0.035 H 
ATOM     49  H7  PRO d   1       2.233  19.149  23.430  0.00  0.00     0.035 H 
ATOM     50  H4  PRO d   1       2.533  20.349  26.166  0.00  0.00     0.036 H 
ATOM     51  H5  PRO d   1       3.776  20.024  24.911  0.00  0.00     0.036 H 
ATOM     52  H3  PRO d   1       2.922  22.583  25.457  0.00  0.00     0.099 H 
ENDBRANCH  36  39
ENDBRANCH  33  35
BRANCH  33  53
ATOM     53  CB  HIS d   1       5.324  25.311  24.129  0.00  0.00     0.002 C 
ATOM     54  H12 HIS d   1       6.312  24.862  23.948  0.00  0.00     0.046 H 
ATOM     55  H13 HIS d   1       5.107  25.299  25.207  0.00  0.00     0.046 H 
BRANCH  53  56
ATOM     56  CG  HIS d   1       5.363  26.766  23.662  0.00  0.00     0.030 A 
ATOM     57  ND1 HIS d   1       6.473  27.594  23.812  0.00  0.00    -0.353 N 
ATOM     58  CE1 HIS d   1       6.158  28.841  23.282  0.00  0.00     0.063 A 
ATOM     59  H14 HIS d   1       7.371  27.329  24.241  0.00  0.00     0.166 HD
ATOM     60  NE2 HIS d   1       4.853  28.793  22.801  0.00  0.00    -0.254 NA
ATOM     61  H16 HIS d   1       6.819  29.706  23.249  0.00  0.00     0.143 H 
ATOM     62  CD2 HIS d   1       4.364  27.509  23.043  0.00  0.00     0.025 A 
ATOM     63  H15 HIS d   1       3.368  27.149  22.790  0.00  0.00     0.117 H 
ENDBRANCH  53  56
ENDBRANCH  33  53
ENDBRANCH  21  33
ENDBRANCH  16  19
ENDBRANCH  13  15
BRANCH  13  64
ATOM     64  CB  PHE d   1       5.853  28.341  17.847  0.00  0.00    -0.014 C 
ATOM     65  H26 PHE d   1       6.049  29.259  17.274  0.00  0.00     0.043 H 
ATOM     66  H27 PHE d   1       5.993  27.466  17.195  0.00  0.00     0.043 H 
BRANCH  64  67
ATOM     67  CG  PHE d   1       6.850  28.259  19.005  0.00  0.00    -0.056 A 
ATOM     68  CD1 PHE d   1       7.527  29.405  19.407  0.00  0.00    -0.077 A 
ATOM     69  CE1 PHE d   1       8.420  29.308  20.460  0.00  0.00    -0.082 A 
ATOM     70  H28 PHE d   1       7.359  30.352  18.907  0.00  0.00     0.084 H 
ATOM     71  CZ  PHE d   1       8.639  28.084  21.092  0.00  0.00    -0.083 A 
ATOM     72  H30 PHE d   1       8.953  30.190  20.796  0.00  0.00     0.083 H 
ATOM     73  CE2 PHE d   1       7.965  26.933  20.703  0.00  0.00    -0.082 A 
ATOM     74  H32 PHE d   1       9.352  28.029  21.906  0.00  0.00     0.083 H 
ATOM     75  CD2 PHE d   1       7.056  27.036  19.645  0.00  0.00    -0.077 A 
ATOM     76  H31 PHE d   1       8.138  25.987  21.203  0.00  0.00     0.083 H 
ATOM     77  H29 PHE d   1       6.508  26.159  19.320  0.00  0.00     0.084 H 
ENDBRANCH  64  67
ENDBRANCH  13  64
ENDBRANCH  10  13
ENDBRANCH   7   9
BRANCH   7  78
ATOM     78  CB  HIS d   1       1.164  30.825  16.276  0.00  0.00     0.002 C 
ATOM     79  H35 HIS d   1       1.052  31.354  17.234  0.00  0.00     0.046 H 
ATOM     80  H36 HIS d   1       0.798  29.793  16.382  0.00  0.00     0.046 H 
BRANCH  78  81
ATOM     81  CG  HIS d   1       0.294  31.522  15.259  0.00  0.00     0.030 A 
ATOM     82  ND1 HIS d   1      -0.986  31.927  15.638  0.00  0.00    -0.353 N 
ATOM     83  CE1 HIS d   1      -1.521  32.573  14.529  0.00  0.00     0.063 A 
ATOM     84  H37 HIS d   1      -1.441  31.778  16.550  0.00  0.00     0.166 HD
ATOM     85  NE2 HIS d   1      -0.585  32.552  13.496  0.00  0.00    -0.254 NA
ATOM     86  H39 HIS d   1      -2.511  33.023  14.476  0.00  0.00     0.143 H 
ATOM     87  CD2 HIS d   1       0.560  31.902  13.954  0.00  0.00     0.025 A 
ATOM     88  H38 HIS d   1       1.480  31.728  13.397  0.00  0.00     0.117 H 
ENDBRANCH  78  81
ENDBRANCH   7  78
ENDBRANCH   4   7
ENDBRANCH   1   3
BRANCH   1  89
ATOM     89  CB  STA d   1       6.439  33.025  15.026  0.00  0.00    -0.041 C 
ATOM     90  H42 STA d   1       7.071  33.915  14.892  0.00  0.00     0.036 H 
ATOM     91  H43 STA d   1       6.773  32.231  14.341  0.00  0.00     0.036 H 
BRANCH  89  92
ATOM     92  CG  STA d   1       6.635  32.530  16.434  0.00  0.00    -0.059 C 
ATOM     93  H44 STA d   1       6.045  31.608  16.540  0.00  0.00     0.038 H 
BRANCH  92  94
ATOM     94  CD1 STA d   1       8.091  32.206  16.680  0.00  0.00    -0.073 C 
ATOM     95  H45 STA d   1       8.217  31.846  17.712  0.00  0.00     0.028 H 
ATOM     96  H46 STA d   1       8.698  33.111  16.530  0.00  0.00     0.028 H 
ATOM     97  H47 STA d   1       8.417  31.425  15.977  0.00  0.00     0.028 H 
ENDBRANCH  92  94
BRANCH  92  98
ATOM     98  CD2 STA d   1       6.194  33.489  17.523  0.00  0.00    -0.073 C 
ATOM     99  H48 STA d   1       5.135  33.748  17.376  0.00  0.00     0.028 H 
ATOM    100  H49 STA d   1       6.805  34.402  17.477  0.00  0.00     0.028 H 
ATOM    101  H50 STA d   1       6.322  33.012  18.506  0.00  0.00     0.028 H 
ENDBRANCH  92  98
ENDBRANCH  89  92
ENDBRANCH   1  89
BRANCH   1 102
ATOM    102  CH  STA d   1       4.975  33.896  13.196  0.00  0.00     0.063 C 
ATOM    103  H51 STA d   1       5.663  34.750  13.110  0.00  0.00     0.086 H 
BRANCH 102 104
ATOM    104  OH  STA d   1       5.430  32.814  12.344  0.00  0.00    -0.393 OA
ATOM    105  H52 STA d   1       6.311  32.563  12.596  0.00  0.00     0.210 HD
ENDBRANCH 102 104
BRANCH 102 106
ATOM    106  CM  STA d   1       3.594  34.332  12.710  0.00  0.00     0.035 C 
ATOM    107  H53 STA d   1       2.830  33.656  13.122  0.00  0.00     0.051 H 
ATOM    108  H54 STA d   1       3.563  34.294  11.611  0.00  0.00     0.051 H 
BRANCH 106 109
ATOM    109  C   STA d   1       3.313  35.771  13.181  0.00  0.00     0.220 C 
ATOM    110  O   STA d   1       2.730  35.920  14.265  0.00  0.00    -0.274 OA
ATOM    111  N   VAL d   1       3.668  36.821  12.427  0.00  0.00    -0.347 N 
ATOM    112  H55 VAL d   1       4.122  36.670  11.549  0.00  0.00     0.163 HD
BRANCH 111 113
ATOM    113  CA  VAL d   1       3.400  38.166  12.873  0.00  0.00     0.092 C 
ATOM    114  H56 VAL d   1       3.597  38.195  13.955  0.00  0.00     0.088 H 
BRANCH 113 115
ATOM    115  C   VAL d   1       1.958  38.583  12.649  0.00  0.00     0.241 C 
ATOM    116  O   VAL d   1       1.307  38.089  11.758  0.00  0.00    -0.271 OA
ATOM    117  N   ILE d   1       1.418  39.401  13.520  0.00  0.00    -0.346 N 
ATOM    118  H64 ILE d   1       1.889  39.539  14.391  0.00  0.00     0.163 HD
BRANCH 117 119
ATOM    119  CA  ILE d   1       0.153  40.132  13.290  0.00  0.00     0.092 C 
ATOM    120  H65 ILE d   1      -0.507  39.540  12.639  0.00  0.00     0.088 H 
BRANCH 119 121
ATOM    121  C   ILE d   1       0.454  41.482  12.634  0.00  0.00     0.241 C 
ATOM    122  O   ILE d   1       1.194  42.241  13.258  0.00  0.00    -0.271 OA
ATOM    123  N   HIS d   1      -0.038  41.886  11.469  0.00  0.00    -0.346 N 
ATOM    124  H75 HIS d   1      -0.357  41.239  10.776  0.00  0.00     0.163 HD
BRANCH 123 125
ATOM    125  CA  HIS d   1      -0.085  43.306  11.263  0.00  0.00     0.094 C 
ATOM    126  H76 HIS d   1       0.380  43.673  12.190  0.00  0.00     0.088 H 
BRANCH 125 127
ATOM    127  C   HIS d   1      -1.410  43.972  11.301  0.00  0.00     0.241 C 
ATOM    128  O   HIS d   1      -1.558  44.887  12.138  0.00  0.00    -0.271 OA
ATOM    129  N   LYS d   1      -2.454  43.784  10.506  0.00  0.00    -0.345 N 
ATOM    130  H82 LYS d   1      -2.440  43.121   9.758  0.00  0.00     0.163 HD
BRANCH 129 131
ATOM    131  CA  LYS d   1      -3.637  44.616  10.796  0.00  0.00     0.096 C 
ATOM    132  H83 LYS d   1      -3.338  45.389  11.519  0.00  0.00     0.089 H 
BRANCH 131 133
ATOM    133  C   LYS d   1      -4.751  43.799  11.422  0.00  0.00     0.196 C 
ATOM    134  O   LYS d   1      -5.557  43.185  10.715  0.00  0.00    -0.646 OA
ATOM    135  OXT LYS d   1      -4.872  43.826  12.745  0.00  0.00    -0.646 OA
ENDBRANCH 131 133
BRANCH 131 136
ATOM    136  CB  LYS d   1      -4.123  45.311   9.540  0.00  0.00    -0.037 C 
ATOM    137  H84 LYS d   1      -4.758  44.618   8.967  0.00  0.00     0.036 H 
ATOM    138  H85 LYS d   1      -3.255  45.602   8.930  0.00  0.00     0.036 H 
BRANCH 136 139
ATOM    139  CG  LYS d   1      -4.928  46.554   9.886  0.00  0.00    -0.061 C 
ATOM    140  H86 LYS d   1      -4.841  46.733  10.968  0.00  0.00     0.033 H 
ATOM    141  H87 LYS d   1      -5.981  46.368   9.629  0.00  0.00     0.033 H 
BRANCH 139 142
ATOM    142  CD  LYS d   1      -4.471  47.804   9.156  0.00  0.00    -0.043 C 
ATOM    143  H88 LYS d   1      -3.373  47.855   9.194  0.00  0.00     0.035 H 
ATOM    144  H89 LYS d   1      -4.896  48.684   9.660  0.00  0.00     0.035 H 
BRANCH 142 145
ATOM    145  CE  LYS d   1      -4.911  47.813   7.704  0.00  0.00     0.080 C 
ATOM    146  H90 LYS d   1      -5.246  46.801   7.431  0.00  0.00     0.075 H 
ATOM    147  H91 LYS d   1      -4.052  48.096   7.077  0.00  0.00     0.075 H 
BRANCH 145 148
ATOM    148  NZ  LYS d   1      -6.012  48.759   7.451  0.00  0.00    -0.079 N 
ATOM    149  H92 LYS d   1      -6.266  48.726   6.476  0.00  0.00     0.274 HD
ATOM    150  H93 LYS d   1      -5.715  49.692   7.690  0.00  0.00     0.274 HD
ATOM    151  H94 LYS d   1      -6.809  48.506   8.014  0.00  0.00     0.274 HD
ENDBRANCH 145 148
ENDBRANCH 142 145
ENDBRANCH 139 142
ENDBRANCH 136 139
ENDBRANCH 131 136
ENDBRANCH 129 131
ENDBRANCH 125 127
BRANCH 125 152
ATOM    152  CB  HIS d   1       0.834  43.862  10.204  0.00  0.00     0.002 C 
ATOM    153  H77 HIS d   1       0.380  43.791   9.204  0.00  0.00     0.046 H 
ATOM    154  H78 HIS d   1       1.804  43.343  10.204  0.00  0.00     0.046 H 
BRANCH 152 155
ATOM    155  CG  HIS d   1       0.986  45.336  10.649  0.00  0.00     0.030 A 
ATOM    156  ND1 HIS d   1       0.998  46.464   9.842  0.00  0.00    -0.353 N 
ATOM    157  CE1 HIS d   1       1.143  47.582  10.659  0.00  0.00     0.063 A 
ATOM    158  H79 HIS d   1       0.914  46.473   8.816  0.00  0.00     0.166 HD
ATOM    159  NE2 HIS d   1       1.207  47.169  11.987  0.00  0.00    -0.254 NA
ATOM    160  H81 HIS d   1       1.198  48.614  10.315  0.00  0.00     0.143 H 
ATOM    161  CD2 HIS d   1       1.106  45.776  11.972  0.00  0.00     0.025 A 
ATOM    162  H80 HIS d   1       1.119  45.134  12.851  0.00  0.00     0.117 H 
ENDBRANCH 152 155
ENDBRANCH 125 152
ENDBRANCH 123 125
ENDBRANCH 119 121
BRANCH 119 163
ATOM    163  CB  ILE d   1      -0.525  40.377  14.637  0.00  0.00    -0.030 C 
ATOM    164  H66 ILE d   1       0.142  41.020  15.229  0.00  0.00     0.043 H 
BRANCH 163 165
ATOM    165  CG1 ILE d   1      -0.702  39.070  15.404  0.00  0.00    -0.063 C 
ATOM    166  H67 ILE d   1       0.059  38.349  15.070  0.00  0.00     0.033 H 
ATOM    167  H68 ILE d   1      -1.704  38.665  15.202  0.00  0.00     0.033 H 
BRANCH 165 168
ATOM    168  CD1 ILE d   1      -0.549  39.302  16.902  0.00  0.00    -0.076 C 
ATOM    169  H72 ILE d   1      -0.680  38.349  17.436  0.00  0.00     0.027 H 
ATOM    170  H73 ILE d   1      -1.310  40.020  17.241  0.00  0.00     0.027 H 
ATOM    171  H74 ILE d   1       0.453  39.704  17.110  0.00  0.00     0.027 H 
ENDBRANCH 165 168
ENDBRANCH 163 165
BRANCH 163 172
ATOM    172  CG2 ILE d   1      -1.841  41.114  14.481  0.00  0.00    -0.071 C 
ATOM    173  H69 ILE d   1      -1.674  42.048  13.925  0.00  0.00     0.028 H 
ATOM    174  H70 ILE d   1      -2.251  41.347  15.475  0.00  0.00     0.028 H 
ATOM    175  H71 ILE d   1      -2.553  40.481  13.930  0.00  0.00     0.028 H 
ENDBRANCH 163 172
ENDBRANCH 119 163
ENDBRANCH 117 119
ENDBRANCH 113 115
BRANCH 113 176
ATOM    176  CB  VAL d   1       4.315  39.201  12.194  0.00  0.00    -0.033 C 
ATOM    177  H57 VAL d   1       5.341  38.819  12.300  0.00  0.00     0.042 H 
BRANCH 176 178
ATOM    178  CG1 VAL d   1       3.996  39.338  10.700  0.00  0.00    -0.071 C 
ATOM    179  H58 VAL d   1       4.667  40.084  10.249  0.00  0.00     0.028 H 
ATOM    180  H59 VAL d   1       2.952  39.662  10.576  0.00  0.00     0.028 H 
ATOM    181  H60 VAL d   1       4.140  38.367  10.204  0.00  0.00     0.028 H 
ENDBRANCH 176 178
BRANCH 176 182
ATOM    182  CG2 VAL d   1       4.301  40.648  12.753  0.00  0.00    -0.071 C 
ATOM    183  H61 VAL d   1       4.524  40.627  13.830  0.00  0.00     0.028 H 
ATOM    184  H62 VAL d   1       3.308  41.093  12.593  0.00  0.00     0.028 H 
ATOM    185  H63 VAL d   1       5.061  41.249  12.233  0.00  0.00     0.028 H 
ENDBRANCH 176 182
ENDBRANCH 113 176
ENDBRANCH 111 113
ENDBRANCH 106 109
ENDBRANCH 102 106
ENDBRANCH   1 102
TORSDOF 45
