REMARK  8 active torsions:
REMARK  status: ('A' for Active; 'I' for Inactive)
REMARK    1  A    between atoms: CP9_1  and  CP8_2 
REMARK    2  A    between atoms: CP8_2  and  CP7_3 
REMARK    3  A    between atoms: CP7_3  and  CP6_4 
REMARK    4  A    between atoms: CP3_7  and  OP3_8 
REMARK    5  A    between atoms: C7_11  and  C6_12 
REMARK    6  A    between atoms: C7_11  and  C8_19 
REMARK    7  A    between atoms: C3_15  and  O3_16 
REMARK    8  A    between atoms: C8_19  and  C9_20 
ROOT
ATOM      1  CP7 DES d   1       5.059  -0.745  -5.231  0.00  0.00    -0.041 C 
ATOM      2  C7  DES d   1       5.633   0.426  -5.443  0.00  0.00    -0.041 C 
ENDROOT
BRANCH   1   3
ATOM      3  CP8 DES d   1       5.818  -2.066  -5.153  0.00  0.00    -0.043 C 
ATOM      4  H4  DES d   1       6.888  -1.857  -5.298  0.00  0.00     0.039 H 
ATOM      5  H5  DES d   1       5.661  -2.494  -4.152  0.00  0.00     0.039 H 
BRANCH   3   6
ATOM      6  CP9 DES d   1       5.397  -3.084  -6.170  0.00  0.00    -0.073 C 
ATOM      7  H1  DES d   1       5.993  -3.999  -6.041  0.00  0.00     0.028 H 
ATOM      8  H2  DES d   1       5.558  -2.681  -7.181  0.00  0.00     0.028 H 
ATOM      9  H3  DES d   1       4.331  -3.318  -6.035  0.00  0.00     0.028 H 
ENDBRANCH   3   6
ENDBRANCH   1   3
BRANCH   1  10
ATOM     10  CP6 DES d   1       3.559  -0.898  -5.064  0.00  0.00    -0.029 A 
ATOM     11  CP1 DES d   1       2.972  -0.997  -3.792  0.00  0.00    -0.070 A 
ATOM     12  CP2 DES d   1       1.576  -1.171  -3.657  0.00  0.00    -0.050 A 
ATOM     13  H6  DES d   1       3.595  -0.940  -2.907  0.00  0.00     0.084 H 
ATOM     14  CP3 DES d   1       0.781  -1.244  -4.800  0.00  0.00     0.065 A 
ATOM     15  H7  DES d   1       1.127  -1.247  -2.673  0.00  0.00     0.087 H 
ATOM     16  CP4 DES d   1       1.351  -1.144  -6.071  0.00  0.00    -0.050 A 
ATOM     17  CP5 DES d   1       2.729  -0.973  -6.185  0.00  0.00    -0.070 A 
ATOM     18  H9  DES d   1       0.729  -1.199  -6.957  0.00  0.00     0.087 H 
ATOM     19  H10 DES d   1       3.170  -0.896  -7.172  0.00  0.00     0.084 H 
BRANCH  14  20
ATOM     20  OP3 DES d   1      -0.587  -1.444  -4.729  0.00  0.00    -0.361 OA
ATOM     21  H8  DES d   1      -0.985  -0.735  -4.238  0.00  0.00     0.217 HD
ENDBRANCH  14  20
ENDBRANCH   1  10
BRANCH   2  22
ATOM     22  C6  DES d   1       7.108   0.549  -5.815  0.00  0.00    -0.029 A 
ATOM     23  C5  DES d   1       7.536   0.304  -7.125  0.00  0.00    -0.070 A 
ATOM     24  C4  DES d   1       8.886   0.438  -7.482  0.00  0.00    -0.050 A 
ATOM     25  H11 DES d   1       6.813   0.006  -7.875  0.00  0.00     0.084 H 
ATOM     26  C3  DES d   1       9.819   0.817  -6.522  0.00  0.00     0.065 A 
ATOM     27  H12 DES d   1       9.201   0.247  -8.502  0.00  0.00     0.087 H 
ATOM     28  C2  DES d   1       9.422   1.069  -5.204  0.00  0.00    -0.050 A 
ATOM     29  C1  DES d   1       8.063   0.928  -4.868  0.00  0.00    -0.070 A 
ATOM     30  H14 DES d   1      10.148   1.367  -4.456  0.00  0.00     0.087 H 
ATOM     31  H15 DES d   1       7.749   1.118  -3.848  0.00  0.00     0.084 H 
BRANCH  26  32
ATOM     32  O3  DES d   1      11.161   0.944  -6.829  0.00  0.00    -0.361 OA
ATOM     33  H13 DES d   1      11.494   0.110  -7.138  0.00  0.00     0.217 HD
ENDBRANCH  26  32
ENDBRANCH   2  22
BRANCH   2  34
ATOM     34  C8  DES d   1       4.899   1.768  -5.401  0.00  0.00    -0.043 C 
ATOM     35  H16 DES d   1       3.840   1.588  -5.638  0.00  0.00     0.039 H 
ATOM     36  H17 DES d   1       5.340   2.425  -6.165  0.00  0.00     0.039 H 
BRANCH  34  37
ATOM     37  C9  DES d   1       4.970   2.478  -4.072  0.00  0.00    -0.073 C 
ATOM     38  H18 DES d   1       4.418   3.428  -4.134  0.00  0.00     0.028 H 
ATOM     39  H19 DES d   1       6.021   2.680  -3.820  0.00  0.00     0.028 H 
ATOM     40  H20 DES d   1       4.522   1.844  -3.293  0.00  0.00     0.028 H 
ENDBRANCH  34  37
ENDBRANCH   2  34
TORSDOF 8
