REMARK  2 active torsions:
REMARK  status: ('A' for Active; 'I' for Inactive)
REMARK    1  A    between atoms: CA6_6  and  ND1_21 
REMARK    2  A    between atoms: CD5_25  and  CC2_15 
ROOT
ATOM      1  CB1 SB4 d   1     -14.536  13.210  37.975  0.00  0.00    -0.068 A 
ATOM      2  CB2 SB4 d   1     -14.558  12.314  36.878  0.00  0.00    -0.045 A 
ATOM      3  CB3 SB4 d   1     -13.369  11.665  36.479  0.00  0.00     0.116 A 
ATOM      4  CB4 SB4 d   1     -12.163  11.904  37.159  0.00  0.00    -0.045 A 
ATOM      5  CB5 SB4 d   1     -12.135  12.795  38.253  0.00  0.00    -0.068 A 
ATOM      6  CB6 SB4 d   1     -13.322  13.475  38.695  0.00  0.00    -0.005 A 
ATOM      7  FB7 SB4 d   1     -13.382  10.807  35.438  0.00  0.00    -0.206 F 
ATOM      8  ND1 SB4 d   1     -13.474  15.284  42.005  0.00  0.00    -0.333 N 
ATOM      9  CD2 SB4 d   1     -12.375  15.663  41.265  0.00  0.00     0.067 A 
ATOM     10  ND3 SB4 d   1     -12.151  15.210  40.016  0.00  0.00    -0.241 NA
ATOM     11  CD4 SB4 d   1     -13.261  14.366  39.826  0.00  0.00     0.097 A 
ATOM     12  CD5 SB4 d   1     -14.109  14.414  41.057  0.00  0.00     0.095 A 
ATOM     13  H12 SB4 d   1     -15.452  13.705  38.276  0.00  0.00     0.085 H 
ATOM     14  H13 SB4 d   1     -15.484  12.127  36.347  0.00  0.00     0.088 H 
ATOM     15  H14 SB4 d   1     -11.254  11.404  36.843  0.00  0.00     0.088 H 
ATOM     16  H15 SB4 d   1     -11.199  12.970  38.771  0.00  0.00     0.085 H 
ATOM     17  H20 SB4 d   1     -11.660  16.355  41.707  0.00  0.00     0.143 H 
ENDROOT
BRANCH   8  18
ATOM     18  CA6 SB4 d   1     -13.809  15.692  43.414  0.00  0.00     0.021 C 
ATOM     19  CA1 SB4 d   1     -12.988  14.797  44.398  0.00  0.00    -0.023 C 
ATOM     20  CA2 SB4 d   1     -13.253  15.175  45.876  0.00  0.00     0.084 C 
ATOM     21  H1  SB4 d   1     -11.916  14.924  44.185  0.00  0.00     0.038 H 
ATOM     22  H2  SB4 d   1     -13.271  13.745  44.243  0.00  0.00     0.038 H 
ATOM     23  NA3 SB4 d   1     -13.072  16.651  46.148  0.00  0.00    -0.075 N 
ATOM     24  H3  SB4 d   1     -12.554  14.613  46.513  0.00  0.00     0.075 H 
ATOM     25  H4  SB4 d   1     -14.286  14.896  46.130  0.00  0.00     0.075 H 
ATOM     26  CA4 SB4 d   1     -13.750  17.615  45.199  0.00  0.00     0.084 C 
ATOM     27  H5  SB4 d   1     -12.083  16.845  46.123  0.00  0.00     0.277 HD
ATOM     28  H6  SB4 d   1     -13.428  16.835  47.073  0.00  0.00     0.277 HD
ATOM     29  CA5 SB4 d   1     -13.572  17.210  43.700  0.00  0.00    -0.023 C 
ATOM     30  H7  SB4 d   1     -13.319  18.616  45.347  0.00  0.00     0.075 H 
ATOM     31  H8  SB4 d   1     -14.825  17.640  45.431  0.00  0.00     0.075 H 
ATOM     32  H9  SB4 d   1     -12.546  17.463  43.394  0.00  0.00     0.038 H 
ATOM     33  H10 SB4 d   1     -14.287  17.790  43.099  0.00  0.00     0.038 H 
ATOM     34  H11 SB4 d   1     -14.878  15.492  43.576  0.00  0.00     0.073 H 
ENDBRANCH   8  18
BRANCH  12  35
ATOM     35  CC2 SB4 d   1     -15.352  13.693  41.306  0.00  0.00     0.106 A 
ATOM     36  NC3 SB4 d   1     -15.402  12.342  41.087  0.00  0.00    -0.061 NA
ATOM     37  CC4 SB4 d   1     -16.545  11.689  41.309  0.00  0.00     0.720 A 
ATOM     38  NC5 SB4 d   1     -17.691  12.234  41.740  0.00  0.00    -0.075 NA
ATOM     39  NC7 SB4 d   1     -16.542  10.396  41.079  0.00  0.00    -0.231 N 
ATOM     40  CC6 SB4 d   1     -17.711  13.564  41.977  0.00  0.00     0.023 A 
ATOM     41  CC1 SB4 d   1     -16.549  14.381  41.775  0.00  0.00    -0.035 A 
ATOM     42  H17 SB4 d   1     -18.627  14.025  42.328  0.00  0.00     0.115 H 
ATOM     43  H16 SB4 d   1     -16.560  15.449  41.961  0.00  0.00     0.089 H 
ATOM     44  H18 SB4 d   1     -17.397   9.843  41.234  0.00  0.00     0.174 HD
ATOM     45  H19 SB4 d   1     -15.684   9.934  40.744  0.00  0.00     0.174 HD
ENDBRANCH  12  35
TORSDOF 2
