REMARK  12 active torsions:
REMARK  status: ('A' for Active; 'I' for Inactive)
REMARK    1  A    between atoms: C10_1  and  C9_2 
REMARK    2  A    between atoms: C9_2  and  C8_3 
REMARK    3  A    between atoms: C8_3  and  C11_4 
REMARK    4  A    between atoms: C7_10  and  C1_11 
REMARK    5  A    between atoms: C7_10  and  C17_18 
REMARK    6  A    between atoms: C4_14  and  O4_15 
REMARK    7  A    between atoms: C20_21  and  O20_22 
REMARK    8  A    between atoms: O20_22  and  C23_23 
REMARK    9  A    between atoms: C23_23  and  C24_24 
REMARK   10  A    between atoms: C24_24  and  N24_25 
REMARK   11  A    between atoms: N24_25  and  C25_26 
REMARK   12  A    between atoms: N24_25  and  C26_27 
ROOT
ATOM      1  C8  OHT d   1      31.363  -0.388  28.059  0.00  0.00    -0.036 C 
ATOM      2  C7  OHT d   1      30.708  -1.057  27.065  0.00  0.00    -0.009 C 
ENDROOT
BRANCH   2   3
ATOM      3  C1  OHT d   1      29.210  -1.233  27.016  0.00  0.00    -0.024 A 
ATOM      4  C2  OHT d   1      28.609  -2.490  26.695  0.00  0.00    -0.070 A 
ATOM      5  C3  OHT d   1      27.215  -2.613  26.605  0.00  0.00    -0.050 A 
ATOM      6  H11 OHT d   1      29.237  -3.356  26.520  0.00  0.00     0.085 H 
ATOM      7  C4  OHT d   1      26.409  -1.482  26.835  0.00  0.00     0.065 A 
ATOM      8  H12 OHT d   1      26.763  -3.568  26.361  0.00  0.00     0.087 H 
ATOM      9  C5  OHT d   1      26.992  -0.235  27.156  0.00  0.00    -0.050 A 
ATOM     10  C6  OHT d   1      28.375  -0.134  27.239  0.00  0.00    -0.070 A 
ATOM     11  H14 OHT d   1      26.367   0.632  27.335  0.00  0.00     0.087 H 
ATOM     12  H15 OHT d   1      28.819   0.824  27.484  0.00  0.00     0.085 H 
BRANCH   7  13
ATOM     13  O4  OHT d   1      25.058  -1.622  26.722  0.00  0.00    -0.361 OA
ATOM     14  H13 OHT d   1      24.843  -1.903  25.840  0.00  0.00     0.217 HD
ENDBRANCH   7  13
ENDBRANCH   2   3
BRANCH   2  15
ATOM     15  C17 OHT d   1      31.411  -1.690  25.945  0.00  0.00    -0.024 A 
ATOM     16  C18 OHT d   1      32.529  -2.496  26.146  0.00  0.00    -0.070 A 
ATOM     17  C19 OHT d   1      33.182  -3.114  25.117  0.00  0.00    -0.050 A 
ATOM     18  H16 OHT d   1      32.895  -2.638  27.157  0.00  0.00     0.085 H 
ATOM     19  C20 OHT d   1      32.725  -2.944  23.820  0.00  0.00     0.068 A 
ATOM     20  H17 OHT d   1      34.050  -3.732  25.314  0.00  0.00     0.087 H 
ATOM     21  C21 OHT d   1      31.601  -2.135  23.579  0.00  0.00    -0.050 A 
ATOM     22  C22 OHT d   1      30.966  -1.528  24.626  0.00  0.00    -0.070 A 
ATOM     23  H29 OHT d   1      31.239  -1.993  22.567  0.00  0.00     0.087 H 
ATOM     24  H30 OHT d   1      30.099  -0.907  24.432  0.00  0.00     0.085 H 
BRANCH  19  25
ATOM     25  O20 OHT d   1      33.296  -3.554  22.740  0.00  0.00    -0.350 OA
BRANCH  25  26
ATOM     26  C23 OHT d   1      32.900  -3.183  21.423  0.00  0.00     0.049 C 
ATOM     27  H18 OHT d   1      32.677  -2.107  21.382  0.00  0.00     0.077 H 
ATOM     28  H19 OHT d   1      32.010  -3.753  21.119  0.00  0.00     0.077 H 
BRANCH  26  29
ATOM     29  C24 OHT d   1      34.059  -3.508  20.520  0.00  0.00     0.102 C 
ATOM     30  H20 OHT d   1      34.992  -3.267  21.051  0.00  0.00     0.079 H 
ATOM     31  H21 OHT d   1      33.981  -2.885  19.616  0.00  0.00     0.079 H 
BRANCH  29  32
ATOM     32  N24 OHT d   1      34.109  -4.887  20.118  0.00  0.00    -0.077 N 
ATOM     33  H22 OHT d   1      33.693  -5.452  20.842  0.00  0.00     0.279 HD
BRANCH  32  34
ATOM     34  C25 OHT d   1      33.390  -5.111  18.863  0.00  0.00     0.066 C 
ATOM     35  H23 OHT d   1      33.451  -6.175  18.590  0.00  0.00     0.068 H 
ATOM     36  H24 OHT d   1      33.843  -4.502  18.067  0.00  0.00     0.068 H 
ATOM     37  H25 OHT d   1      32.335  -4.825  18.988  0.00  0.00     0.068 H 
ENDBRANCH  32  34
BRANCH  32  38
ATOM     38  C26 OHT d   1      35.506  -5.291  19.922  0.00  0.00     0.066 C 
ATOM     39  H26 OHT d   1      36.068  -5.131  20.854  0.00  0.00     0.068 H 
ATOM     40  H27 OHT d   1      35.952  -4.689  19.117  0.00  0.00     0.068 H 
ATOM     41  H28 OHT d   1      35.545  -6.356  19.648  0.00  0.00     0.068 H 
ENDBRANCH  32  38
ENDBRANCH  29  32
ENDBRANCH  26  29
ENDBRANCH  25  26
ENDBRANCH  19  25
ENDBRANCH   2  15
BRANCH   1  42
ATOM     42  C9  OHT d   1      30.702  -0.023  29.372  0.00  0.00    -0.043 C 
ATOM     43  H4  OHT d   1      29.698  -0.471  29.399  0.00  0.00     0.039 H 
ATOM     44  H5  OHT d   1      31.306  -0.428  30.197  0.00  0.00     0.039 H 
BRANCH  42  45
ATOM     45  C10 OHT d   1      30.574   1.465  29.550  0.00  0.00    -0.073 C 
ATOM     46  H1  OHT d   1      30.090   1.679  30.514  0.00  0.00     0.028 H 
ATOM     47  H2  OHT d   1      29.965   1.881  28.734  0.00  0.00     0.028 H 
ATOM     48  H3  OHT d   1      31.574   1.924  29.532  0.00  0.00     0.028 H 
ENDBRANCH  42  45
ENDBRANCH   1  42
BRANCH   1  49
ATOM     49  C11 OHT d   1      32.788   0.053  27.962  0.00  0.00    -0.029 A 
ATOM     50  C16 OHT d   1      33.241   0.782  26.842  0.00  0.00    -0.072 A 
ATOM     51  C15 OHT d   1      34.559   1.235  26.776  0.00  0.00    -0.082 A 
ATOM     52  H6  OHT d   1      32.559   0.992  26.026  0.00  0.00     0.084 H 
ATOM     53  C14 OHT d   1      35.451   0.980  27.799  0.00  0.00    -0.083 A 
ATOM     54  H7  OHT d   1      34.888   1.796  25.909  0.00  0.00     0.083 H 
ATOM     55  C13 OHT d   1      35.027   0.270  28.897  0.00  0.00    -0.082 A 
ATOM     56  H8  OHT d   1      36.473   1.335  27.737  0.00  0.00     0.083 H 
ATOM     57  C12 OHT d   1      33.707  -0.188  28.976  0.00  0.00    -0.072 A 
ATOM     58  H9  OHT d   1      35.719   0.064  29.706  0.00  0.00     0.083 H 
ATOM     59  H10 OHT d   1      33.393  -0.745  29.851  0.00  0.00     0.084 H 
ENDBRANCH   1  49
TORSDOF 12
