REMARK  3 active torsions:
REMARK  status: ('A' for Active; 'I' for Inactive)
REMARK    1  A    between atoms: C4_4  and  N4_5 
REMARK    2  A    between atoms: N1_8  and  C1'_9 
REMARK    3  A    between atoms: C2'_19  and  O2'_20 
ROOT
ATOM      1  C1' CC7 d   1       9.433  31.793  12.409  0.00  0.00     0.141 C 
ATOM      2  O4' CC7 d   1       9.006  32.057  11.065  0.00  0.00    -0.353 OA
ATOM      3  C4' CC7 d   1      10.134  32.557  10.409  0.00  0.00     0.090 C 
ATOM      4  C5' CC7 d   1      10.049  32.320   8.907  0.00  0.00     0.058 C 
ATOM      5  O5' CC7 d   1      11.327  32.571   8.313  0.00  0.00    -0.287 OA
ATOM      6  P   CC7 d   1      12.670  31.905   8.954  0.00  0.00     0.408 P 
ATOM      7  O2P CC7 d   1      12.517  30.336   8.781  0.00  0.00    -0.624 OA
ATOM      8  O1P CC7 d   1      13.891  32.509   8.377  0.00  0.00    -0.624 OA
ATOM      9  O3' CC7 d   1      12.484  32.020  10.490  0.00  0.00    -0.279 OA
ATOM     10  C3' CC7 d   1      11.187  31.581  10.903  0.00  0.00     0.106 C 
ATOM     11  C2' CC7 d   1      10.943  31.645  12.385  0.00  0.00     0.106 C 
ATOM     12  H5  CC7 d   1       9.164  32.612  13.092  0.00  0.00     0.123 H 
ATOM     13  H6  CC7 d   1      10.341  33.610  10.651  0.00  0.00     0.090 H 
ATOM     14  H7  CC7 d   1       9.302  32.999   8.470  0.00  0.00     0.079 H 
ATOM     15  H8  CC7 d   1       9.754  31.278   8.716  0.00  0.00     0.079 H 
ATOM     16  H9  CC7 d   1      11.014  30.564  10.522  0.00  0.00     0.092 H 
ATOM     17  H10 CC7 d   1      11.314  30.764  12.929  0.00  0.00     0.093 H 
ENDROOT
BRANCH   1  18
ATOM     18  N1  CC7 d   1       8.674  30.596  12.744  0.00  0.00    -0.280 N 
ATOM     19  C2  CC7 d   1       7.513  30.771  13.455  0.00  0.00     0.330 A 
ATOM     20  O2  CC7 d   1       7.186  31.902  13.768  0.00  0.00    -0.246 OA
ATOM     21  N3  CC7 d   1       6.753  29.722  13.782  0.00  0.00    -0.293 N 
ATOM     22  C4  CC7 d   1       7.118  28.483  13.437  0.00  0.00     0.125 A 
ATOM     23  H1  CC7 d   1       5.903  29.865  14.290  0.00  0.00     0.172 HD
ATOM     24  C5  CC7 d   1       8.278  28.237  12.721  0.00  0.00    -0.024 A 
ATOM     25  C6  CC7 d   1       9.079  29.309  12.353  0.00  0.00    -0.009 A 
ATOM     26  H3  CC7 d   1       8.557  27.219  12.451  0.00  0.00     0.091 H 
ATOM     27  H4  CC7 d   1       9.992  29.157  11.780  0.00  0.00     0.112 H 
BRANCH  22  28
ATOM     28  N4  CC7 d   1       6.346  27.490  13.779  0.00  0.00    -0.284 NA
ATOM     29  H2  CC7 d   1       6.599  26.546  13.531  0.00  0.00     0.188 HD
ENDBRANCH  22  28
ENDBRANCH   1  18
BRANCH  11  30
ATOM     30  O2' CC7 d   1      11.481  32.846  12.888  0.00  0.00    -0.388 OA
ATOM     31  H11 CC7 d   1      12.415  32.870  12.716  0.00  0.00     0.210 HD
ENDBRANCH  11  30
TORSDOF 3
