REMARK  8 active torsions:
REMARK  status: ('A' for Active; 'I' for Inactive)
REMARK    1  A    between atoms: S30_2  and  N33_4 
REMARK    2  A    between atoms: S30_2  and  C29_9 
REMARK    3  A    between atoms: C24_14  and  C23_15 
REMARK    4  A    between atoms: C23_15  and  N22_16 
REMARK    5  A    between atoms: N22_16  and  C21_17 
REMARK    6  A    between atoms: C8_19  and  N9_27 
REMARK    7  A    between atoms: C5_22  and  C2_23 
REMARK    8  A    between atoms: N9_27  and  C10_28 
ROOT
ATOM      1  N22 349 d   1      24.887  67.735  19.492  0.00  0.00    -0.369 N 
ATOM      2  H15 349 d   1      25.514  67.884  20.296  0.00  0.00     0.161 HD
ENDROOT
BRANCH   1   3
ATOM      3  C23 349 d   1      23.577  67.058  19.732  0.00  0.00     0.019 C 
ATOM      4  H13 349 d   1      23.073  67.479  20.615  0.00  0.00     0.071 H 
ATOM      5  H14 349 d   1      22.920  67.152  18.855  0.00  0.00     0.071 H 
BRANCH   3   6
ATOM      6  C24 349 d   1      23.964  65.606  19.968  0.00  0.00    -0.017 A 
ATOM      7  C29 349 d   1      23.016  64.664  20.424  0.00  0.00     0.087 A 
ATOM      8  C28 349 d   1      23.296  63.290  20.710  0.00  0.00    -0.060 A 
ATOM      9  C27 349 d   1      24.563  62.819  20.502  0.00  0.00    -0.081 A 
ATOM     10  H9  349 d   1      22.518  62.635  21.085  0.00  0.00     0.085 H 
ATOM     11  C26 349 d   1      25.499  63.779  20.065  0.00  0.00    -0.082 A 
ATOM     12  H10 349 d   1      24.829  61.780  20.662  0.00  0.00     0.083 H 
ATOM     13  C25 349 d   1      25.263  65.128  19.790  0.00  0.00    -0.074 A 
ATOM     14  H11 349 d   1      26.516  63.431  19.927  0.00  0.00     0.083 H 
ATOM     15  H12 349 d   1      26.060  65.780  19.451  0.00  0.00     0.084 H 
BRANCH   7  16
ATOM     16  S30 349 d   1      21.384  65.262  20.732  0.00  0.00     0.261 S 
ATOM     17  O32 349 d   1      21.583  66.103  21.878  0.00  0.00    -0.200 OA
ATOM     18  O31 349 d   1      20.837  65.576  19.462  0.00  0.00    -0.200 OA
BRANCH  16  19
ATOM     19  N33 349 d   1      20.548  63.896  21.304  0.00  0.00    -0.307 N 
ATOM     20  C34 349 d   1      20.527  63.399  22.722  0.00  0.00     0.005 C 
ATOM     21  C35 349 d   1      19.259  62.456  22.844  0.00  0.00    -0.048 C 
ATOM     22  H1  349 d   1      20.442  64.244  23.421  0.00  0.00     0.065 H 
ATOM     23  H2  349 d   1      21.445  62.834  22.941  0.00  0.00     0.065 H 
ATOM     24  C36 349 d   1      19.059  61.904  21.412  0.00  0.00    -0.048 C 
ATOM     25  H3  349 d   1      18.377  63.028  23.169  0.00  0.00     0.035 H 
ATOM     26  H4  349 d   1      19.448  61.638  23.555  0.00  0.00     0.035 H 
ATOM     27  C37 349 d   1      19.581  63.067  20.513  0.00  0.00     0.005 C 
ATOM     28  H5  349 d   1      17.997  61.696  21.213  0.00  0.00     0.035 H 
ATOM     29  H6  349 d   1      19.648  60.988  21.255  0.00  0.00     0.035 H 
ATOM     30  H7  349 d   1      20.087  62.652  19.629  0.00  0.00     0.065 H 
ATOM     31  H8  349 d   1      18.736  63.693  20.191  0.00  0.00     0.065 H 
ENDBRANCH  16  19
ENDBRANCH   7  16
ENDBRANCH   3   6
ENDBRANCH   1   3
BRANCH   1  32
ATOM     32  C21 349 d   1      25.306  68.177  18.234  0.00  0.00     0.159 A 
ATOM     33  N20 349 d   1      24.605  67.856  17.157  0.00  0.00    -0.044 NA
ATOM     34  C8  349 d   1      25.044  68.307  15.978  0.00  0.00     0.728 A 
ATOM     35  N7  349 d   1      26.075  69.145  15.770  0.00  0.00    -0.074 NA
ATOM     36  C6  349 d   1      26.832  69.480  16.827  0.00  0.00     0.039 A 
ATOM     37  C5  349 d   1      26.430  68.950  18.045  0.00  0.00     0.112 A 
ATOM     38  H16 349 d   1      27.700  70.122  16.735  0.00  0.00     0.117 H 
BRANCH  34  39
ATOM     39  N9  349 d   1      24.230  67.969  14.963  0.00  0.00    -0.188 N 
ATOM     40  H17 349 d   1      24.390  68.345  14.018  0.00  0.00     0.184 HD
BRANCH  39  41
ATOM     41  C10 349 d   1      23.136  67.077  15.216  0.00  0.00     0.050 A 
ATOM     42  C11 349 d   1      23.075  66.397  16.379  0.00  0.00    -0.054 A 
ATOM     43  C12 349 d   1      22.013  65.524  16.517  0.00  0.00    -0.054 A 
ATOM     44  H18 349 d   1      23.816  66.528  17.160  0.00  0.00     0.087 H 
ATOM     45  C13 349 d   1      20.994  65.296  15.641  0.00  0.00     0.041 A 
ATOM     46  H19 349 d   1      21.987  64.949  17.436  0.00  0.00     0.087 H 
ATOM     47  N14 349 d   1      19.858  64.462  15.707  0.00  0.00    -0.326 N 
ATOM     48  C18 349 d   1      21.075  65.985  14.442  0.00  0.00    -0.021 A 
ATOM     49  C15 349 d   1      19.163  64.592  14.491  0.00  0.00     0.226 A 
ATOM     50  H20 349 d   1      19.595  63.883  16.479  0.00  0.00     0.169 HD
ATOM     51  C17 349 d   1      19.884  65.581  13.562  0.00  0.00     0.035 A 
ATOM     52  O16 349 d   1      18.141  64.021  14.120  0.00  0.00    -0.273 OA
ATOM     53  H22 349 d   1      20.214  65.096  12.632  0.00  0.00     0.054 H 
ATOM     54  H23 349 d   1      19.248  66.445  13.319  0.00  0.00     0.054 H 
ATOM     55  C19 349 d   1      22.117  66.865  14.245  0.00  0.00    -0.048 A 
ATOM     56  H21 349 d   1      22.163  67.418  13.314  0.00  0.00     0.087 H 
ENDBRANCH  39  41
ENDBRANCH  34  39
BRANCH  37  57
ATOM     57  C2  349 d   1      27.214  69.264  19.241  0.00  0.00     0.422 C 
ATOM     58  F4  349 d   1      26.341  69.889  20.127  0.00  0.00    -0.166 F 
ATOM     59  F3  349 d   1      27.671  68.124  19.925  0.00  0.00    -0.166 F 
ATOM     60  F1  349 d   1      28.356  69.896  18.763  0.00  0.00    -0.166 F 
ENDBRANCH  37  57
ENDBRANCH   1  32
TORSDOF 8
