REMARK  8 active torsions:
REMARK  status: ('A' for Active; 'I' for Inactive)
REMARK    1  A    between atoms: N1_1  and  C2_2 
REMARK    2  A    between atoms: C2_2  and  C3_3 
REMARK    3  A    between atoms: C6_6  and  C9_9 
REMARK    4  A    between atoms: C15_15  and  C16_16 
REMARK    5  A    between atoms: C20_20  and  N21_21 
REMARK       I    between atoms: N21_21  and  C22_22 
REMARK       I    between atoms: C22_22  and  N24_24 
REMARK    6  A    between atoms: N24_24  and  C25_25 
REMARK    7  A    between atoms: C30_30  and  O31_31 
REMARK    8  A    between atoms: O31_31  and  C32_32 
ROOT
ATOM      1  C16 351 d   1      50.140  17.096   7.717  0.00  0.00    -0.021 A 
ATOM      2  C17 351 d   1      48.960  17.792   7.847  0.00  0.00    -0.072 A 
ATOM      3  C18 351 d   1      47.915  17.234   8.547  0.00  0.00    -0.080 A 
ATOM      4  C19 351 d   1      48.041  15.984   9.112  0.00  0.00    -0.057 A 
ATOM      5  C20 351 d   1      49.217  15.280   8.987  0.00  0.00     0.037 A 
ATOM      6  C38 351 d   1      50.268  15.845   8.289  0.00  0.00    -0.046 A 
ATOM      7  H13 351 d   1      48.854  18.774   7.401  0.00  0.00     0.084 H 
ATOM      8  H14 351 d   1      46.986  17.782   8.655  0.00  0.00     0.083 H 
ATOM      9  H15 351 d   1      47.210  15.553   9.658  0.00  0.00     0.086 H 
ATOM     10  H27 351 d   1      51.201  15.302   8.190  0.00  0.00     0.088 H 
ENDROOT
BRANCH   1  11
ATOM     11  C15 351 d   1      51.241  17.665   6.982  0.00  0.00     0.004 A 
ATOM     12  C14 351 d   1      52.548  17.360   7.287  0.00  0.00    -0.010 A 
ATOM     13  N13 351 d   1      53.351  18.044   6.425  0.00  0.00    -0.349 N 
ATOM     14  H12 351 d   1      52.882  16.690   8.078  0.00  0.00     0.112 H 
ATOM     15  C12 351 d   1      52.592  18.781   5.567  0.00  0.00     0.138 A 
ATOM     16  H11 351 d   1      54.380  18.009   6.422  0.00  0.00     0.167 HD
ATOM     17  N11 351 d   1      53.096  19.559   4.609  0.00  0.00    -0.242 NA
ATOM     18  C39 351 d   1      51.265  18.570   5.885  0.00  0.00     0.023 A 
ATOM     19  C10 351 d   1      52.131  20.163   3.915  0.00  0.00     0.015 A 
ATOM     20  C9  351 d   1      50.774  20.045   4.123  0.00  0.00    -0.007 A 
ATOM     21  H10 351 d   1      52.446  20.812   3.106  0.00  0.00     0.116 H 
ATOM     22  C40 351 d   1      50.307  19.230   5.134  0.00  0.00    -0.056 A 
ATOM     23  H28 351 d   1      49.247  19.113   5.330  0.00  0.00     0.086 H 
BRANCH  20  24
ATOM     24  C6  351 d   1      49.859  20.752   3.265  0.00  0.00    -0.025 A 
ATOM     25  C5  351 d   1      48.612  21.149   3.706  0.00  0.00    -0.072 A 
ATOM     26  C4  351 d   1      47.750  21.829   2.871  0.00  0.00    -0.074 A 
ATOM     27  H7  351 d   1      48.307  20.923   4.721  0.00  0.00     0.084 H 
ATOM     28  C3  351 d   1      48.143  22.114   1.581  0.00  0.00    -0.033 A 
ATOM     29  H6  351 d   1      46.773  22.136   3.226  0.00  0.00     0.084 H 
ATOM     30  C8  351 d   1      49.381  21.715   1.126  0.00  0.00    -0.074 A 
ATOM     31  C7  351 d   1      50.232  21.037   1.967  0.00  0.00    -0.072 A 
ATOM     32  H9  351 d   1      49.683  21.935   0.108  0.00  0.00     0.084 H 
ATOM     33  H8  351 d   1      51.205  20.723   1.607  0.00  0.00     0.084 H 
BRANCH  28  34
ATOM     34  C2  351 d   1      47.236  22.850   0.667  0.00  0.00     0.103 C 
ATOM     35  H4  351 d   1      46.730  23.656   1.218  0.00  0.00     0.082 H 
ATOM     36  H5  351 d   1      47.816  23.281  -0.162  0.00  0.00     0.082 H 
BRANCH  34  37
ATOM     37  N1  351 d   1      46.236  21.909   0.136  0.00  0.00    -0.075 N 
ATOM     38  H1  351 d   1      45.613  22.398  -0.487  0.00  0.00     0.274 HD
ATOM     39  H2  351 d   1      45.708  21.515   0.898  0.00  0.00     0.274 HD
ATOM     40  H3  351 d   1      46.703  21.171  -0.367  0.00  0.00     0.274 HD
ENDBRANCH  34  37
ENDBRANCH  28  34
ENDBRANCH  20  24
ENDBRANCH   1  11
BRANCH   5  41
ATOM     41  N21 351 d   1      49.313  14.009   9.586  0.00  0.00    -0.309 N 
ATOM     42  C22 351 d   1      49.964  12.937   9.009  0.00  0.00     0.325 C 
ATOM     43  O23 351 d   1      50.375  12.918   7.855  0.00  0.00    -0.247 OA
ATOM     44  N24 351 d   1      50.100  11.891   9.904  0.00  0.00    -0.306 N 
ATOM     45  H17 351 d   1      49.973  12.085  10.877  0.00  0.00     0.171 HD
ATOM     46  H16 351 d   1      48.885  13.875  10.480  0.00  0.00     0.170 HD
BRANCH  44  47
ATOM     47  C25 351 d   1      50.406  10.571   9.527  0.00  0.00     0.070 A 
ATOM     48  C26 351 d   1      51.468  10.290   8.695  0.00  0.00    -0.054 A 
ATOM     49  C27 351 d   1      51.747   8.981   8.354  0.00  0.00    -0.081 A 
ATOM     50  H18 351 d   1      52.083  11.095   8.309  0.00  0.00     0.087 H 
ATOM     51  C28 351 d   1      50.969   7.949   8.836  0.00  0.00    -0.080 A 
ATOM     52  H19 351 d   1      52.585   8.763   7.702  0.00  0.00     0.083 H 
ATOM     53  C29 351 d   1      49.907   8.223   9.669  0.00  0.00    -0.048 A 
ATOM     54  H20 351 d   1      51.193   6.925   8.560  0.00  0.00     0.083 H 
ATOM     55  C30 351 d   1      49.641   9.533  10.014  0.00  0.00     0.102 A 
ATOM     56  H21 351 d   1      49.287   7.419  10.049  0.00  0.00     0.087 H 
BRANCH  55  57
ATOM     57  O31 351 d   1      48.584   9.853  10.843  0.00  0.00    -0.309 OA
BRANCH  57  58
ATOM     58  C32 351 d   1      48.476   9.149  12.028  0.00  0.00     0.076 A 
ATOM     59  C33 351 d   1      49.588   8.721  12.721  0.00  0.00    -0.050 A 
ATOM     60  C34 351 d   1      49.413   8.029  13.903  0.00  0.00    -0.080 A 
ATOM     61  H22 351 d   1      50.584   8.924  12.344  0.00  0.00     0.087 H 
ATOM     62  C35 351 d   1      48.143   7.775  14.380  0.00  0.00    -0.083 A 
ATOM     63  H23 351 d   1      50.277   7.684  14.459  0.00  0.00     0.083 H 
ATOM     64  C36 351 d   1      47.038   8.208  13.679  0.00  0.00    -0.080 A 
ATOM     65  H24 351 d   1      48.014   7.233  15.310  0.00  0.00     0.083 H 
ATOM     66  C37 351 d   1      47.205   8.900  12.499  0.00  0.00    -0.050 A 
ATOM     67  H25 351 d   1      46.041   8.005  14.054  0.00  0.00     0.083 H 
ATOM     68  H26 351 d   1      46.341   9.247  11.944  0.00  0.00     0.087 H 
ENDBRANCH  57  58
ENDBRANCH  55  57
ENDBRANCH  44  47
ENDBRANCH   5  41
TORSDOF 8
