REMARK WARNING: 32 MAX_TORS EXCEEDED!!!
REMARK  57 active torsions:
REMARK  status: ('A' for Active; 'I' for Inactive)
REMARK    1  A    between atoms: N_1  and  CA_2 
REMARK    2  A    between atoms: CA_2  and  C_3 
REMARK    3  A    between atoms: CA_2  and  CB_5 
REMARK       I    between atoms: C_3  and  N_6 
REMARK    4  A    between atoms: N_6  and  CA_7 
REMARK    5  A    between atoms: CA_7  and  C_8 
REMARK       I    between atoms: C_8  and  N_10 
REMARK    6  A    between atoms: CA_11  and  C_12 
REMARK       I    between atoms: C_12  and  N_17 
REMARK    7  A    between atoms: N_17  and  CA_18 
REMARK    8  A    between atoms: CA_18  and  C_19 
REMARK    9  A    between atoms: CA_18  and  CB_21 
REMARK       I    between atoms: C_19  and  N_25 
REMARK   10  A    between atoms: CB_21  and  CG1_22 
REMARK   11  A    between atoms: CB_21  and  CG2_23 
REMARK   12  A    between atoms: CG1_22  and  CD1_24 
REMARK   13  A    between atoms: N_25  and  CA_26 
REMARK   14  A    between atoms: CA_26  and  C_27 
REMARK   15  A    between atoms: CA_26  and  CB_29 
REMARK       I    between atoms: C_27  and  N_31 
REMARK   16  A    between atoms: CB_29  and  OG_30 
REMARK   17  A    between atoms: N_31  and  CA_32 
REMARK   18  A    between atoms: CA_32  and  C_33 
REMARK   19  A    between atoms: CA_32  and  CB_35 
REMARK       I    between atoms: C_33  and  N_39 
REMARK   20  A    between atoms: CB_35  and  CG_36 
REMARK   21  A    between atoms: CG_36  and  CD1_37 
REMARK   22  A    between atoms: CG_36  and  CD2_38 
REMARK   23  A    between atoms: N_39  and  CA_40 
REMARK   24  A    between atoms: CA_40  and  C_41 
REMARK   25  A    between atoms: CA_40  and  CB_43 
REMARK       I    between atoms: C_41  and  N_47 
REMARK   26  A    between atoms: CB_43  and  CG_44 
REMARK       I    between atoms: CG_44  and  ND2_46 
REMARK   27  A    between atoms: N_47  and  CA_48 
REMARK   28  A    between atoms: CA_48  and  C_49 
REMARK   29  A    between atoms: CA_48  and  CB_51 
REMARK       I    between atoms: C_49  and  N_61 
REMARK   30  A    between atoms: CB_51  and  CG_52 
REMARK   31  A    between atoms: N_61  and  CA_62 
REMARK   32  A    between atoms: CA_62  and  C_63 
REMARK   33  A    between atoms: CA_62  and  CB_65 
REMARK       I    between atoms: C_63  and  N_72 
REMARK   34  A    between atoms: CB_65  and  CG_66 
REMARK   35  A    between atoms: N_72  and  CA_73 
REMARK   36  A    between atoms: CA_73  and  C_74 
REMARK   37  A    between atoms: CA_73  and  CB_76 
REMARK       I    between atoms: C_74  and  N_81 
REMARK   38  A    between atoms: CB_76  and  CG_77 
REMARK   39  A    between atoms: CG_77  and  CD_78 
REMARK   40  A    between atoms: N_81  and  CA_82 
REMARK   41  A    between atoms: CA_82  and  C_83 
REMARK   42  A    between atoms: CA_82  and  CB_85 
REMARK       I    between atoms: C_83  and  N_90 
REMARK   43  A    between atoms: CB_85  and  CG_86 
REMARK   44  A    between atoms: CG_86  and  CD_87 
REMARK   45  A    between atoms: N_90  and  CA_91 
REMARK   46  A    between atoms: CA_91  and  C_92 
REMARK   47  A    between atoms: CA_91  and  CB_94 
REMARK       I    between atoms: C_92  and  N_98 
REMARK   48  A    between atoms: CB_94  and  CG_95 
REMARK   49  A    between atoms: CG_95  and  CD1_96 
REMARK   50  A    between atoms: CG_95  and  CD2_97 
REMARK   51  A    between atoms: N_98  and  CA_99 
REMARK   52  A    between atoms: CA_99  and  C_100 
REMARK   53  A    between atoms: CA_99  and  CB_102 
REMARK       I    between atoms: C_100  and  N_104 
REMARK   54  A    between atoms: CB_102  and  OG_103 
REMARK   55  A    between atoms: N_104  and  CA_105 
REMARK   56  A    between atoms: CA_105  and  C_106 
REMARK   57  A    between atoms: CA_105  and  CB_108 
ROOT
ATOM      1  CA  TRP d   1     -13.483 -11.073   5.124  0.00  0.00     0.093 C 
ATOM      2  H52 TRP d   1     -14.215 -11.825   4.794  0.00  0.00     0.088 H 
ENDROOT
BRANCH   1   3
ATOM      3  N   TRP d   1     -13.414 -10.036   4.096  0.00  0.00    -0.346 N 
ATOM      4  C   ASN d   1     -14.435  -9.228   3.808  0.00  0.00     0.241 C 
ATOM      5  O   ASN d   1     -15.501  -9.240   4.426  0.00  0.00    -0.271 OA
ATOM      6  H51 TRP d   1     -12.561  -9.928   3.585  0.00  0.00     0.163 HD
BRANCH   4   7
ATOM      7  CA  ASN d   1     -14.226  -8.278   2.616  0.00  0.00     0.097 C 
ATOM      8  H46 ASN d   1     -13.929  -7.298   3.017  0.00  0.00     0.088 H 
BRANCH   7   9
ATOM      9  N   ASN d   1     -13.179  -8.730   1.710  0.00  0.00    -0.346 N 
ATOM     10  C   LEU d   1     -12.109  -7.985   1.460  0.00  0.00     0.241 C 
ATOM     11  O   LEU d   1     -11.915  -6.881   2.002  0.00  0.00    -0.271 OA
ATOM     12  H45 ASN d   1     -13.268  -9.622   1.266  0.00  0.00     0.163 HD
BRANCH  10  13
ATOM     13  CA  LEU d   1     -11.116  -8.571   0.443  0.00  0.00     0.089 C 
ATOM     14  H35 LEU d   1     -10.124  -8.617   0.917  0.00  0.00     0.087 H 
BRANCH  13  15
ATOM     15  N   LEU d   1     -11.504  -9.932   0.057  0.00  0.00    -0.346 N 
ATOM     16  C   SER d   1     -11.363 -10.978   0.881  0.00  0.00     0.243 C 
ATOM     17  O   SER d   1     -10.968 -10.892   2.050  0.00  0.00    -0.271 OA
ATOM     18  H34 LEU d   1     -11.887 -10.084  -0.854  0.00  0.00     0.163 HD
BRANCH  16  19
ATOM     19  CA  SER d   1     -11.735 -12.330   0.309  0.00  0.00     0.109 C 
ATOM     20  H30 SER d   1     -12.104 -12.186  -0.717  0.00  0.00     0.090 H 
BRANCH  19  21
ATOM     21  N   SER d   1     -10.561 -13.174   0.258  0.00  0.00    -0.344 N 
ATOM     22  C   ILE d   1     -10.147 -13.666  -0.901  0.00  0.00     0.241 C 
ATOM     23  O   ILE d   1     -10.744 -13.458  -1.956  0.00  0.00    -0.271 OA
ATOM     24  H29 SER d   1     -10.062 -13.386   1.098  0.00  0.00     0.163 HD
BRANCH  22  25
ATOM     25  CA  ILE d   1      -8.873 -14.495  -0.875  0.00  0.00     0.092 C 
ATOM     26  H19 ILE d   1      -8.642 -14.780   0.162  0.00  0.00     0.088 H 
BRANCH  25  27
ATOM     27  N   ILE d   1      -9.061 -15.703  -1.650  0.00  0.00    -0.346 N 
ATOM     28  C   PRO d   1      -9.223 -16.893  -1.072  0.00  0.00     0.241 C 
ATOM     29  O   PRO d   1      -9.067 -17.090   0.142  0.00  0.00    -0.271 OA
ATOM     30  H18 ILE d   1      -9.070 -15.643  -2.648  0.00  0.00     0.163 HD
BRANCH  28  31
ATOM     31  CA  PRO d   1      -9.605 -18.066  -1.984  0.00  0.00     0.091 C 
ATOM     32  N   PRO d   1      -8.912 -19.303  -1.595  0.00  0.00    -0.337 N 
ATOM     33  C   GLY d   1      -7.574 -19.391  -1.621  0.00  0.00     0.238 C 
ATOM     34  CD  PRO d   1      -9.814 -20.266  -0.943  0.00  0.00    -0.001 C 
ATOM     35  O   GLY d   1      -6.863 -18.433  -1.913  0.00  0.00    -0.272 OA
ATOM     36  CG  PRO d   1     -11.147 -19.875  -1.464  0.00  0.00    -0.048 C 
ATOM     37  H16 PRO d   1      -9.773 -20.169   0.152  0.00  0.00     0.064 H 
ATOM     38  H17 PRO d   1      -9.565 -21.299  -1.229  0.00  0.00     0.064 H 
ATOM     39  CB  PRO d   1     -11.091 -18.404  -1.772  0.00  0.00    -0.036 C 
ATOM     40  H14 PRO d   1     -11.376 -20.443  -2.378  0.00  0.00     0.035 H 
ATOM     41  H15 PRO d   1     -11.920 -20.072  -0.707  0.00  0.00     0.035 H 
ATOM     42  H12 PRO d   1     -11.666 -18.183  -2.683  0.00  0.00     0.036 H 
ATOM     43  H13 PRO d   1     -11.498 -17.823  -0.932  0.00  0.00     0.036 H 
ATOM     44  H11 PRO d   1      -9.395 -17.809  -3.033  0.00  0.00     0.087 H 
BRANCH  33  45
ATOM     45  CA  GLY d   1      -6.959 -20.727  -1.222  0.00  0.00     0.069 C 
ATOM     46  H9  GLY d   1      -6.038 -20.507  -0.663  0.00  0.00     0.078 H 
ATOM     47  H10 GLY d   1      -7.678 -21.232  -0.560  0.00  0.00     0.078 H 
BRANCH  45  48
ATOM     48  N   GLY d   1      -6.607 -21.674  -2.281  0.00  0.00    -0.351 N 
ATOM     49  C   LEU d   1      -6.970 -21.546  -3.560  0.00  0.00     0.248 C 
ATOM     50  O   LEU d   1      -7.567 -20.563  -3.998  0.00  0.00    -0.271 OA
ATOM     51  H8  GLY d   1      -6.058 -22.471  -2.030  0.00  0.00     0.163 HD
BRANCH  49  52
ATOM     52  CA  LEU d   1      -6.592 -22.707  -4.496  0.00  0.00     0.172 C 
ATOM     53  H4  LEU d   1      -5.697 -22.403  -5.059  0.00  0.00     0.098 H 
BRANCH  52  54
ATOM     54  N   LEU d   1      -6.268 -23.943  -3.781  0.00  0.00    -0.067 N 
ATOM     55  H1  LEU d   1      -6.030 -24.663  -4.445  0.00  0.00     0.275 HD
ATOM     56  H2  LEU d   1      -7.066 -24.237  -3.239  0.00  0.00     0.275 HD
ATOM     57  H3  LEU d   1      -5.486 -23.781  -3.167  0.00  0.00     0.275 HD
ENDBRANCH  52  54
BRANCH  52  58
ATOM     58  CB  LEU d   1      -7.722 -22.964  -5.495  0.00  0.00    -0.042 C 
ATOM     59  H5  LEU d   1      -7.960 -22.031  -6.028  0.00  0.00     0.030 H 
ATOM     60  H6  LEU d   1      -8.614 -23.316  -4.957  0.00  0.00     0.030 H 
ATOM     61  H7  LEU d   1      -7.405 -23.729  -6.219  0.00  0.00     0.030 H 
ENDBRANCH  52  58
ENDBRANCH  49  52
ENDBRANCH  45  48
ENDBRANCH  33  45
ENDBRANCH  28  31
ENDBRANCH  25  27
BRANCH  25  62
ATOM     62  CB  ILE d   1      -7.723 -13.605  -1.418  0.00  0.00    -0.030 C 
ATOM     63  H20 ILE d   1      -7.878 -13.450  -2.496  0.00  0.00     0.043 H 
BRANCH  62  64
ATOM     64  CG1 ILE d   1      -6.352 -14.255  -1.201  0.00  0.00    -0.063 C 
ATOM     65  H21 ILE d   1      -6.395 -15.293  -1.564  0.00  0.00     0.033 H 
ATOM     66  H22 ILE d   1      -6.129 -14.252  -0.124  0.00  0.00     0.033 H 
BRANCH  64  67
ATOM     67  CD1 ILE d   1      -5.218 -13.525  -1.937  0.00  0.00    -0.076 C 
ATOM     68  H26 ILE d   1      -4.265 -14.038  -1.742  0.00  0.00     0.027 H 
ATOM     69  H27 ILE d   1      -5.156 -12.487  -1.578  0.00  0.00     0.027 H 
ATOM     70  H28 ILE d   1      -5.421 -13.527  -3.018  0.00  0.00     0.027 H 
ENDBRANCH  64  67
ENDBRANCH  62  64
BRANCH  62  71
ATOM     71  CG2 ILE d   1      -7.733 -12.274  -0.717  0.00  0.00    -0.071 C 
ATOM     72  H23 ILE d   1      -8.711 -11.791  -0.861  0.00  0.00     0.028 H 
ATOM     73  H24 ILE d   1      -6.942 -11.633  -1.135  0.00  0.00     0.028 H 
ATOM     74  H25 ILE d   1      -7.553 -12.424   0.358  0.00  0.00     0.028 H 
ENDBRANCH  62  71
ENDBRANCH  25  62
ENDBRANCH  22  25
ENDBRANCH  19  21
BRANCH  19  75
ATOM     75  CB  SER d   1     -12.854 -12.979   1.133  0.00  0.00     0.044 C 
ATOM     76  H31 SER d   1     -12.555 -13.020   2.191  0.00  0.00     0.077 H 
ATOM     77  H32 SER d   1     -13.038 -13.999   0.764  0.00  0.00     0.077 H 
BRANCH  75  78
ATOM     78  OG  SER d   1     -14.037 -12.210   1.006  0.00  0.00    -0.398 OA
ATOM     79  H33 SER d   1     -14.731 -12.611   1.516  0.00  0.00     0.209 HD
ENDBRANCH  75  78
ENDBRANCH  19  75
ENDBRANCH  16  19
ENDBRANCH  13  15
BRANCH  13  80
ATOM     80  CB  LEU d   1     -11.018  -7.663  -0.798  0.00  0.00    -0.035 C 
ATOM     81  H36 LEU d   1     -10.421  -6.785  -0.510  0.00  0.00     0.037 H 
ATOM     82  H37 LEU d   1     -12.041  -7.345  -1.048  0.00  0.00     0.037 H 
BRANCH  80  83
ATOM     83  CG  LEU d   1     -10.395  -8.231  -2.082  0.00  0.00    -0.059 C 
ATOM     84  H38 LEU d   1     -10.806  -9.238  -2.246  0.00  0.00     0.038 H 
BRANCH  83  85
ATOM     85  CD1 LEU d   1     -10.768  -7.364  -3.277  0.00  0.00    -0.073 C 
ATOM     86  H39 LEU d   1     -10.316  -7.782  -4.189  0.00  0.00     0.028 H 
ATOM     87  H40 LEU d   1     -10.395  -6.341  -3.119  0.00  0.00     0.028 H 
ATOM     88  H41 LEU d   1     -11.862  -7.343  -3.387  0.00  0.00     0.028 H 
ENDBRANCH  83  85
BRANCH  83  89
ATOM     89  CD2 LEU d   1      -8.889  -8.355  -1.951  0.00  0.00    -0.073 C 
ATOM     90  H42 LEU d   1      -8.647  -8.985  -1.082  0.00  0.00     0.028 H 
ATOM     91  H43 LEU d   1      -8.449  -7.356  -1.813  0.00  0.00     0.028 H 
ATOM     92  H44 LEU d   1      -8.478  -8.814  -2.862  0.00  0.00     0.028 H 
ENDBRANCH  83  89
ENDBRANCH  80  83
ENDBRANCH  13  80
ENDBRANCH  10  13
ENDBRANCH   7   9
BRANCH   7  93
ATOM     93  CB  ASN d   1     -15.538  -8.106   1.830  0.00  0.00     0.036 C 
ATOM     94  H47 ASN d   1     -16.085  -9.060   1.839  0.00  0.00     0.051 H 
ATOM     95  H48 ASN d   1     -15.297  -7.831   0.793  0.00  0.00     0.051 H 
BRANCH  93  96
ATOM     96  CG  ASN d   1     -16.413  -7.042   2.421  0.00  0.00     0.217 C 
ATOM     97  OD1 ASN d   1     -15.903  -6.024   2.900  0.00  0.00    -0.274 OA
ATOM     98  ND2 ASN d   1     -17.733  -7.273   2.432  0.00  0.00    -0.370 N 
ATOM     99  H49 ASN d   1     -18.357  -6.592   2.816  0.00  0.00     0.159 HD
ATOM    100  H50 ASN d   1     -18.094  -8.126   2.056  0.00  0.00     0.159 HD
ENDBRANCH  93  96
ENDBRANCH   7  93
ENDBRANCH   4   7
ENDBRANCH   1   3
BRANCH   1 101
ATOM    101  C   TRP d   1     -13.947 -10.520   6.466  0.00  0.00     0.241 C 
ATOM    102  O   TRP d   1     -14.575 -11.227   7.258  0.00  0.00    -0.271 OA
ATOM    103  N   PHE d   1     -13.630  -9.258   6.720  0.00  0.00    -0.346 N 
ATOM    104  H61 PHE d   1     -13.219  -8.691   6.007  0.00  0.00     0.163 HD
BRANCH 103 105
ATOM    105  CA  PHE d   1     -13.881  -8.705   8.031  0.00  0.00     0.093 C 
ATOM    106  H62 PHE d   1     -13.575  -9.466   8.763  0.00  0.00     0.088 H 
BRANCH 105 107
ATOM    107  C   PHE d   1     -15.367  -8.422   8.280  0.00  0.00     0.241 C 
ATOM    108  O   PHE d   1     -15.931  -8.912   9.258  0.00  0.00    -0.271 OA
ATOM    109  N   GLU d   1     -15.987  -7.639   7.395  0.00  0.00    -0.346 N 
ATOM    110  H70 GLU d   1     -15.455  -7.207   6.667  0.00  0.00     0.163 HD
BRANCH 109 111
ATOM    111  CA  GLU d   1     -17.421  -7.399   7.466  0.00  0.00     0.090 C 
ATOM    112  H71 GLU d   1     -17.660  -7.014   8.468  0.00  0.00     0.087 H 
BRANCH 111 113
ATOM    113  C   GLU d   1     -18.162  -8.720   7.262  0.00  0.00     0.241 C 
ATOM    114  O   GLU d   1     -19.197  -8.966   7.890  0.00  0.00    -0.271 OA
ATOM    115  N   GLU d   1     -17.599  -9.591   6.427  0.00  0.00    -0.346 N 
ATOM    116  H76 GLU d   1     -16.768  -9.334   5.934  0.00  0.00     0.163 HD
BRANCH 115 117
ATOM    117  CA  GLU d   1     -18.179 -10.923   6.219  0.00  0.00     0.090 C 
ATOM    118  H77 GLU d   1     -19.174 -10.780   5.771  0.00  0.00     0.087 H 
BRANCH 117 119
ATOM    119  C   GLU d   1     -18.379 -11.666   7.541  0.00  0.00     0.241 C 
ATOM    120  O   GLU d   1     -19.502 -12.063   7.872  0.00  0.00    -0.271 OA
ATOM    121  N   LEU d   1     -17.306 -11.848   8.304  0.00  0.00    -0.346 N 
ATOM    122  H82 LEU d   1     -16.418 -11.512   7.990  0.00  0.00     0.163 HD
BRANCH 121 123
ATOM    123  CA  LEU d   1     -17.400 -12.526   9.587  0.00  0.00     0.089 C 
ATOM    124  H83 LEU d   1     -17.920 -13.485   9.444  0.00  0.00     0.087 H 
BRANCH 123 125
ATOM    125  C   LEU d   1     -18.215 -11.668  10.572  0.00  0.00     0.241 C 
ATOM    126  O   LEU d   1     -18.904 -12.169  11.451  0.00  0.00    -0.271 OA
ATOM    127  N   SER d   1     -18.139 -10.359  10.409  0.00  0.00    -0.344 N 
ATOM    128  H93 SER d   1     -17.526  -9.983   9.714  0.00  0.00     0.163 HD
BRANCH 127 129
ATOM    129  CA  SER d   1     -18.936  -9.459  11.227  0.00  0.00     0.109 C 
ATOM    130  H94 SER d   1     -18.836  -9.778  12.275  0.00  0.00     0.090 H 
BRANCH 129 131
ATOM    131  C   SER d   1     -20.441  -9.491  10.867  0.00  0.00     0.243 C 
ATOM    132  O   SER d   1     -21.212  -8.636  11.312  0.00  0.00    -0.271 OA
ATOM    133  N   SER d   1     -20.866 -10.464  10.067  0.00  0.00    -0.349 N 
ATOM    134  H98 SER d   1     -20.263 -11.230   9.845  0.00  0.00     0.163 HD
BRANCH 133 135
ATOM    135  CA  SER d   1     -22.222 -10.409   9.511  0.00  0.00     0.059 C 
ATOM    136  H99 SER d   1     -22.744  -9.577  10.006  0.00  0.00     0.083 H 
BRANCH 135 137
ATOM    137  C   SER d   1     -23.027 -11.678   9.786  0.00  0.00     0.109 C 
ATOM    138  O   SER d   1     -24.211 -11.607  10.109  0.00  0.00    -0.305 OA
ATOM    139 0H10 SER d   1     -22.549 -12.652   9.695  0.00  0.00     0.146 H 
ENDBRANCH 135 137
BRANCH 135 140
ATOM    140  CB  SER d   1     -22.182 -10.105   8.005  0.00  0.00    -0.051 C 
ATOM    141 1H10 SER d   1     -23.208 -10.069   7.611  0.00  0.00     0.030 H 
ATOM    142 2H10 SER d   1     -21.618 -10.894   7.487  0.00  0.00     0.030 H 
ATOM    143 3H10 SER d   1     -21.691  -9.134   7.840  0.00  0.00     0.030 H 
ENDBRANCH 135 140
ENDBRANCH 133 135
ENDBRANCH 129 131
BRANCH 129 144
ATOM    144  CB  SER d   1     -18.386  -8.033  11.101  0.00  0.00     0.044 C 
ATOM    145  H95 SER d   1     -19.019  -7.347  11.684  0.00  0.00     0.077 H 
ATOM    146  H96 SER d   1     -18.397  -7.732  10.043  0.00  0.00     0.077 H 
BRANCH 144 147
ATOM    147  OG  SER d   1     -17.065  -7.973  11.588  0.00  0.00    -0.398 OA
ATOM    148  H97 SER d   1     -16.516  -8.563  11.085  0.00  0.00     0.209 HD
ENDBRANCH 144 147
ENDBRANCH 129 144
ENDBRANCH 127 129
ENDBRANCH 123 125
BRANCH 123 149
ATOM    149  CB  LEU d   1     -16.008 -12.808  10.128  0.00  0.00    -0.035 C 
ATOM    150  H84 LEU d   1     -16.101 -13.358  11.076  0.00  0.00     0.037 H 
ATOM    151  H85 LEU d   1     -15.497 -11.851  10.308  0.00  0.00     0.037 H 
BRANCH 149 152
ATOM    152  CG  LEU d   1     -15.170 -13.638   9.159  0.00  0.00    -0.059 C 
ATOM    153  H86 LEU d   1     -15.407 -13.312   8.135  0.00  0.00     0.038 H 
BRANCH 152 154
ATOM    154  CD1 LEU d   1     -13.690 -13.426   9.386  0.00  0.00    -0.073 C 
ATOM    155  H87 LEU d   1     -13.118 -14.038   8.672  0.00  0.00     0.028 H 
ATOM    156  H88 LEU d   1     -13.430 -13.722  10.413  0.00  0.00     0.028 H 
ATOM    157  H89 LEU d   1     -13.445 -12.364   9.238  0.00  0.00     0.028 H 
ENDBRANCH 152 154
BRANCH 152 158
ATOM    158  CD2 LEU d   1     -15.531 -15.112   9.287  0.00  0.00    -0.073 C 
ATOM    159  H90 LEU d   1     -16.610 -15.241   9.118  0.00  0.00     0.028 H 
ATOM    160  H91 LEU d   1     -15.273 -15.466  10.296  0.00  0.00     0.028 H 
ATOM    161  H92 LEU d   1     -14.971 -15.693   8.540  0.00  0.00     0.028 H 
ENDBRANCH 152 158
ENDBRANCH 149 152
ENDBRANCH 123 149
ENDBRANCH 121 123
ENDBRANCH 117 119
BRANCH 117 162
ATOM    162  CB  GLU d   1     -17.345 -11.751   5.227  0.00  0.00    -0.029 C 
ATOM    163  H78 GLU d   1     -17.508 -12.817   5.444  0.00  0.00     0.037 H 
ATOM    164  H79 GLU d   1     -16.284 -11.504   5.378  0.00  0.00     0.037 H 
BRANCH 162 165
ATOM    165  CG  GLU d   1     -17.695 -11.500   3.748  0.00  0.00     0.018 C 
ATOM    166  H80 GLU d   1     -17.853 -10.420   3.609  0.00  0.00     0.049 H 
ATOM    167  H81 GLU d   1     -18.625 -12.040   3.517  0.00  0.00     0.049 H 
BRANCH 165 168
ATOM    168  CD  GLU d   1     -16.610 -11.961   2.758  0.00  0.00     0.172 C 
ATOM    169  OE1 GLU d   1     -15.942 -13.004   2.994  0.00  0.00    -0.648 OA
ATOM    170  OE2 GLU d   1     -16.439 -11.269   1.729  0.00  0.00    -0.648 OA
ENDBRANCH 165 168
ENDBRANCH 162 165
ENDBRANCH 117 162
ENDBRANCH 115 117
ENDBRANCH 111 113
BRANCH 111 171
ATOM    171  CB  GLU d   1     -17.871  -6.359   6.438  0.00  0.00    -0.029 C 
ATOM    172  H72 GLU d   1     -17.763  -6.788   5.431  0.00  0.00     0.037 H 
ATOM    173  H73 GLU d   1     -17.228  -5.471   6.529  0.00  0.00     0.037 H 
BRANCH 171 174
ATOM    174  CG  GLU d   1     -19.325  -5.934   6.636  0.00  0.00     0.018 C 
ATOM    175  H74 GLU d   1     -19.339  -4.984   7.190  0.00  0.00     0.049 H 
ATOM    176  H75 GLU d   1     -19.838  -6.709   7.224  0.00  0.00     0.049 H 
BRANCH 174 177
ATOM    177  CD  GLU d   1     -20.087  -5.740   5.312  0.00  0.00     0.172 C 
ATOM    178  OE1 GLU d   1     -19.464  -5.258   4.327  0.00  0.00    -0.648 OA
ATOM    179  OE2 GLU d   1     -21.308  -6.066   5.262  0.00  0.00    -0.648 OA
ENDBRANCH 174 177
ENDBRANCH 171 174
ENDBRANCH 111 171
ENDBRANCH 109 111
ENDBRANCH 105 107
BRANCH 105 180
ATOM    180  CB  PHE d   1     -13.024  -7.469   8.283  0.00  0.00    -0.014 C 
ATOM    181  H63 PHE d   1     -13.285  -6.706   7.535  0.00  0.00     0.043 H 
ATOM    182  H64 PHE d   1     -11.967  -7.749   8.167  0.00  0.00     0.043 H 
BRANCH 180 183
ATOM    183  CG  PHE d   1     -13.212  -6.878   9.651  0.00  0.00    -0.056 A 
ATOM    184  CD1 PHE d   1     -12.459  -7.331  10.728  0.00  0.00    -0.077 A 
ATOM    185  CE1 PHE d   1     -12.618  -6.786  11.996  0.00  0.00    -0.082 A 
ATOM    186  H65 PHE d   1     -11.735  -8.123  10.576  0.00  0.00     0.084 H 
ATOM    187  CZ  PHE d   1     -13.552  -5.799  12.204  0.00  0.00    -0.083 A 
ATOM    188  H67 PHE d   1     -12.007  -7.138  12.819  0.00  0.00     0.083 H 
ATOM    189  CE2 PHE d   1     -14.329  -5.351  11.140  0.00  0.00    -0.082 A 
ATOM    190  H69 PHE d   1     -13.683  -5.372  13.192  0.00  0.00     0.083 H 
ATOM    191  CD2 PHE d   1     -14.154  -5.893   9.870  0.00  0.00    -0.077 A 
ATOM    192  H68 PHE d   1     -15.072  -4.578  11.301  0.00  0.00     0.083 H 
ATOM    193  H66 PHE d   1     -14.763  -5.539   9.046  0.00  0.00     0.084 H 
ENDBRANCH 180 183
ENDBRANCH 105 180
ENDBRANCH 103 105
ENDBRANCH   1 101
BRANCH   1 194
ATOM    194  CB  TRP d   1     -12.125 -11.766   5.295  0.00  0.00    -0.012 C 
ATOM    195  H53 TRP d   1     -11.848 -12.232   4.338  0.00  0.00     0.044 H 
ATOM    196  H54 TRP d   1     -12.224 -12.544   6.067  0.00  0.00     0.044 H 
BRANCH 194 197
ATOM    197  CG  TRP d   1     -11.017 -10.818   5.707  0.00  0.00    -0.028 A 
ATOM    198  CD1 TRP d   1     -10.158 -10.128   4.879  0.00  0.00    -0.015 A 
ATOM    199  NE1 TRP d   1      -9.294  -9.374   5.626  0.00  0.00    -0.365 N 
ATOM    200  H55 TRP d   1     -10.166 -10.176   3.791  0.00  0.00     0.112 H 
ATOM    201  CE2 TRP d   1      -9.577  -9.551   6.957  0.00  0.00     0.042 A 
ATOM    202  H56 TRP d   1      -8.550  -8.770   5.249  0.00  0.00     0.165 HD
ATOM    203  CD2 TRP d   1     -10.664 -10.453   7.044  0.00  0.00    -0.002 A 
ATOM    204  CZ2 TRP d   1      -8.984  -8.975   8.096  0.00  0.00    -0.056 A 
ATOM    205  CE3 TRP d   1     -11.160 -10.802   8.311  0.00  0.00    -0.070 A 
ATOM    206  CZ3 TRP d   1     -10.568 -10.238   9.448  0.00  0.00    -0.082 A 
ATOM    207  H57 TRP d   1     -11.987 -11.496   8.407  0.00  0.00     0.084 H 
ATOM    208  CH2 TRP d   1      -9.492  -9.328   9.329  0.00  0.00    -0.081 A 
ATOM    209  H59 TRP d   1     -10.939 -10.502  10.432  0.00  0.00     0.083 H 
ATOM    210  H60 TRP d   1      -9.058  -8.899  10.225  0.00  0.00     0.083 H 
ATOM    211  H58 TRP d   1      -8.158  -8.279   8.008  0.00  0.00     0.086 H 
ENDBRANCH 194 197
ENDBRANCH   1 194
TORSDOF 57
