REMARK  9 active torsions:
REMARK  status: ('A' for Active; 'I' for Inactive)
REMARK    1  A    between atoms: PB_2  and  O3A_5 
REMARK    2  A    between atoms: O3A_5  and  PA_6 
REMARK    3  A    between atoms: PA_6  and  O5'_9 
REMARK    4  A    between atoms: O5'_9  and  C5'_10 
REMARK    5  A    between atoms: C5'_10  and  C4'_11 
REMARK    6  A    between atoms: C3'_13  and  O3'_14 
REMARK    7  A    between atoms: C2'_15  and  O2'_16 
REMARK    8  A    between atoms: C1'_17  and  N9_18 
REMARK    9  A    between atoms: C2_25  and  N2_26 
ROOT
ATOM      1  C4' GTP d   1      27.757  24.988 -44.321  0.00  0.00     0.089 C 
ATOM      2  O4' GTP d   1      27.364  25.576 -45.589  0.00  0.00    -0.353 OA
ATOM      3  C3' GTP d   1      29.169  24.478 -44.560  0.00  0.00     0.091 C 
ATOM      4  C2' GTP d   1      29.113  24.016 -46.010  0.00  0.00     0.105 C 
ATOM      5  C1' GTP d   1      28.185  25.068 -46.628  0.00  0.00     0.139 C 
ATOM      6  H3  GTP d   1      27.101  24.141 -44.071  0.00  0.00     0.090 H 
ATOM      7  H4  GTP d   1      29.906  25.285 -44.437  0.00  0.00     0.091 H 
ATOM      8  H6  GTP d   1      30.111  24.030 -46.471  0.00  0.00     0.093 H 
ATOM      9  H8  GTP d   1      27.562  24.581 -47.392  0.00  0.00     0.122 H 
ENDROOT
BRANCH   5  10
ATOM     10  N9  GTP d   1      28.881  26.194 -47.246  0.00  0.00    -0.295 N 
ATOM     11  C8  GTP d   1      29.610  27.174 -46.612  0.00  0.00     0.071 A 
ATOM     12  N7  GTP d   1      30.101  28.062 -47.435  0.00  0.00    -0.234 NA
ATOM     13  H9  GTP d   1      29.762  27.206 -45.534  0.00  0.00     0.144 H 
ATOM     14  C5  GTP d   1      29.676  27.641 -48.688  0.00  0.00     0.171 A 
ATOM     15  C6  GTP d   1      29.897  28.206 -49.973  0.00  0.00     0.292 A 
ATOM     16  C4  GTP d   1      28.926  26.488 -48.590  0.00  0.00     0.161 A 
ATOM     17  O6  GTP d   1      30.542  29.220 -50.267  0.00  0.00    -0.265 OA
ATOM     18  N1  GTP d   1      29.277  27.462 -50.972  0.00  0.00    -0.154 N 
ATOM     19  C2  GTP d   1      28.544  26.318 -50.767  0.00  0.00     0.680 A 
ATOM     20  H10 GTP d   1      29.372  27.785 -51.913  0.00  0.00     0.187 HD
ATOM     21  N3  GTP d   1      28.338  25.778 -49.576  0.00  0.00    -0.174 N 
ATOM     22  H13 GTP d   1      27.793  24.918 -49.420  0.00  0.00     0.186 HD
BRANCH  19  23
ATOM     23  N2  GTP d   1      28.019  25.743 -51.860  0.00  0.00    -0.234 N 
ATOM     24  H11 GTP d   1      27.459  24.883 -51.771  0.00  0.00     0.174 HD
ATOM     25  H12 GTP d   1      28.176  26.162 -52.788  0.00  0.00     0.174 HD
ENDBRANCH  19  23
ENDBRANCH   5  10
BRANCH   4  26
ATOM     26  O2' GTP d   1      28.544  22.729 -46.151  0.00  0.00    -0.388 OA
ATOM     27  H7  GTP d   1      28.532  22.488 -47.070  0.00  0.00     0.210 HD
ENDBRANCH   4  26
BRANCH   1  28
ATOM     28  C5' GTP d   1      27.636  26.025 -43.227  0.00  0.00     0.058 C 
ATOM     29  H1  GTP d   1      26.647  26.503 -43.285  0.00  0.00     0.079 H 
ATOM     30  H2  GTP d   1      27.751  25.537 -42.248  0.00  0.00     0.079 H 
BRANCH  28  31
ATOM     31  O5' GTP d   1      28.650  27.016 -43.384  0.00  0.00    -0.287 OA
BRANCH  31  32
ATOM     32  PA  GTP d   1      28.487  28.473 -42.720  0.00  0.00     0.418 P 
ATOM     33  O1A GTP d   1      29.405  29.465 -43.594  0.00  0.00    -0.624 OA
ATOM     34  O2A GTP d   1      27.082  28.936 -42.659  0.00  0.00    -0.624 OA
BRANCH  32  35
ATOM     35  O3A GTP d   1      29.182  28.408 -41.269  0.00  0.00    -0.173 OA
BRANCH  35  36
ATOM     36  PB  GTP d   1      28.298  28.493 -39.926  0.00  0.00     0.431 P 
ATOM     37  O3B GTP d   1      27.901  30.044 -39.758  0.00  0.00    -0.616 OA
ATOM     38  O1B GTP d   1      29.307  28.162 -38.716  0.00  0.00    -0.616 OA
ATOM     39  O2B GTP d   1      27.120  27.597 -39.951  0.00  0.00    -0.616 OA
ENDBRANCH  35  36
ENDBRANCH  32  35
ENDBRANCH  31  32
ENDBRANCH  28  31
ENDBRANCH   1  28
BRANCH   3  40
ATOM     40  O3' GTP d   1      29.486  23.418 -43.667  0.00  0.00    -0.390 OA
ATOM     41  H5  GTP d   1      30.371  23.117 -43.836  0.00  0.00     0.210 HD
ENDBRANCH   3  40
TORSDOF 9
