REMARK  5 active torsions:
REMARK  status: ('A' for Active; 'I' for Inactive)
REMARK    1  A    between atoms: C11_1  and  C10_4 
REMARK    2  A    between atoms: C10_4  and  C9_5 
REMARK    3  A    between atoms: C9_5  and  C8_6 
REMARK    4  A    between atoms: C8_6  and  C7_7 
REMARK    5  A    between atoms: C7_7  and  C2_8 
ROOT
ATOM      1  C2  BTN d   1       6.745  84.184  24.669  0.00  0.00     0.012 C 
ATOM      2  S1  BTN d   1       7.422  82.794  24.038  0.00  0.00    -0.160 SA
ATOM      3  C6  BTN d   1       8.996  83.635  23.729  0.00  0.00    -0.002 C 
ATOM      4  C5  BTN d   1       9.170  84.792  24.697  0.00  0.00     0.041 A 
ATOM      5  N1  BTN d   1       9.952  84.359  25.840  0.00  0.00    -0.347 N 
ATOM      6  C3  BTN d   1       9.228  84.334  26.951  0.00  0.00     0.248 A 
ATOM      7  O3  BTN d   1       9.711  83.942  28.216  0.00  0.00    -0.152 OA
ATOM      8  N2  BTN d   1       7.986  84.728  26.705  0.00  0.00    -0.347 N 
ATOM      9  C4  BTN d   1       7.803  85.080  25.309  0.00  0.00     0.045 A 
ATOM     10  H9  BTN d   1       6.276  84.745  23.847  0.00  0.00     0.059 H 
ATOM     11  H10 BTN d   1       9.007  84.019  22.698  0.00  0.00     0.052 H 
ATOM     12  H11 BTN d   1       9.822  82.921  23.863  0.00  0.00     0.052 H 
ATOM     13  H12 BTN d   1       9.608  85.670  24.200  0.00  0.00     0.076 H 
ATOM     14  H13 BTN d   1      10.919  84.110  25.796  0.00  0.00     0.163 HD
ATOM     15  H14 BTN d   1       7.265  84.777  27.396  0.00  0.00     0.163 HD
ATOM     16  H15 BTN d   1       7.523  86.138  25.194  0.00  0.00     0.077 H 
ENDROOT
BRANCH   1  17
ATOM     17  C7  BTN d   1       5.663  83.812  25.676  0.00  0.00    -0.051 C 
ATOM     18  H7  BTN d   1       6.100  83.168  26.453  0.00  0.00     0.034 H 
ATOM     19  H8  BTN d   1       5.271  84.730  26.139  0.00  0.00     0.034 H 
BRANCH  17  20
ATOM     20  C8  BTN d   1       4.519  83.068  24.996  0.00  0.00    -0.063 C 
ATOM     21  H5  BTN d   1       4.369  83.483  23.988  0.00  0.00     0.033 H 
ATOM     22  H6  BTN d   1       4.779  82.002  24.919  0.00  0.00     0.033 H 
BRANCH  20  23
ATOM     23  C9  BTN d   1       3.227  83.210  25.792  0.00  0.00    -0.056 C 
ATOM     24  H3  BTN d   1       3.398  82.860  26.821  0.00  0.00     0.033 H 
ATOM     25  H4  BTN d   1       2.930  84.269  25.810  0.00  0.00     0.033 H 
BRANCH  23  26
ATOM     26  C10 BTN d   1       2.107  82.388  25.165  0.00  0.00     0.016 C 
ATOM     27  H1  BTN d   1       2.538  81.531  24.627  0.00  0.00     0.049 H 
ATOM     28  H2  BTN d   1       1.433  82.024  25.955  0.00  0.00     0.049 H 
BRANCH  26  29
ATOM     29  C11 BTN d   1       1.330  83.250  24.199  0.00  0.00     0.172 C 
ATOM     30  O11 BTN d   1       1.135  84.460  24.444  0.00  0.00    -0.648 OA
ATOM     31  O12 BTN d   1       0.873  82.764  23.142  0.00  0.00    -0.648 OA
ENDBRANCH  26  29
ENDBRANCH  23  26
ENDBRANCH  20  23
ENDBRANCH  17  20
ENDBRANCH   1  17
TORSDOF 5
