REMARK  8 active torsions:
REMARK  status: ('A' for Active; 'I' for Inactive)
REMARK    1  A    between atoms: C38_1  and  N37_2 
REMARK    2  A    between atoms: N37_2  and  C35_3 
REMARK    3  A    between atoms: C31_8  and  C24_9 
REMARK    4  A    between atoms: C29_14  and  O36_15 
REMARK    5  A    between atoms: O36_15  and  C20_16 
REMARK    6  A    between atoms: C23_25  and  N19_26 
REMARK    7  A    between atoms: N19_26  and  C12_27 
REMARK    8  A    between atoms: C9_31  and  C39_32 
ROOT
ATOM      1  C20 K11 d   1      16.489  -5.827   9.291  0.00  0.00     0.089 A 
ATOM      2  C21 K11 d   1      15.787  -4.619   9.357  0.00  0.00    -0.047 A 
ATOM      3  C22 K11 d   1      15.542  -4.015  10.594  0.00  0.00    -0.053 A 
ATOM      4  C13 K11 d   1      16.912  -6.452  10.471  0.00  0.00     0.010 A 
ATOM      5  C18 K11 d   1      17.604  -7.672  10.421  0.00  0.00    -0.069 A 
ATOM      6  C17 K11 d   1      18.036  -8.290  11.593  0.00  0.00    -0.082 A 
ATOM      7  C16 K11 d   1      17.778  -7.689  12.827  0.00  0.00    -0.082 A 
ATOM      8  C15 K11 d   1      17.098  -6.471  12.888  0.00  0.00    -0.070 A 
ATOM      9  C14 K11 d   1      16.660  -5.848  11.713  0.00  0.00     0.004 A 
ATOM     10  C23 K11 d   1      15.960  -4.632  11.777  0.00  0.00     0.060 A 
ATOM     11  H10 K11 d   1      15.432  -4.150   8.447  0.00  0.00     0.087 H 
ATOM     12  H11 K11 d   1      15.025  -3.063  10.636  0.00  0.00     0.087 H 
ATOM     13  H12 K11 d   1      17.804  -8.137   9.463  0.00  0.00     0.085 H 
ATOM     14  H13 K11 d   1      18.570  -9.232  11.547  0.00  0.00     0.083 H 
ATOM     15  H14 K11 d   1      18.107  -8.170  13.741  0.00  0.00     0.083 H 
ATOM     16  H15 K11 d   1      16.909  -6.006  13.849  0.00  0.00     0.084 H 
ENDROOT
BRANCH   1  17
ATOM     17  O36 K11 d   1      16.697  -6.426   8.076  0.00  0.00    -0.290 OA
BRANCH  17  18
ATOM     18  C29 K11 d   1      17.722  -6.071   7.243  0.00  0.00     0.182 A 
ATOM     19  C24 K11 d   1      17.760  -6.609   5.936  0.00  0.00     0.047 A 
ATOM     20  C25 K11 d   1      18.823  -6.230   5.106  0.00  0.00    -0.065 A 
ATOM     21  C26 K11 d   1      19.782  -5.339   5.583  0.00  0.00    -0.065 A 
ATOM     22  H7  K11 d   1      18.899  -6.627   4.100  0.00  0.00     0.085 H 
ATOM     23  C27 K11 d   1      19.683  -4.844   6.879  0.00  0.00     0.005 A 
ATOM     24  H8  K11 d   1      20.603  -5.032   4.946  0.00  0.00     0.085 H 
ATOM     25  N28 K11 d   1      18.679  -5.210   7.671  0.00  0.00    -0.236 NA
ATOM     26  H9  K11 d   1      20.432  -4.152   7.248  0.00  0.00     0.114 H 
BRANCH  19  27
ATOM     27  C31 K11 d   1      16.812  -7.525   5.423  0.00  0.00     0.091 A 
ATOM     28  N30 K11 d   1      16.733  -7.729   4.090  0.00  0.00    -0.062 NA
ATOM     29  C35 K11 d   1      15.862  -8.601   3.541  0.00  0.00     0.722 A 
ATOM     30  N34 K11 d   1      15.037  -9.328   4.325  0.00  0.00    -0.075 NA
ATOM     31  C33 K11 d   1      15.069  -9.188   5.648  0.00  0.00     0.023 A 
ATOM     32  C32 K11 d   1      15.961  -8.285   6.232  0.00  0.00    -0.036 A 
ATOM     33  H5  K11 d   1      14.404  -9.774   6.272  0.00  0.00     0.115 H 
ATOM     34  H6  K11 d   1      15.993  -8.174   7.310  0.00  0.00     0.089 H 
BRANCH  29  35
ATOM     35  N37 K11 d   1      15.822  -8.754   2.211  0.00  0.00    -0.227 N 
ATOM     36  H4  K11 d   1      15.081  -9.334   1.792  0.00  0.00     0.177 HD
BRANCH  35  37
ATOM     37  C38 K11 d   1      16.816  -8.109   1.334  0.00  0.00    -0.005 C 
ATOM     38  H1  K11 d   1      16.601  -8.364   0.286  0.00  0.00     0.057 H 
ATOM     39  H2  K11 d   1      17.823  -8.464   1.598  0.00  0.00     0.057 H 
ATOM     40  H3  K11 d   1      16.766  -7.018   1.464  0.00  0.00     0.057 H 
ENDBRANCH  35  37
ENDBRANCH  29  35
ENDBRANCH  19  27
ENDBRANCH  17  18
ENDBRANCH   1  17
BRANCH  10  41
ATOM     41  N19 K11 d   1      15.748  -4.055  12.976  0.00  0.00    -0.189 N 
ATOM     42  H16 K11 d   1      16.567  -3.982  13.596  0.00  0.00     0.184 HD
BRANCH  41  43
ATOM     43  C12 K11 d   1      14.595  -3.564  13.457  0.00  0.00     0.706 A 
ATOM     44  N5  K11 d   1      13.423  -3.425  12.823  0.00  0.00    -0.188 N 
ATOM     45  C7  K11 d   1      12.567  -2.895  13.707  0.00  0.00     0.079 A 
ATOM     46  H17 K11 d   1      13.219  -3.677  11.845  0.00  0.00     0.184 HD
ATOM     47  C8  K11 d   1      11.221  -2.528  13.632  0.00  0.00    -0.040 A 
ATOM     48  C6  K11 d   1      13.259  -2.721  14.908  0.00  0.00     0.103 A 
ATOM     49  C9  K11 d   1      10.585  -1.986  14.757  0.00  0.00     0.050 A 
ATOM     50  H18 K11 d   1      10.671  -2.662  12.707  0.00  0.00     0.088 H 
ATOM     51  C10 K11 d   1      11.286  -1.816  15.953  0.00  0.00    -0.066 A 
ATOM     52  C11 K11 d   1      12.627  -2.186  16.030  0.00  0.00    -0.051 A 
ATOM     53  H19 K11 d   1      10.788  -1.397  16.820  0.00  0.00     0.084 H 
ATOM     54  H20 K11 d   1      13.176  -2.059  16.956  0.00  0.00     0.087 H 
ATOM     55  N4  K11 d   1      14.504  -3.140  14.716  0.00  0.00    -0.062 NA
BRANCH  49  56
ATOM     56  C39 K11 d   1       9.115  -1.577  14.674  0.00  0.00     0.417 C 
ATOM     57  F2  K11 d   1       8.935  -0.855  13.573  0.00  0.00    -0.166 F 
ATOM     58  F3  K11 d   1       8.754  -0.869  15.753  0.00  0.00    -0.166 F 
ATOM     59  F1  K11 d   1       8.373  -2.664  14.604  0.00  0.00    -0.166 F 
ENDBRANCH  49  56
ENDBRANCH  41  43
ENDBRANCH  10  41
TORSDOF 8
