REMARK  8 active torsions:
REMARK  status: ('A' for Active; 'I' for Inactive)
REMARK    1  A    between atoms: O5'_5  and  P_2 
REMARK    2  A    between atoms: C5'_6  and  O5'_5 
REMARK    3  A    between atoms: C4'_7  and  C5'_6 
REMARK    4  A    between atoms: C3'_8  and  O3'_9 
REMARK    5  A    between atoms: C2'_10  and  O2'_11 
REMARK    6  A    between atoms: N1_14  and  C1'_13 
REMARK    7  A    between atoms: C7_15  and  C8_16 
REMARK    8  A    between atoms: C7_15  and  C6_17 
ROOT
ATOM      1  C4' UEP d   1       4.859   6.876  29.522  0.00  0.00     0.089 C 
ATOM      2  C3' UEP d   1       6.312   7.181  29.170  0.00  0.00     0.091 C 
ATOM      3  C2' UEP d   1       6.434   6.721  27.711  0.00  0.00     0.105 C 
ATOM      4  O4' UEP d   1       4.424   5.888  28.572  0.00  0.00    -0.353 OA
ATOM      5  C1' UEP d   1       5.414   5.556  27.600  0.00  0.00     0.141 C 
ATOM      6  H3  UEP d   1       4.766   6.506  30.554  0.00  0.00     0.090 H 
ATOM      7  H4  UEP d   1       6.566   8.244  29.295  0.00  0.00     0.091 H 
ATOM      8  H6  UEP d   1       6.185   7.522  27.000  0.00  0.00     0.093 H 
ATOM      9  H8  UEP d   1       5.896   4.600  27.854  0.00  0.00     0.123 H 
ENDROOT
BRANCH   5  10
ATOM     10  N1  UEP d   1       4.835   5.450  26.242  0.00  0.00    -0.273 N 
ATOM     11  C6  UEP d   1       4.901   4.304  25.523  0.00  0.00     0.024 A 
ATOM     12  C5  UEP d   1       4.408   4.222  24.233  0.00  0.00     0.005 A 
ATOM     13  C4  UEP d   1       3.823   5.362  23.712  0.00  0.00     0.251 A 
ATOM     14  H14 UEP d   1       4.477   3.302  23.654  0.00  0.00     0.095 H 
ATOM     15  O4  UEP d   1       3.366   5.355  22.550  0.00  0.00    -0.268 OA
ATOM     16  N3  UEP d   1       3.773   6.489  24.435  0.00  0.00    -0.275 N 
ATOM     17  C2  UEP d   1       4.247   6.567  25.692  0.00  0.00     0.331 A 
ATOM     18  H15 UEP d   1       3.367   7.305  24.024  0.00  0.00     0.173 HD
ATOM     19  O2  UEP d   1       4.189   7.637  26.309  0.00  0.00    -0.246 OA
BRANCH  11  20
ATOM     20  C7  UEP d   1       5.451   3.152  26.145  0.00  0.00    -0.029 C 
ATOM     21  H9  UEP d   1       5.616   2.399  25.360  0.00  0.00     0.041 H 
ATOM     22  H10 UEP d   1       6.417   3.442  26.584  0.00  0.00     0.041 H 
BRANCH  20  23
ATOM     23  C8  UEP d   1       4.620   2.489  27.254  0.00  0.00    -0.071 C 
ATOM     24  H11 UEP d   1       5.161   1.615  27.645  0.00  0.00     0.028 H 
ATOM     25  H12 UEP d   1       3.651   2.167  26.844  0.00  0.00     0.028 H 
ATOM     26  H13 UEP d   1       4.452   3.210  28.067  0.00  0.00     0.028 H 
ENDBRANCH  20  23
ENDBRANCH  11  20
ENDBRANCH   5  10
BRANCH   3  27
ATOM     27  O2' UEP d   1       7.807   6.310  27.538  0.00  0.00    -0.388 OA
ATOM     28  H7  UEP d   1       7.938   6.014  26.645  0.00  0.00     0.210 HD
ENDBRANCH   3  27
BRANCH   2  29
ATOM     29  O3' UEP d   1       7.145   6.326  30.015  0.00  0.00    -0.390 OA
ATOM     30  H5  UEP d   1       6.972   6.521  30.929  0.00  0.00     0.210 HD
ENDBRANCH   2  29
BRANCH   1  31
ATOM     31  C5' UEP d   1       4.034   8.145  29.327  0.00  0.00     0.059 C 
ATOM     32  H1  UEP d   1       4.300   8.617  28.370  0.00  0.00     0.079 H 
ATOM     33  H2  UEP d   1       2.963   7.895  29.327  0.00  0.00     0.079 H 
BRANCH  31  34
ATOM     34  O5' UEP d   1       4.324   9.057  30.421  0.00  0.00    -0.280 OA
BRANCH  34  35
ATOM     35  P   UEP d   1       3.578  10.477  30.507  0.00  0.00     0.422 P 
ATOM     36  O3P UEP d   1       4.441  11.149  31.601  0.00  0.00    -0.617 OA
ATOM     37  O1P UEP d   1       2.225  10.185  31.124  0.00  0.00    -0.617 OA
ATOM     38  O2P UEP d   1       3.568  11.157  29.138  0.00  0.00    -0.617 OA
ENDBRANCH  34  35
ENDBRANCH  31  34
ENDBRANCH   1  31
TORSDOF 8
