REMARK  6 active torsions:
REMARK  status: ('A' for Active; 'I' for Inactive)
REMARK    1  A    between atoms: P_2  and  O5'_5 
REMARK    2  A    between atoms: O5'_5  and  C5'_6 
REMARK    3  A    between atoms: C5'_6  and  C4'_7 
REMARK    4  A    between atoms: C3'_9  and  O3'_10 
REMARK    5  A    between atoms: C2'_11  and  O2'_12 
REMARK    6  A    between atoms: C1'_13  and  N1_14 
ROOT
ATOM      1  N1  CNU d   1      -4.938  -4.837  25.285  0.00  0.00    -0.289 N 
ATOM      2  C2  CNU d   1      -4.189  -5.770  24.565  0.00  0.00     0.263 A 
ATOM      3  O2  CNU d   1      -3.907  -6.951  25.119  0.00  0.00    -0.151 OA
ATOM      4  N3  CNU d   1      -3.744  -5.510  23.296  0.00  0.00    -0.285 N 
ATOM      5  C4  CNU d   1      -4.009  -4.332  22.724  0.00  0.00     0.270 A 
ATOM      6  O4  CNU d   1      -3.558  -4.115  21.582  0.00  0.00    -0.266 OA
ATOM      7  C6  CNU d   1      -5.222  -3.674  24.702  0.00  0.00     0.011 A 
ATOM      8  C5  CNU d   1      -4.762  -3.399  23.418  0.00  0.00     0.128 A 
ATOM      9  C52 CNU d   1      -5.131  -2.100  22.936  0.00  0.00     0.106 C 
ATOM     10  N53 CNU d   1      -5.421  -1.069  22.529  0.00  0.00    -0.191 NA
ATOM     11  H9  CNU d   1      -3.221  -6.202  22.798  0.00  0.00     0.172 HD
ATOM     12  H10 CNU d   1      -5.818  -2.933  25.233  0.00  0.00     0.114 H 
ENDROOT
BRANCH   1  13
ATOM     13  C1' CNU d   1      -5.410  -5.106  26.640  0.00  0.00     0.140 C 
ATOM     14  O4' CNU d   1      -4.267  -5.305  27.495  0.00  0.00    -0.353 OA
ATOM     15  C4' CNU d   1      -4.576  -6.468  28.410  0.00  0.00     0.089 C 
ATOM     16  C3' CNU d   1      -6.073  -6.810  28.300  0.00  0.00     0.091 C 
ATOM     17  H3  CNU d   1      -4.382  -6.152  29.445  0.00  0.00     0.090 H 
ATOM     18  C2' CNU d   1      -6.299  -6.320  26.875  0.00  0.00     0.105 C 
ATOM     19  H4  CNU d   1      -6.290  -7.879  28.439  0.00  0.00     0.091 H 
ATOM     20  H6  CNU d   1      -6.008  -7.119  26.177  0.00  0.00     0.093 H 
ATOM     21  H8  CNU d   1      -5.968  -4.216  26.968  0.00  0.00     0.123 H 
BRANCH  15  22
ATOM     22  C5' CNU d   1      -3.657  -7.648  28.117  0.00  0.00     0.059 C 
ATOM     23  H1  CNU d   1      -3.900  -8.099  27.143  0.00  0.00     0.079 H 
ATOM     24  H2  CNU d   1      -2.603  -7.332  28.122  0.00  0.00     0.079 H 
BRANCH  22  25
ATOM     25  O5' CNU d   1      -3.915  -8.565  29.177  0.00  0.00    -0.280 OA
BRANCH  25  26
ATOM     26  P   CNU d   1      -3.098  -9.944  29.213  0.00  0.00     0.422 P 
ATOM     27  O1P CNU d   1      -1.723  -9.613  29.705  0.00  0.00    -0.617 OA
ATOM     28  O2P CNU d   1      -3.884 -10.757  30.211  0.00  0.00    -0.617 OA
ATOM     29  O3P CNU d   1      -3.081 -10.619  27.865  0.00  0.00    -0.617 OA
ENDBRANCH  25  26
ENDBRANCH  22  25
ENDBRANCH  15  22
BRANCH  16  30
ATOM     30  O3' CNU d   1      -6.832  -6.004  29.208  0.00  0.00    -0.390 OA
ATOM     31  H5  CNU d   1      -6.539  -6.169  30.096  0.00  0.00     0.210 HD
ENDBRANCH  16  30
BRANCH  18  32
ATOM     32  O2' CNU d   1      -7.661  -5.989  26.633  0.00  0.00    -0.388 OA
ATOM     33  H7  CNU d   1      -7.758  -5.689  25.737  0.00  0.00     0.210 HD
ENDBRANCH  18  32
ENDBRANCH   1  13
TORSDOF 6
