REMARK  6 active torsions:
REMARK  status: ('A' for Active; 'I' for Inactive)
REMARK    1  A    between atoms: P_2  and  O5'_5 
REMARK    2  A    between atoms: O5'_5  and  C5'_6 
REMARK    3  A    between atoms: C5'_6  and  C4'_7 
REMARK    4  A    between atoms: C3'_8  and  O3'_9 
REMARK    5  A    between atoms: C2'_10  and  O2'_11 
REMARK    6  A    between atoms: C1'_13  and  N1_14 
ROOT
ATOM      1  N1  6CN d   1       4.987   5.804  26.084  0.00  0.00    -0.287 N 
ATOM      2  C6  6CN d   1       5.145   4.672  25.436  0.00  0.00     0.110 C 
ATOM      3  C5  6CN d   1       4.746   4.636  24.159  0.00  0.00     0.041 C 
ATOM      4  C4  6CN d   1       3.874   5.548  23.631  0.00  0.00     0.228 C 
ATOM      5  O4  6CN d   1       3.370   5.378  22.502  0.00  0.00    -0.273 OA
ATOM      6  N3  6CN d   1       3.686   6.670  24.285  0.00  0.00    -0.279 N 
ATOM      7  C2  6CN d   1       4.219   6.845  25.496  0.00  0.00     0.328 C 
ATOM      8  O2  6CN d   1       4.005   7.930  26.048  0.00  0.00    -0.247 OA
ATOM      9  C7  6CN d   1       4.550   3.660  26.251  0.00  0.00     0.085 C 
ATOM     10  N8  6CN d   1       4.071   2.852  26.917  0.00  0.00    -0.195 NA
ATOM     11  H9  6CN d   1       6.227   4.475  25.406  0.00  0.00     0.097 H 
ATOM     12  H10 6CN d   1       4.281   3.650  24.013  0.00  0.00     0.051 H 
ATOM     13  H11 6CN d   1       5.661   4.703  23.552  0.00  0.00     0.051 H 
ATOM     14  H12 6CN d   1       3.139   7.399  23.873  0.00  0.00     0.173 HD
ENDROOT
BRANCH   1  15
ATOM     15  C1' 6CN d   1       5.550   5.872  27.481  0.00  0.00     0.138 C 
ATOM     16  C2' 6CN d   1       6.637   6.930  27.720  0.00  0.00     0.105 C 
ATOM     17  C3' 6CN d   1       6.411   7.427  29.125  0.00  0.00     0.091 C 
ATOM     18  H6  6CN d   1       6.452   7.764  27.027  0.00  0.00     0.093 H 
ATOM     19  C4' 6CN d   1       4.910   7.247  29.353  0.00  0.00     0.089 C 
ATOM     20  H4  6CN d   1       6.720   8.477  29.229  0.00  0.00     0.091 H 
ATOM     21  O4' 6CN d   1       4.514   6.148  28.479  0.00  0.00    -0.354 OA
ATOM     22  H3  6CN d   1       4.703   7.001  30.405  0.00  0.00     0.090 H 
ATOM     23  H8  6CN d   1       5.988   4.885  27.691  0.00  0.00     0.122 H 
BRANCH  16  24
ATOM     24  O2' 6CN d   1       7.996   6.489  27.471  0.00  0.00    -0.388 OA
ATOM     25  H7  6CN d   1       8.071   6.190  26.573  0.00  0.00     0.210 HD
ENDBRANCH  16  24
BRANCH  17  26
ATOM     26  O3' 6CN d   1       7.099   6.595  30.093  0.00  0.00    -0.390 OA
ATOM     27  H5  6CN d   1       6.860   6.869  30.971  0.00  0.00     0.210 HD
ENDBRANCH  17  26
BRANCH  19  28
ATOM     28  C5' 6CN d   1       4.164   8.520  28.964  0.00  0.00     0.059 C 
ATOM     29  H1  6CN d   1       4.674   9.024  28.129  0.00  0.00     0.079 H 
ATOM     30  H2  6CN d   1       3.129   8.285  28.674  0.00  0.00     0.079 H 
BRANCH  28  31
ATOM     31  O5' 6CN d   1       4.180   9.371  30.164  0.00  0.00    -0.280 OA
BRANCH  31  32
ATOM     32  P   6CN d   1       3.455  10.821  30.357  0.00  0.00     0.422 P 
ATOM     33  O3P 6CN d   1       2.062  10.353  30.751  0.00  0.00    -0.617 OA
ATOM     34  O1P 6CN d   1       4.350  11.425  31.418  0.00  0.00    -0.617 OA
ATOM     35  O2P 6CN d   1       3.623  11.366  29.005  0.00  0.00    -0.617 OA
ENDBRANCH  31  32
ENDBRANCH  28  31
ENDBRANCH  19  28
ENDBRANCH   1  15
TORSDOF 6
