REMARK  6 active torsions:
REMARK  status: ('A' for Active; 'I' for Inactive)
REMARK    1  A    between atoms: N1_1  and  C1'_9 
REMARK    2  A    between atoms: C2'_10  and  O2'_11 
REMARK    3  A    between atoms: C3'_12  and  O3'_14 
REMARK    4  A    between atoms: C4'_13  and  C5'_16 
REMARK    5  A    between atoms: C5'_16  and  O5'_17 
REMARK    6  A    between atoms: O5'_17  and  P_18 
ROOT
ATOM      1  C1' U5P d   1       5.826   8.084  27.317  0.00  0.00     0.141 C 
ATOM      2  C2' U5P d   1       6.729   9.263  27.550  0.00  0.00     0.105 C 
ATOM      3  C3' U5P d   1       6.383   9.586  29.019  0.00  0.00     0.091 C 
ATOM      4  C4' U5P d   1       4.891   9.306  29.123  0.00  0.00     0.089 C 
ATOM      5  O4' U5P d   1       4.642   8.280  28.069  0.00  0.00    -0.353 OA
ATOM      6  H4  U5P d   1       6.357   7.167  27.613  0.00  0.00     0.123 H 
ATOM      7  H5  U5P d   1       6.524  10.106  26.874  0.00  0.00     0.093 H 
ATOM      8  H7  U5P d   1       6.558  10.660  29.178  0.00  0.00     0.091 H 
ATOM      9  H8  U5P d   1       4.643   8.894  30.113  0.00  0.00     0.090 H 
ENDROOT
BRANCH   1  10
ATOM     10  N1  U5P d   1       5.261   7.931  25.960  0.00  0.00    -0.280 N 
ATOM     11  C2  U5P d   1       4.415   8.873  25.494  0.00  0.00     0.330 A 
ATOM     12  N3  U5P d   1       3.821   8.707  24.291  0.00  0.00    -0.286 N 
ATOM     13  O2  U5P d   1       4.260   9.951  26.077  0.00  0.00    -0.246 OA
ATOM     14  C4  U5P d   1       3.925   7.557  23.590  0.00  0.00     0.184 A 
ATOM     15  H1  U5P d   1       3.287   9.460  23.907  0.00  0.00     0.172 HD
ATOM     16  C5  U5P d   1       4.803   6.571  24.084  0.00  0.00    -0.016 A 
ATOM     17  O4  U5P d   1       3.265   7.448  22.466  0.00  0.00    -0.172 OA
ATOM     18  C6  U5P d   1       5.468   6.771  25.301  0.00  0.00    -0.009 A 
ATOM     19  H2  U5P d   1       4.965   5.654  23.520  0.00  0.00     0.092 H 
ATOM     20  H3  U5P d   1       6.135   6.010  25.705  0.00  0.00     0.112 H 
ENDBRANCH   1  10
BRANCH   2  21
ATOM     21  O2' U5P d   1       8.064   8.827  27.422  0.00  0.00    -0.388 OA
ATOM     22  H6  U5P d   1       8.200   8.479  26.549  0.00  0.00     0.210 HD
ENDBRANCH   2  21
BRANCH   3  23
ATOM     23  O3' U5P d   1       7.154   8.869  30.084  0.00  0.00    -0.390 OA
ATOM     24  H9  U5P d   1       6.853   9.156  30.938  0.00  0.00     0.210 HD
ENDBRANCH   3  23
BRANCH   4  25
ATOM     25  C5' U5P d   1       4.079  10.620  28.911  0.00  0.00     0.059 C 
ATOM     26  H10 U5P d   1       3.008  10.398  28.797  0.00  0.00     0.079 H 
ATOM     27  H11 U5P d   1       4.439  11.158  28.021  0.00  0.00     0.079 H 
BRANCH  25  28
ATOM     28  O5' U5P d   1       4.313  11.402  30.108  0.00  0.00    -0.280 OA
BRANCH  28  29
ATOM     29  P   U5P d   1       3.548  12.828  30.229  0.00  0.00     0.422 P 
ATOM     30  O1P U5P d   1       2.164  12.554  30.795  0.00  0.00    -0.617 OA
ATOM     31  O2P U5P d   1       3.476  13.560  28.900  0.00  0.00    -0.617 OA
ATOM     32  O3P U5P d   1       4.391  13.585  31.233  0.00  0.00    -0.617 OA
ENDBRANCH  28  29
ENDBRANCH  25  28
ENDBRANCH   4  25
TORSDOF 6
