REMARK  6 active torsions:
REMARK  status: ('A' for Active; 'I' for Inactive)
REMARK    1  A    between atoms: N1_1  and  C1'_9 
REMARK    2  A    between atoms: C2'_10  and  O2'_11 
REMARK    3  A    between atoms: C3'_12  and  O3'_14 
REMARK    4  A    between atoms: C4'_13  and  C5'_16 
REMARK    5  A    between atoms: C5'_16  and  O5'_17 
REMARK    6  A    between atoms: O5'_17  and  P_18 
ROOT
ATOM      1  C1' U5P d   1      22.088  -5.467  15.194  0.00  0.00     0.141 C 
ATOM      2  C2' U5P d   1      21.875  -6.707  16.051  0.00  0.00     0.105 C 
ATOM      3  C3' U5P d   1      23.327  -7.163  16.267  0.00  0.00     0.091 C 
ATOM      4  C4' U5P d   1      24.011  -6.873  14.922  0.00  0.00     0.089 C 
ATOM      5  O4' U5P d   1      23.302  -5.712  14.444  0.00  0.00    -0.353 OA
ATOM      6  H4  U5P d   1      22.203  -4.602  15.864  0.00  0.00     0.123 H 
ATOM      7  H5  U5P d   1      21.259  -7.479  15.567  0.00  0.00     0.093 H 
ATOM      8  H7  U5P d   1      23.370  -8.236  16.505  0.00  0.00     0.091 H 
ATOM      9  H8  U5P d   1      25.075  -6.636  15.073  0.00  0.00     0.090 H 
ENDROOT
BRANCH   1  10
ATOM     10  N1  U5P d   1      21.076  -5.129  14.159  0.00  0.00    -0.280 N 
ATOM     11  C2  U5P d   1      20.783  -6.037  13.120  0.00  0.00     0.331 A 
ATOM     12  N3  U5P d   1      19.938  -5.670  12.148  0.00  0.00    -0.275 N 
ATOM     13  O2  U5P d   1      21.277  -7.172  13.103  0.00  0.00    -0.246 OA
ATOM     14  C4  U5P d   1      19.387  -4.456  12.175  0.00  0.00     0.250 A 
ATOM     15  H1  U5P d   1      19.721  -6.303  11.405  0.00  0.00     0.173 HD
ATOM     16  C5  U5P d   1      19.679  -3.544  13.161  0.00  0.00    -0.002 A 
ATOM     17  O4  U5P d   1      18.673  -4.165  11.271  0.00  0.00    -0.268 OA
ATOM     18  C6  U5P d   1      20.582  -3.929  14.117  0.00  0.00    -0.008 A 
ATOM     19  H2  U5P d   1      19.214  -2.560  13.181  0.00  0.00     0.094 H 
ATOM     20  H3  U5P d   1      20.896  -3.204  14.867  0.00  0.00     0.112 H 
ENDBRANCH   1  10
BRANCH   2  21
ATOM     21  O2' U5P d   1      21.276  -6.244  17.278  0.00  0.00    -0.388 OA
ATOM     22  H6  U5P d   1      20.451  -5.814  17.084  0.00  0.00     0.210 HD
ENDBRANCH   2  21
BRANCH   3  23
ATOM     23  O3' U5P d   1      23.949  -6.402  17.337  0.00  0.00    -0.390 OA
ATOM     24  H9  U5P d   1      24.866  -6.640  17.402  0.00  0.00     0.210 HD
ENDBRANCH   3  23
BRANCH   4  25
ATOM     25  C5' U5P d   1      23.906  -8.076  13.958  0.00  0.00     0.059 C 
ATOM     26  H10 U5P d   1      24.197  -7.801  12.934  0.00  0.00     0.079 H 
ATOM     27  H11 U5P d   1      22.891  -8.500  13.949  0.00  0.00     0.079 H 
BRANCH  25  28
ATOM     28  O5' U5P d   1      24.850  -8.978  14.550  0.00  0.00    -0.280 OA
BRANCH  28  29
ATOM     29  P   U5P d   1      25.172 -10.388  13.792  0.00  0.00     0.422 P 
ATOM     30  O1P U5P d   1      26.205  -9.985  12.750  0.00  0.00    -0.617 OA
ATOM     31  O2P U5P d   1      23.904 -10.910  13.223  0.00  0.00    -0.617 OA
ATOM     32  O3P U5P d   1      25.749 -11.228  14.898  0.00  0.00    -0.617 OA
ENDBRANCH  28  29
ENDBRANCH  25  28
ENDBRANCH   4  25
TORSDOF 6
