REMARK  10 active torsions:
REMARK  status: ('A' for Active; 'I' for Inactive)
REMARK    1  A    between atoms: C2'_2  and  CM2_3 
REMARK    2  A    between atoms: C5'_7  and  C7'_9 
REMARK    3  A    between atoms: C7'_9  and  N3_10 
REMARK    4  A    between atoms: C5_13  and  C6_16 
REMARK    5  A    between atoms: C4_14  and  CM4_15 
REMARK    6  A    between atoms: C6_16  and  C7_17 
REMARK    7  A    between atoms: C7_17  and  O7_18 
REMARK    8  A    between atoms: O7_18  and  PA_19 
REMARK    9  A    between atoms: PA_19  and  O3A_22 
REMARK   10  A    between atoms: O3A_22  and  PB_23 
ROOT
ATOM      1  N3  TPP d   1     -11.428   0.492  -7.811  0.00  0.00    -0.349 N 
ATOM      2  C2  TPP d   1     -11.154   1.083  -9.028  0.00  0.00     0.018 A 
ATOM      3  S1  TPP d   1      -9.766   0.608  -9.679  0.00  0.00    -0.087 SA
ATOM      4  C5  TPP d   1      -9.447  -0.377  -8.438  0.00  0.00     0.008 A 
ATOM      5  C4  TPP d   1     -10.435  -0.364  -7.453  0.00  0.00     0.021 A 
ATOM      6  H9  TPP d   1     -11.818   1.804  -9.502  0.00  0.00     0.123 H 
ENDROOT
BRANCH   1   7
ATOM      7  C7' TPP d   1     -12.638   0.779  -7.083  0.00  0.00     0.028 C 
ATOM      8  H7  TPP d   1     -12.440   0.812  -6.002  0.00  0.00     0.072 H 
ATOM      9  H8  TPP d   1     -13.066   1.739  -7.407  0.00  0.00     0.072 H 
BRANCH   7  10
ATOM     10  C5' TPP d   1     -13.567  -0.351  -7.415  0.00  0.00     0.023 A 
ATOM     11  C4' TPP d   1     -14.165  -0.483  -8.683  0.00  0.00     0.132 A 
ATOM     12  N3' TPP d   1     -14.994  -1.555  -8.921  0.00  0.00    -0.216 NA
ATOM     13  N4' TPP d   1     -13.983   0.411  -9.673  0.00  0.00    -0.383 N 
ATOM     14  C2' TPP d   1     -15.192  -2.460  -7.925  0.00  0.00     0.124 A 
ATOM     15  N1' TPP d   1     -14.601  -2.331  -6.686  0.00  0.00    -0.245 NA
ATOM     16  C6' TPP d   1     -13.786  -1.272  -6.425  0.00  0.00     0.015 A 
ATOM     17  H6  TPP d   1     -13.320  -1.160  -5.453  0.00  0.00     0.116 H 
ATOM     18  H4  TPP d   1     -13.368   1.224  -9.526  0.00  0.00     0.157 HD
ATOM     19  H5  TPP d   1     -14.458   0.282 -10.578  0.00  0.00     0.157 HD
BRANCH  14  20
ATOM     20  CM2 TPP d   1     -16.082  -3.609  -8.210  0.00  0.00    -0.019 C 
ATOM     21  H1  TPP d   1     -16.147  -4.252  -7.320  0.00  0.00     0.037 H 
ATOM     22  H2  TPP d   1     -15.675  -4.189  -9.052  0.00  0.00     0.037 H 
ATOM     23  H3  TPP d   1     -17.085  -3.240  -8.470  0.00  0.00     0.037 H 
ENDBRANCH  14  20
ENDBRANCH   7  10
ENDBRANCH   1   7
BRANCH   5  24
ATOM     24  CM4 TPP d   1     -10.376  -1.181  -6.203  0.00  0.00    -0.036 C 
ATOM     25  H10 TPP d   1      -9.450  -1.775  -6.197  0.00  0.00     0.035 H 
ATOM     26  H11 TPP d   1     -11.244  -1.855  -6.164  0.00  0.00     0.035 H 
ATOM     27  H12 TPP d   1     -10.390  -0.514  -5.328  0.00  0.00     0.035 H 
ENDBRANCH   5  24
BRANCH   4  28
ATOM     28  C6  TPP d   1      -8.135  -1.135  -8.513  0.00  0.00    -0.013 C 
ATOM     29  H13 TPP d   1      -7.979  -1.600  -7.528  0.00  0.00     0.044 H 
ATOM     30  H14 TPP d   1      -7.347  -0.390  -8.696  0.00  0.00     0.044 H 
BRANCH  28  31
ATOM     31  C7  TPP d   1      -7.954  -2.235  -9.555  0.00  0.00     0.036 C 
ATOM     32  H15 TPP d   1      -8.375  -1.916 -10.520  0.00  0.00     0.075 H 
ATOM     33  H16 TPP d   1      -8.454  -3.157  -9.224  0.00  0.00     0.075 H 
BRANCH  31  34
ATOM     34  O7  TPP d   1      -6.548  -2.454  -9.679  0.00  0.00    -0.289 OA
BRANCH  34  35
ATOM     35  PA  TPP d   1      -5.858  -3.427 -10.785  0.00  0.00     0.418 P 
ATOM     36  O1A TPP d   1      -6.720  -4.613 -11.081  0.00  0.00    -0.624 OA
ATOM     37  O2A TPP d   1      -4.468  -3.812 -10.372  0.00  0.00    -0.624 OA
BRANCH  35  38
ATOM     38  O3A TPP d   1      -5.956  -2.582 -12.155  0.00  0.00    -0.173 OA
BRANCH  38  39
ATOM     39  PB  TPP d   1      -4.958  -1.375 -12.535  0.00  0.00     0.431 P 
ATOM     40  O1B TPP d   1      -3.601  -1.693 -11.953  0.00  0.00    -0.616 OA
ATOM     41  O2B TPP d   1      -5.017  -1.161 -14.035  0.00  0.00    -0.616 OA
ATOM     42  O3B TPP d   1      -5.403  -0.079 -11.928  0.00  0.00    -0.616 OA
ENDBRANCH  38  39
ENDBRANCH  35  38
ENDBRANCH  34  35
ENDBRANCH  31  34
ENDBRANCH  28  31
ENDBRANCH   4  28
TORSDOF 10
