REMARK  7 active torsions:
REMARK  status: ('A' for Active; 'I' for Inactive)
REMARK    1  A    between atoms: C_1  and  C18_20 
REMARK    2  A    between atoms: C3_4  and  N_7 
REMARK    3  A    between atoms: C5_6  and  N19_21 
REMARK    4  A    between atoms: N_7  and  C6_8 
REMARK    5  A    between atoms: C8_10  and  C12_14 
REMARK    6  A    between atoms: N19_21  and  S_22 
REMARK    7  A    between atoms: S_22  and  C20_23 
ROOT
ATOM      1  C   5MS d   1      33.852  40.579   1.927  0.00  0.00    -0.035 A 
ATOM      2  C1  5MS d   1      34.231  40.094   0.679  0.00  0.00    -0.073 A 
ATOM      3  C2  5MS d   1      34.698  40.955  -0.312  0.00  0.00    -0.057 A 
ATOM      4  C3  5MS d   1      34.799  42.326  -0.082  0.00  0.00     0.035 A 
ATOM      5  C4  5MS d   1      34.411  42.813   1.174  0.00  0.00    -0.030 A 
ATOM      6  C5  5MS d   1      33.940  41.960   2.178  0.00  0.00     0.050 A 
ATOM      7  H1  5MS d   1      34.162  39.032   0.475  0.00  0.00     0.084 H 
ATOM      8  H2  5MS d   1      34.987  40.553  -1.276  0.00  0.00     0.086 H 
ATOM      9  H3  5MS d   1      34.477  43.877   1.372  0.00  0.00     0.090 H 
ENDROOT
BRANCH   4  10
ATOM     10  N   5MS d   1      35.239  43.190  -1.010  0.00  0.00    -0.341 N 
ATOM     11  H4  5MS d   1      36.242  43.113  -1.233  0.00  0.00     0.167 HD
BRANCH  10  12
ATOM     12  C6  5MS d   1      34.580  44.140  -1.695  0.00  0.00     0.131 A 
ATOM     13  C7  5MS d   1      35.241  44.752  -2.770  0.00  0.00    -0.010 A 
ATOM     14  C8  5MS d   1      34.580  45.746  -3.499  0.00  0.00     0.072 A 
ATOM     15  H5  5MS d   1      36.251  44.459  -3.033  0.00  0.00     0.093 H 
ATOM     16  N9  5MS d   1      33.309  46.102  -3.160  0.00  0.00    -0.241 NA
ATOM     17  C10 5MS d   1      32.736  45.472  -2.103  0.00  0.00     0.089 A 
ATOM     18  N11 5MS d   1      33.313  44.504  -1.357  0.00  0.00    -0.224 NA
ATOM     19  H6  5MS d   1      31.729  45.771  -1.834  0.00  0.00     0.146 H 
BRANCH  14  20
ATOM     20  C12 5MS d   1      35.180  46.471  -4.681  0.00  0.00    -0.007 A 
ATOM     21  C13 5MS d   1      34.354  47.043  -5.669  0.00  0.00    -0.071 A 
ATOM     22  C14 5MS d   1      34.877  47.722  -6.778  0.00  0.00    -0.082 A 
ATOM     23  H7  5MS d   1      33.278  46.955  -5.568  0.00  0.00     0.084 H 
ATOM     24  C15 5MS d   1      36.262  47.838  -6.930  0.00  0.00    -0.083 A 
ATOM     25  H8  5MS d   1      34.210  48.155  -7.515  0.00  0.00     0.083 H 
ATOM     26  C16 5MS d   1      37.108  47.275  -5.966  0.00  0.00    -0.082 A 
ATOM     27  H9  5MS d   1      36.677  48.358  -7.785  0.00  0.00     0.083 H 
ATOM     28  C17 5MS d   1      36.569  46.603  -4.862  0.00  0.00    -0.071 A 
ATOM     29  H10 5MS d   1      38.183  47.360  -6.075  0.00  0.00     0.083 H 
ATOM     30  H11 5MS d   1      37.240  46.173  -4.127  0.00  0.00     0.084 H 
ENDBRANCH  14  20
ENDBRANCH  10  12
ENDBRANCH   4  10
BRANCH   6  31
ATOM     31  N19 5MS d   1      33.560  42.425   3.395  0.00  0.00    -0.284 N 
ATOM     32  H15 5MS d   1      33.277  41.733   4.059  0.00  0.00     0.178 HD
BRANCH  31  33
ATOM     33  S   5MS d   1      33.505  44.050   3.935  0.00  0.00     0.227 S 
ATOM     34  O   5MS d   1      32.952  43.995   5.533  0.00  0.00    -0.206 OA
ATOM     35  O21 5MS d   1      34.933  44.886   3.552  0.00  0.00    -0.206 OA
BRANCH  33  36
ATOM     36  C20 5MS d   1      32.216  44.737   3.052  0.00  0.00     0.033 C 
ATOM     37  H16 5MS d   1      32.101  45.794   3.334  0.00  0.00     0.051 H 
ATOM     38  H17 5MS d   1      31.286  44.194   3.278  0.00  0.00     0.051 H 
ATOM     39  H18 5MS d   1      32.430  44.666   1.975  0.00  0.00     0.051 H 
ENDBRANCH  33  36
ENDBRANCH  31  33
ENDBRANCH   6  31
BRANCH   1  40
ATOM     40  C18 5MS d   1      33.350  39.581   2.943  0.00  0.00    -0.049 C 
ATOM     41  H12 5MS d   1      33.377  38.571   2.509  0.00  0.00     0.033 H 
ATOM     42  H13 5MS d   1      32.316  39.832   3.224  0.00  0.00     0.033 H 
ATOM     43  H14 5MS d   1      33.991  39.614   3.837  0.00  0.00     0.033 H 
ENDBRANCH   1  40
TORSDOF 7
