REMARK WARNING: 32 MAX_TORS EXCEEDED!!!
REMARK  48 active torsions:
REMARK  status: ('A' for Active; 'I' for Inactive)
REMARK    1  A    between atoms: N_1  and  CA_2 
REMARK    2  A    between atoms: CA_2  and  C_3 
REMARK    3  A    between atoms: CA_2  and  CB_5 
REMARK       I    between atoms: C_3  and  N_8 
REMARK    4  A    between atoms: CB_5  and  OG1_6 
REMARK    5  A    between atoms: CB_5  and  CG2_7 
REMARK    6  A    between atoms: N_8  and  CA_9 
REMARK    7  A    between atoms: CA_9  and  C_10 
REMARK    8  A    between atoms: CA_9  and  CB_12 
REMARK       I    between atoms: C_10  and  N_16 
REMARK    9  A    between atoms: CB_12  and  CG1_13 
REMARK   10  A    between atoms: CB_12  and  CG2_14 
REMARK   11  A    between atoms: CG1_13  and  CD1_15 
REMARK   12  A    between atoms: N_16  and  CA_17 
REMARK   13  A    between atoms: CA_17  and  C_18 
REMARK   14  A    between atoms: CA_17  and  CB_20 
REMARK       I    between atoms: C_18  and  N_28 
REMARK   15  A    between atoms: CB_20  and  CG_21 
REMARK   16  A    between atoms: CZ_26  and  OH_27 
REMARK   17  A    between atoms: N_28  and  CA_29 
REMARK   18  A    between atoms: CA_29  and  C_30 
REMARK   19  A    between atoms: CA_29  and  CB_32 
REMARK       I    between atoms: C_30  and  N_36 
REMARK   20  A    between atoms: CB_32  and  CG_33 
REMARK       I    between atoms: CG_33  and  ND2_35 
REMARK   21  A    between atoms: N_36  and  CA_37 
REMARK   22  A    between atoms: CA_37  and  C_38 
REMARK   23  A    between atoms: CA_37  and  CB_40 
REMARK       I    between atoms: C_38  and  N_43 
REMARK   24  A    between atoms: CB_40  and  OG1_41 
REMARK   25  A    between atoms: CB_40  and  CG2_42 
REMARK   26  A    between atoms: N_43  and  CA_44 
REMARK   27  A    between atoms: CA_44  and  C_45 
REMARK   28  A    between atoms: CA_44  and  CB_47 
REMARK       I    between atoms: C_45  and  N_50 
REMARK   29  A    between atoms: CB_47  and  OG1_48 
REMARK   30  A    between atoms: CB_47  and  CG2_49 
REMARK   31  A    between atoms: N_50  and  CA_51 
REMARK   32  A    between atoms: CA_51  and  C_52 
REMARK   33  A    between atoms: CA_51  and  CB_54 
REMARK       I    between atoms: C_52  and  N_58 
REMARK   34  A    between atoms: CB_54  and  CG_55 
REMARK   35  A    between atoms: CG_55  and  CD1_56 
REMARK   36  A    between atoms: CG_55  and  CD2_57 
REMARK   37  A    between atoms: N_58  and  CA_59 
REMARK   38  A    between atoms: CA_59  and  C_60 
REMARK   39  A    between atoms: CA_59  and  CB_62 
REMARK       I    between atoms: C_60  and  N_67 
REMARK   40  A    between atoms: CB_62  and  CG_63 
REMARK   41  A    between atoms: CG_63  and  CD_64 
REMARK   42  A    between atoms: CD_64  and  CE_65 
REMARK   43  A    between atoms: CE_65  and  NZ_66 
REMARK   44  A    between atoms: N_67  and  CA_68 
REMARK   45  A    between atoms: CA_68  and  C_69 
REMARK   46  A    between atoms: CA_68  and  CB_71 
REMARK       I    between atoms: C_69  and  N_79 
REMARK   47  A    between atoms: CB_71  and  CG_72 
REMARK   48  A    between atoms: CZ_77  and  OH_78 
ROOT
ATOM      1  CA  THR d   1     -12.234  26.622   2.087  0.00  0.00     0.113 C 
ATOM      2  H37 THR d   1     -13.069  27.324   2.229  0.00  0.00     0.091 H 
ENDROOT
BRANCH   1   3
ATOM      3  N   THR d   1     -12.560  25.935   0.842  0.00  0.00    -0.344 N 
ATOM      4  C   ASN d   1     -13.232  26.578  -0.118  0.00  0.00     0.241 C 
ATOM      5  O   ASN d   1     -13.698  27.705   0.032  0.00  0.00    -0.271 OA
ATOM      6  H36 THR d   1     -12.281  24.984   0.707  0.00  0.00     0.163 HD
BRANCH   4   7
ATOM      7  CA  ASN d   1     -13.517  25.814  -1.403  0.00  0.00     0.097 C 
ATOM      8  H31 ASN d   1     -13.571  24.743  -1.157  0.00  0.00     0.088 H 
BRANCH   7   9
ATOM      9  N   ASN d   1     -14.789  26.205  -1.995  0.00  0.00    -0.346 N 
ATOM     10  C   TYR d   1     -15.951  25.947  -1.401  0.00  0.00     0.241 C 
ATOM     11  O   TYR d   1     -16.050  25.426  -0.288  0.00  0.00    -0.271 OA
ATOM     12  H30 ASN d   1     -14.789  26.682  -2.874  0.00  0.00     0.163 HD
BRANCH  10  13
ATOM     13  CA  TYR d   1     -17.175  26.394  -2.156  0.00  0.00     0.093 C 
ATOM     14  H22 TYR d   1     -16.974  26.188  -3.218  0.00  0.00     0.088 H 
BRANCH  13  15
ATOM     15  N   TYR d   1     -18.410  25.712  -1.817  0.00  0.00    -0.346 N 
ATOM     16  C   ILE d   1     -18.863  24.677  -2.500  0.00  0.00     0.241 C 
ATOM     17  O   ILE d   1     -18.189  24.116  -3.364  0.00  0.00    -0.271 OA
ATOM     18  H21 TYR d   1     -18.939  26.039  -1.034  0.00  0.00     0.163 HD
BRANCH  16  19
ATOM     19  CA  ILE d   1     -20.258  24.147  -2.075  0.00  0.00     0.092 C 
ATOM     20  H11 ILE d   1     -20.701  24.795  -1.304  0.00  0.00     0.088 H 
BRANCH  19  21
ATOM     21  N   ILE d   1     -21.020  24.062  -3.267  0.00  0.00    -0.346 N 
ATOM     22  C   THR d   1     -22.324  23.836  -3.252  0.00  0.00     0.251 C 
ATOM     23  O   THR d   1     -23.110  24.129  -2.323  0.00  0.00    -0.271 OA
ATOM     24  H10 ILE d   1     -20.558  24.176  -4.147  0.00  0.00     0.163 HD
BRANCH  22  25
ATOM     25  CA  THR d   1     -22.790  23.443  -4.623  0.00  0.00     0.199 C 
ATOM     26  H4  THR d   1     -21.904  23.140  -5.201  0.00  0.00     0.103 H 
BRANCH  25  27
ATOM     27  N   THR d   1     -23.655  22.235  -4.469  0.00  0.00    -0.064 N 
ATOM     28  H1  THR d   1     -23.158  21.530  -3.948  0.00  0.00     0.275 HD
ATOM     29  H2  THR d   1     -23.894  21.874  -5.380  0.00  0.00     0.275 HD
ATOM     30  H3  THR d   1     -24.497  22.486  -3.975  0.00  0.00     0.275 HD
ENDBRANCH  25  27
BRANCH  25  31
ATOM     31  CB  THR d   1     -23.419  24.572  -5.385  0.00  0.00     0.068 C 
ATOM     32  H5  THR d   1     -23.583  24.251  -6.424  0.00  0.00     0.086 H 
BRANCH  31  33
ATOM     33  OG1 THR d   1     -22.513  25.688  -5.389  0.00  0.00    -0.393 OA
ATOM     34  H6  THR d   1     -22.902  26.409  -5.870  0.00  0.00     0.210 HD
ENDBRANCH  31  33
BRANCH  31  35
ATOM     35  CG2 THR d   1     -24.764  24.937  -4.784  0.00  0.00    -0.050 C 
ATOM     36  H7  THR d   1     -25.208  25.765  -5.356  0.00  0.00     0.031 H 
ATOM     37  H8  THR d   1     -24.626  25.246  -3.737  0.00  0.00     0.031 H 
ATOM     38  H9  THR d   1     -25.432  24.064  -4.824  0.00  0.00     0.031 H 
ENDBRANCH  31  35
ENDBRANCH  25  31
ENDBRANCH  22  25
ENDBRANCH  19  21
BRANCH  19  39
ATOM     39  CB  ILE d   1     -20.297  22.641  -1.668  0.00  0.00    -0.030 C 
ATOM     40  H12 ILE d   1     -21.361  22.368  -1.609  0.00  0.00     0.043 H 
BRANCH  39  41
ATOM     41  CG1 ILE d   1     -19.747  22.381  -0.336  0.00  0.00    -0.063 C 
ATOM     42  H13 ILE d   1     -20.390  21.672   0.206  0.00  0.00     0.033 H 
ATOM     43  H14 ILE d   1     -19.675  23.320   0.233  0.00  0.00     0.033 H 
BRANCH  41  44
ATOM     44  CD1 ILE d   1     -18.404  21.801  -0.530  0.00  0.00    -0.076 C 
ATOM     45  H18 ILE d   1     -17.951  21.589   0.450  0.00  0.00     0.027 H 
ATOM     46  H19 ILE d   1     -17.772  22.515  -1.079  0.00  0.00     0.027 H 
ATOM     47  H20 ILE d   1     -18.488  20.867  -1.105  0.00  0.00     0.027 H 
ENDBRANCH  41  44
ENDBRANCH  39  41
BRANCH  39  48
ATOM     48  CG2 ILE d   1     -19.670  21.728  -2.794  0.00  0.00    -0.071 C 
ATOM     49  H15 ILE d   1     -20.127  21.976  -3.764  0.00  0.00     0.028 H 
ATOM     50  H16 ILE d   1     -19.862  20.671  -2.558  0.00  0.00     0.028 H 
ATOM     51  H17 ILE d   1     -18.585  21.901  -2.845  0.00  0.00     0.028 H 
ENDBRANCH  39  48
ENDBRANCH  19  39
ENDBRANCH  16  19
ENDBRANCH  13  15
BRANCH  13  52
ATOM     52  CB  TYR d   1     -17.418  27.893  -2.009  0.00  0.00    -0.014 C 
ATOM     53  H23 TYR d   1     -16.542  28.439  -2.389  0.00  0.00     0.043 H 
ATOM     54  H24 TYR d   1     -17.566  28.131  -0.945  0.00  0.00     0.043 H 
BRANCH  52  55
ATOM     55  CG  TYR d   1     -18.644  28.319  -2.788  0.00  0.00    -0.056 A 
ATOM     56  CD1 TYR d   1     -18.525  28.734  -4.128  0.00  0.00    -0.074 A 
ATOM     57  CE1 TYR d   1     -19.667  29.063  -4.896  0.00  0.00    -0.051 A 
ATOM     58  H25 TYR d   1     -17.542  28.803  -4.579  0.00  0.00     0.084 H 
ATOM     59  CZ  TYR d   1     -20.951  28.982  -4.326  0.00  0.00     0.065 A 
ATOM     60  H27 TYR d   1     -19.552  29.378  -5.927  0.00  0.00     0.087 H 
ATOM     61  CE2 TYR d   1     -21.111  28.569  -2.989  0.00  0.00    -0.051 A 
ATOM     62  CD2 TYR d   1     -19.946  28.240  -2.220  0.00  0.00    -0.074 A 
ATOM     63  H28 TYR d   1     -22.099  28.501  -2.548  0.00  0.00     0.087 H 
ATOM     64  H26 TYR d   1     -20.059  27.926  -1.189  0.00  0.00     0.084 H 
BRANCH  59  65
ATOM     65  OH  TYR d   1     -22.020  29.343  -5.097  0.00  0.00    -0.361 OA
ATOM     66  H29 TYR d   1     -22.465  30.080  -4.695  0.00  0.00     0.217 HD
ENDBRANCH  59  65
ENDBRANCH  52  55
ENDBRANCH  13  52
ENDBRANCH  10  13
ENDBRANCH   7   9
BRANCH   7  67
ATOM     67  CB  ASN d   1     -12.379  26.020  -2.412  0.00  0.00     0.036 C 
ATOM     68  H32 ASN d   1     -11.422  25.824  -1.905  0.00  0.00     0.051 H 
ATOM     69  H33 ASN d   1     -12.403  27.064  -2.759  0.00  0.00     0.051 H 
BRANCH  67  70
ATOM     70  CG  ASN d   1     -12.483  25.092  -3.640  0.00  0.00     0.217 C 
ATOM     71  OD1 ASN d   1     -13.548  24.534  -3.951  0.00  0.00    -0.274 OA
ATOM     72  ND2 ASN d   1     -11.370  24.947  -4.353  0.00  0.00    -0.370 N 
ATOM     73  H34 ASN d   1     -11.367  24.359  -5.162  0.00  0.00     0.159 HD
ATOM     74  H35 ASN d   1     -10.535  25.426  -4.080  0.00  0.00     0.159 HD
ENDBRANCH  67  70
ENDBRANCH   7  67
ENDBRANCH   4   7
ENDBRANCH   1   3
BRANCH   1  75
ATOM     75  C   THR d   1     -11.002  27.486   2.013  0.00  0.00     0.243 C 
ATOM     76  O   THR d   1     -10.000  27.179   1.351  0.00  0.00    -0.271 OA
ATOM     77  N   THR d   1     -11.164  28.645   2.632  0.00  0.00    -0.344 N 
ATOM     78  H43 THR d   1     -12.030  28.824   3.098  0.00  0.00     0.163 HD
BRANCH  77  79
ATOM     79  CA  THR d   1     -10.135  29.663   2.660  0.00  0.00     0.113 C 
ATOM     80  H44 THR d   1      -9.236  29.236   2.192  0.00  0.00     0.091 H 
BRANCH  79  81
ATOM     81  C   THR d   1      -9.766  30.039   4.088  0.00  0.00     0.243 C 
ATOM     82  O   THR d   1      -8.763  30.703   4.298  0.00  0.00    -0.271 OA
ATOM     83  N   LEU d   1     -10.660  29.764   5.036  0.00  0.00    -0.346 N 
ATOM     84  H50 LEU d   1     -11.559  29.411   4.777  0.00  0.00     0.163 HD
BRANCH  83  85
ATOM     85  CA  LEU d   1     -10.350  29.969   6.446  0.00  0.00     0.089 C 
ATOM     86  H51 LEU d   1      -9.271  29.761   6.505  0.00  0.00     0.087 H 
BRANCH  85  87
ATOM     87  C   LEU d   1     -10.974  28.947   7.345  0.00  0.00     0.241 C 
ATOM     88  O   LEU d   1     -12.035  28.369   7.080  0.00  0.00    -0.271 OA
ATOM     89  N   LYS d   1     -10.167  28.667   8.359  0.00  0.00    -0.346 N 
ATOM     90  H61 LYS d   1      -9.337  29.219   8.438  0.00  0.00     0.163 HD
BRANCH  89  91
ATOM     91  CA  LYS d   1     -10.363  27.653   9.353  0.00  0.00     0.089 C 
ATOM     92  H62 LYS d   1     -11.385  27.257   9.263  0.00  0.00     0.087 H 
BRANCH  91  93
ATOM     93  C   LYS d   1     -10.143  28.108  10.781  0.00  0.00     0.241 C 
ATOM     94  O   LYS d   1      -9.343  28.994  11.050  0.00  0.00    -0.271 OA
ATOM     95  N   TYR d   1     -10.733  27.354  11.702  0.00  0.00    -0.346 N 
ATOM     96  H74 TYR d   1     -11.258  26.554  11.411  0.00  0.00     0.163 HD
BRANCH  95  97
ATOM     97  CA  TYR d   1     -10.639  27.657  13.119  0.00  0.00     0.093 C 
ATOM     98  H75 TYR d   1      -9.714  28.231  13.276  0.00  0.00     0.088 H 
BRANCH  97  99
ATOM     99  C   TYR d   1     -10.552  26.408  14.008  0.00  0.00     0.238 C 
ATOM    100  O   TYR d   1     -10.811  26.471  15.216  0.00  0.00    -0.271 OA
ATOM    101  N   NH2 d   1     -10.209  25.272  13.404  0.00  0.00    -0.368 N 
ATOM    102  H83 NH2 d   1     -10.136  24.427  13.933  0.00  0.00     0.159 HD
ATOM    103  H84 NH2 d   1     -10.024  25.264  12.421  0.00  0.00     0.159 HD
ENDBRANCH  97  99
BRANCH  97 104
ATOM    104  CB  TYR d   1     -11.824  28.548  13.517  0.00  0.00    -0.014 C 
ATOM    105  H76 TYR d   1     -11.725  29.502  12.979  0.00  0.00     0.043 H 
ATOM    106  H77 TYR d   1     -11.761  28.730  14.600  0.00  0.00     0.043 H 
BRANCH 104 107
ATOM    107  CG  TYR d   1     -13.199  27.986  13.219  0.00  0.00    -0.056 A 
ATOM    108  CD1 TYR d   1     -13.816  28.187  11.967  0.00  0.00    -0.074 A 
ATOM    109  CE1 TYR d   1     -15.106  27.674  11.706  0.00  0.00    -0.051 A 
ATOM    110  H78 TYR d   1     -13.294  28.742  11.196  0.00  0.00     0.084 H 
ATOM    111  CZ  TYR d   1     -15.769  26.953  12.708  0.00  0.00     0.065 A 
ATOM    112  H80 TYR d   1     -15.577  27.836  10.743  0.00  0.00     0.087 H 
ATOM    113  CE2 TYR d   1     -15.180  26.757  13.953  0.00  0.00    -0.051 A 
ATOM    114  CD2 TYR d   1     -13.905  27.267  14.200  0.00  0.00    -0.074 A 
ATOM    115  H81 TYR d   1     -15.708  26.211  14.726  0.00  0.00     0.087 H 
ATOM    116  H79 TYR d   1     -13.448  27.105  15.170  0.00  0.00     0.084 H 
BRANCH 111 117
ATOM    117  OH  TYR d   1     -16.969  26.362  12.431  0.00  0.00    -0.361 OA
ATOM    118  H82 TYR d   1     -17.622  26.668  13.050  0.00  0.00     0.217 HD
ENDBRANCH 111 117
ENDBRANCH 104 107
ENDBRANCH  97 104
ENDBRANCH  95  97
ENDBRANCH  91  93
BRANCH  91 119
ATOM    119  CB  LYS d   1      -9.347  26.569   9.054  0.00  0.00    -0.038 C 
ATOM    120  H63 LYS d   1      -9.239  25.947   9.955  0.00  0.00     0.036 H 
ATOM    121  H64 LYS d   1      -8.387  27.056   8.828  0.00  0.00     0.036 H 
BRANCH 119 122
ATOM    122  CG  LYS d   1      -9.685  25.675   7.918  0.00  0.00    -0.061 C 
ATOM    123  H65 LYS d   1      -9.364  26.125   6.967  0.00  0.00     0.033 H 
ATOM    124  H66 LYS d   1     -10.768  25.486   7.887  0.00  0.00     0.033 H 
BRANCH 122 125
ATOM    125  CD  LYS d   1      -8.945  24.410   8.170  0.00  0.00    -0.043 C 
ATOM    126  H67 LYS d   1      -9.012  24.165   9.240  0.00  0.00     0.035 H 
ATOM    127  H68 LYS d   1      -7.890  24.552   7.892  0.00  0.00     0.035 H 
BRANCH 125 128
ATOM    128  CE  LYS d   1      -9.506  23.274   7.377  0.00  0.00     0.080 C 
ATOM    129  H69 LYS d   1     -10.287  23.645   6.698  0.00  0.00     0.075 H 
ATOM    130  H70 LYS d   1      -9.937  22.524   8.056  0.00  0.00     0.075 H 
BRANCH 128 131
ATOM    131  NZ  LYS d   1      -8.403  22.662   6.587  0.00  0.00    -0.079 N 
ATOM    132  H71 LYS d   1      -8.764  21.893   6.045  0.00  0.00     0.274 HD
ATOM    133  H72 LYS d   1      -7.688  22.326   7.213  0.00  0.00     0.274 HD
ATOM    134  H73 LYS d   1      -8.009  23.353   5.968  0.00  0.00     0.274 HD
ENDBRANCH 128 131
ENDBRANCH 125 128
ENDBRANCH 122 125
ENDBRANCH 119 122
ENDBRANCH  91 119
ENDBRANCH  89  91
ENDBRANCH  85  87
BRANCH  85 135
ATOM    135  CB  LEU d   1     -10.470  31.394   6.985  0.00  0.00    -0.035 C 
ATOM    136  H52 LEU d   1     -11.439  31.521   7.491  0.00  0.00     0.037 H 
ATOM    137  H53 LEU d   1     -10.391  32.114   6.157  0.00  0.00     0.037 H 
BRANCH 135 138
ATOM    138  CG  LEU d   1      -9.317  31.624   7.993  0.00  0.00    -0.059 C 
ATOM    139  H54 LEU d   1      -9.088  30.659   8.468  0.00  0.00     0.038 H 
BRANCH 138 140
ATOM    140  CD1 LEU d   1      -8.047  32.129   7.355  0.00  0.00    -0.073 C 
ATOM    141  H55 LEU d   1      -7.278  32.268   8.129  0.00  0.00     0.028 H 
ATOM    142  H56 LEU d   1      -8.244  33.090   6.857  0.00  0.00     0.028 H 
ATOM    143  H57 LEU d   1      -7.693  31.398   6.614  0.00  0.00     0.028 H 
ENDBRANCH 138 140
BRANCH 138 144
ATOM    144  CD2 LEU d   1      -9.773  32.554   9.030  0.00  0.00    -0.073 C 
ATOM    145  H58 LEU d   1     -10.699  32.171   9.484  0.00  0.00     0.028 H 
ATOM    146  H59 LEU d   1      -9.966  33.539   8.580  0.00  0.00     0.028 H 
ATOM    147  H60 LEU d   1      -8.997  32.650   9.804  0.00  0.00     0.028 H 
ENDBRANCH 138 144
ENDBRANCH 135 138
ENDBRANCH  85 135
ENDBRANCH  83  85
ENDBRANCH  79  81
BRANCH  79 148
ATOM    148  CB  THR d   1     -10.553  30.913   1.811  0.00  0.00     0.060 C 
ATOM    149  H45 THR d   1      -9.679  31.572   1.705  0.00  0.00     0.086 H 
BRANCH 148 150
ATOM    150  OG1 THR d   1     -11.603  31.627   2.469  0.00  0.00    -0.393 OA
ATOM    151  H46 THR d   1     -12.355  31.056   2.575  0.00  0.00     0.210 HD
ENDBRANCH 148 150
BRANCH 148 152
ATOM    152  CG2 THR d   1     -11.050  30.506   0.395  0.00  0.00    -0.050 C 
ATOM    153  H47 THR d   1     -11.333  31.408  -0.168  0.00  0.00     0.031 H 
ATOM    154  H48 THR d   1     -11.923  29.844   0.489  0.00  0.00     0.031 H 
ATOM    155  H49 THR d   1     -10.245  29.979  -0.138  0.00  0.00     0.031 H 
ENDBRANCH 148 152
ENDBRANCH  79 148
ENDBRANCH  77  79
ENDBRANCH   1  75
BRANCH   1 156
ATOM    156  CB  THR d   1     -12.222  25.755   3.385  0.00  0.00     0.060 C 
ATOM    157  H38 THR d   1     -12.566  26.392   4.213  0.00  0.00     0.086 H 
BRANCH 156 158
ATOM    158  OG1 THR d   1     -10.899  25.318   3.693  0.00  0.00    -0.393 OA
ATOM    159  H39 THR d   1     -10.916  24.793   4.485  0.00  0.00     0.210 HD
ENDBRANCH 156 158
BRANCH 156 160
ATOM    160  CG2 THR d   1     -13.172  24.583   3.288  0.00  0.00    -0.050 C 
ATOM    161  H40 THR d   1     -13.132  24.001   4.220  0.00  0.00     0.031 H 
ATOM    162  H41 THR d   1     -12.879  23.942   2.443  0.00  0.00     0.031 H 
ATOM    163  H42 THR d   1     -14.196  24.953   3.130  0.00  0.00     0.031 H 
ENDBRANCH 156 160
ENDBRANCH   1 156
TORSDOF 48
