REMARK  5 active torsions:
REMARK  status: ('A' for Active; 'I' for Inactive)
REMARK    1  A    between atoms: C1_1  and  N8_13 
REMARK    2  A    between atoms: C6_5  and  C7_12 
REMARK       I    between atoms: N3_6  and  C20_8 
REMARK    3  A    between atoms: C20_8  and  C22_9 
REMARK    4  A    between atoms: N8_13  and  C9_14 
REMARK    5  A    between atoms: N8_13  and  C10_15 
ROOT
ATOM      1  C22 MI1 d   1       7.586  13.042 -17.659  0.00  0.00     0.088 C 
ATOM      2  C23 MI1 d   1       6.402  13.886 -17.886  0.00  0.00     0.068 C 
ATOM      3  N24 MI1 d   1       5.440  14.506 -18.077  0.00  0.00    -0.197 NA
ATOM      4  H9  MI1 d   1       7.428  12.410 -16.772  0.00  0.00     0.069 H 
ATOM      5  H10 MI1 d   1       7.761  12.404 -18.537  0.00  0.00     0.069 H 
ENDROOT
BRANCH   1   6
ATOM      6  C20 MI1 d   1       8.779  13.946 -17.437  0.00  0.00     0.232 C 
ATOM      7  N3  MI1 d   1       9.909  13.380 -17.070  0.00  0.00    -0.349 N 
ATOM      8  C2  MI1 d   1      11.111  14.198 -16.832  0.00  0.00     0.017 C 
ATOM      9  C4  MI1 d   1      10.043  11.904 -16.962  0.00  0.00    -0.002 C 
ATOM     10  C1  MI1 d   1      11.400  14.076 -15.349  0.00  0.00     0.031 C 
ATOM     11  H2  MI1 d   1      11.958  13.816 -17.421  0.00  0.00     0.067 H 
ATOM     12  H3  MI1 d   1      10.921  15.248 -17.101  0.00  0.00     0.067 H 
ATOM     13  C6  MI1 d   1      11.713  12.552 -15.122  0.00  0.00    -0.035 C 
ATOM     14  H1  MI1 d   1      10.525  14.392 -14.763  0.00  0.00     0.075 H 
ATOM     15  C5  MI1 d   1      10.544  11.632 -15.538  0.00  0.00    -0.045 C 
ATOM     16  H8  MI1 d   1      11.824  12.452 -14.032  0.00  0.00     0.042 H 
ATOM     17  H6  MI1 d   1      10.883  10.587 -15.479  0.00  0.00     0.036 H 
ATOM     18  H7  MI1 d   1       9.710  11.787 -14.838  0.00  0.00     0.036 H 
ATOM     19  H4  MI1 d   1       9.070  11.418 -17.125  0.00  0.00     0.064 H 
ATOM     20  H5  MI1 d   1      10.767  11.530 -17.701  0.00  0.00     0.064 H 
ATOM     21  O21 MI1 d   1       8.664  15.160 -17.564  0.00  0.00    -0.272 OA
BRANCH  10  22
ATOM     22  N8  MI1 d   1      12.608  14.879 -14.929  0.00  0.00    -0.363 N 
BRANCH  22  23
ATOM     23  C9  MI1 d   1      13.600  15.373 -15.888  0.00  0.00    -0.017 C 
ATOM     24  H14 MI1 d   1      14.384  15.928 -15.352  0.00  0.00     0.056 H 
ATOM     25  H15 MI1 d   1      13.109  16.040 -16.612  0.00  0.00     0.056 H 
ATOM     26  H16 MI1 d   1      14.051  14.522 -16.420  0.00  0.00     0.056 H 
ENDBRANCH  22  23
BRANCH  22  27
ATOM     27  C10 MI1 d   1      12.872  15.198 -13.612  0.00  0.00     0.141 A 
ATOM     28  C15 MI1 d   1      12.037  14.796 -12.553  0.00  0.00     0.057 A 
ATOM     29  C16 MI1 d   1      10.779  14.068 -12.489  0.00  0.00    -0.051 A 
ATOM     30  C14 MI1 d   1      12.415  15.138 -11.268  0.00  0.00     0.142 A 
ATOM     31  C11 MI1 d   1      10.502  14.017 -11.137  0.00  0.00    -0.020 A 
ATOM     32  H17 MI1 d   1      10.194  13.660 -13.312  0.00  0.00     0.087 H 
ATOM     33  N12 MI1 d   1      11.478  14.674 -10.421  0.00  0.00    -0.350 N 
ATOM     34  H18 MI1 d   1       9.634  13.526 -10.699  0.00  0.00     0.111 H 
ATOM     35  H19 MI1 d   1      11.489  14.792  -9.398  0.00  0.00     0.166 HD
ATOM     36  N17 MI1 d   1      13.530  15.816 -10.946  0.00  0.00    -0.223 NA
ATOM     37  C18 MI1 d   1      14.309  16.174 -12.002  0.00  0.00     0.091 A 
ATOM     38  N19 MI1 d   1      14.016  15.902 -13.308  0.00  0.00    -0.224 NA
ATOM     39  H20 MI1 d   1      15.226  16.713 -11.793  0.00  0.00     0.146 H 
ENDBRANCH  22  27
ENDBRANCH  10  22
BRANCH  13  40
ATOM     40  C7  MI1 d   1      13.007  11.955 -15.729  0.00  0.00    -0.071 C 
ATOM     41  H11 MI1 d   1      13.866  12.585 -15.454  0.00  0.00     0.028 H 
ATOM     42  H12 MI1 d   1      12.915  11.919 -16.825  0.00  0.00     0.028 H 
ATOM     43  H13 MI1 d   1      13.159  10.938 -15.340  0.00  0.00     0.028 H 
ENDBRANCH  13  40
ENDBRANCH   1   6
TORSDOF 5
