REMARK  4 active torsions:
REMARK  status: ('A' for Active; 'I' for Inactive)
REMARK    1  A    between atoms: C2_18  and  C14_20 
REMARK    2  A    between atoms: C14_20  and  C17_21 
REMARK    3  A    between atoms: C14_20  and  C16_22 
REMARK    4  A    between atoms: C14_20  and  C15_23 
ROOT
ATOM      1  O0  IZA d   1       9.071 -15.870 -10.701  0.00  0.00    -0.265 OA
ATOM      2  C11 IZA d   1      10.060 -15.263 -11.163  0.00  0.00     0.278 A 
ATOM      3  N2  IZA d   1      11.002 -14.731 -10.335  0.00  0.00    -0.226 NA
ATOM      4  C12 IZA d   1      12.087 -14.054 -10.793  0.00  0.00    -0.010 A 
ATOM      5  C13 IZA d   1      12.300 -13.874 -12.164  0.00  0.00    -0.007 A 
ATOM      6  C9  IZA d   1      11.369 -14.387 -13.081  0.00  0.00    -0.005 A 
ATOM      7  C1  IZA d   1      11.546 -14.214 -14.456  0.00  0.00     0.094 A 
ATOM      8  C10 IZA d   1      10.232 -15.072 -12.626  0.00  0.00     0.054 A 
ATOM      9  C8  IZA d   1       9.263 -15.622 -13.618  0.00  0.00    -0.004 A 
ATOM     10  C7  IZA d   1       8.120 -16.301 -13.255  0.00  0.00    -0.034 A 
ATOM     11  C6  IZA d   1       7.279 -16.734 -14.255  0.00  0.00     0.117 A 
ATOM     12  F1  IZA d   1       6.097 -17.465 -13.831  0.00  0.00    -0.206 F 
ATOM     13  C5  IZA d   1       7.574 -16.521 -15.608  0.00  0.00    -0.045 A 
ATOM     14  C4  IZA d   1       8.652 -15.862 -15.938  0.00  0.00    -0.067 A 
ATOM     15  C3  IZA d   1       9.502 -15.412 -15.066  0.00  0.00     0.004 A 
ATOM     16  C0  IZA d   1      10.656 -14.698 -15.409  0.00  0.00     0.074 A 
ATOM     17  N1  IZA d   1      11.107 -14.351 -16.650  0.00  0.00    -0.341 N 
ATOM     18  C2  IZA d   1      12.264 -13.700 -16.392  0.00  0.00     0.113 A 
ATOM     19  N0  IZA d   1      12.566 -13.572 -15.080  0.00  0.00    -0.232 NA
ATOM     20  H1  IZA d   1      12.803 -13.645 -10.082  0.00  0.00     0.108 H 
ATOM     21  H2  IZA d   1      13.270 -14.336 -12.401  0.00  0.00     0.048 H 
ATOM     22  H3  IZA d   1      12.358 -12.790 -12.339  0.00  0.00     0.048 H 
ATOM     23  H4  IZA d   1       7.890 -16.489 -12.212  0.00  0.00     0.089 H 
ATOM     24  H5  IZA d   1       6.911 -16.901 -16.377  0.00  0.00     0.088 H 
ATOM     25  H6  IZA d   1       8.846 -15.682 -16.989  0.00  0.00     0.085 H 
ATOM     26  H7  IZA d   1      10.671 -14.540 -17.564  0.00  0.00     0.167 HD
ENDROOT
BRANCH  18  27
ATOM     27  C14 IZA d   1      13.136 -13.110 -17.483  0.00  0.00     0.009 C 
BRANCH  27  28
ATOM     28  C17 IZA d   1      12.830 -13.736 -18.849  0.00  0.00    -0.063 C 
ATOM     29  H8  IZA d   1      13.480 -13.284 -19.613  0.00  0.00     0.029 H 
ATOM     30  H9  IZA d   1      11.777 -13.553 -19.109  0.00  0.00     0.029 H 
ATOM     31  H10 IZA d   1      13.014 -14.820 -18.805  0.00  0.00     0.029 H 
ENDBRANCH  27  28
BRANCH  27  32
ATOM     32  C16 IZA d   1      14.629 -13.227 -17.220  0.00  0.00    -0.063 C 
ATOM     33  H11 IZA d   1      14.865 -12.782 -16.242  0.00  0.00     0.029 H 
ATOM     34  H12 IZA d   1      15.183 -12.696 -18.008  0.00  0.00     0.029 H 
ATOM     35  H13 IZA d   1      14.919 -14.288 -17.219  0.00  0.00     0.029 H 
ENDBRANCH  27  32
BRANCH  27  36
ATOM     36  C15 IZA d   1      12.791 -11.622 -17.520  0.00  0.00    -0.063 C 
ATOM     37  H14 IZA d   1      11.714 -11.500 -17.709  0.00  0.00     0.029 H 
ATOM     38  H15 IZA d   1      13.362 -11.133 -18.323  0.00  0.00     0.029 H 
ATOM     39  H16 IZA d   1      13.048 -11.162 -16.555  0.00  0.00     0.029 H 
ENDBRANCH  27  36
ENDBRANCH  18  27
TORSDOF 4
