REMARK  12 active torsions:
REMARK  status: ('A' for Active; 'I' for Inactive)
REMARK    1  A    between atoms: CAA_1  and  CB_2 
REMARK    2  A    between atoms: CB_2  and  CA_3 
REMARK    3  A    between atoms: CA_3  and  N_4 
REMARK    4  A    between atoms: CA_3  and  C_5 
REMARK       I    between atoms: C_5  and  NAY_7 
REMARK    5  A    between atoms: NAY_7  and  CBI_8 
REMARK    6  A    between atoms: CBF_12  and  CAS_13 
REMARK    7  A    between atoms: CAS_13  and  CAQ_14 
REMARK    8  A    between atoms: CAQ_14  and  NAB_15 
REMARK    9  A    between atoms: CBJ_21  and  CBA_22 
REMARK       I    between atoms: CBA_22  and  NAX_24 
REMARK   10  A    between atoms: NAX_24  and  CBH_25 
REMARK   11  A    between atoms: CBH_25  and  CBC_26 
REMARK   12  A    between atoms: CBH_25  and  CBD_32 
ROOT
ATOM      1  CBI SMK d   1      32.727  -3.930   9.693  0.00  0.00     0.093 C 
ATOM      2  CBB SMK d   1      33.214  -5.075  10.607  0.00  0.00     0.244 C 
ATOM      3  OAF SMK d   1      32.400  -5.901  11.015  0.00  0.00    -0.271 OA
ATOM      4  NBK SMK d   1      34.489  -5.250  10.943  0.00  0.00    -0.332 N 
ATOM      5  CBF SMK d   1      33.011  -2.485  10.194  0.00  0.00    -0.024 C 
ATOM      6  CAT SMK d   1      34.529  -2.154  10.207  0.00  0.00    -0.058 C 
ATOM      7  CAU SMK d   1      35.386  -3.015  11.151  0.00  0.00    -0.045 C 
ATOM      8  CBG SMK d   1      35.633  -4.408  10.567  0.00  0.00     0.015 C 
ATOM      9  CAV SMK d   1      36.853  -5.028  11.243  0.00  0.00    -0.044 C 
ATOM     10  CAW SMK d   1      36.431  -6.450  11.589  0.00  0.00    -0.036 C 
ATOM     11  CBJ SMK d   1      34.918  -6.365  11.792  0.00  0.00     0.092 C 
ATOM     12  H11 SMK d   1      33.294  -4.032   8.756  0.00  0.00     0.088 H 
ATOM     13  H12 SMK d   1      32.562  -1.820   9.442  0.00  0.00     0.043 H 
ATOM     14  H20 SMK d   1      34.644  -1.103  10.509  0.00  0.00     0.033 H 
ATOM     15  H21 SMK d   1      34.914  -2.286   9.185  0.00  0.00     0.033 H 
ATOM     16  H22 SMK d   1      34.864  -3.118  12.114  0.00  0.00     0.036 H 
ATOM     17  H23 SMK d   1      36.354  -2.517  11.310  0.00  0.00     0.036 H 
ATOM     18  H24 SMK d   1      35.762  -4.361   9.476  0.00  0.00     0.072 H 
ATOM     19  H25 SMK d   1      37.116  -4.470  12.154  0.00  0.00     0.036 H 
ATOM     20  H26 SMK d   1      37.713  -5.036  10.557  0.00  0.00     0.036 H 
ATOM     21  H27 SMK d   1      36.928  -6.789  12.510  0.00  0.00     0.036 H 
ATOM     22  H28 SMK d   1      36.674  -7.138  10.766  0.00  0.00     0.036 H 
ATOM     23  H29 SMK d   1      34.440  -7.301  11.468  0.00  0.00     0.087 H 
ENDROOT
BRANCH  11  24
ATOM     24  CBA SMK d   1      34.545  -6.095  13.254  0.00  0.00     0.241 C 
ATOM     25  OAE SMK d   1      34.425  -4.952  13.690  0.00  0.00    -0.271 OA
ATOM     26  NAX SMK d   1      34.357  -7.186  13.983  0.00  0.00    -0.347 N 
ATOM     27  H30 SMK d   1      34.480  -8.083  13.559  0.00  0.00     0.163 HD
BRANCH  26  28
ATOM     28  CBH SMK d   1      33.973  -7.110  15.396  0.00  0.00     0.063 C 
ATOM     29  H31 SMK d   1      33.148  -6.388  15.493  0.00  0.00     0.088 H 
BRANCH  28  30
ATOM     30  CBC SMK d   1      35.134  -6.594  16.262  0.00  0.00    -0.031 A 
ATOM     31  CAM SMK d   1      34.844  -5.820  17.389  0.00  0.00    -0.074 A 
ATOM     32  CAI SMK d   1      35.871  -5.326  18.194  0.00  0.00    -0.082 A 
ATOM     33  H32 SMK d   1      33.812  -5.602  17.640  0.00  0.00     0.084 H 
ATOM     34  CAG SMK d   1      37.195  -5.606  17.862  0.00  0.00    -0.083 A 
ATOM     35  H33 SMK d   1      35.641  -4.730  19.070  0.00  0.00     0.083 H 
ATOM     36  CAJ SMK d   1      37.489  -6.375  16.734  0.00  0.00    -0.082 A 
ATOM     37  H34 SMK d   1      37.999  -5.226  18.481  0.00  0.00     0.083 H 
ATOM     38  CAN SMK d   1      36.462  -6.869  15.928  0.00  0.00    -0.074 A 
ATOM     39  H35 SMK d   1      38.521  -6.590  16.483  0.00  0.00     0.083 H 
ATOM     40  H36 SMK d   1      36.693  -7.461  15.050  0.00  0.00     0.084 H 
ENDBRANCH  28  30
BRANCH  28  41
ATOM     41  CBD SMK d   1      33.448  -8.480  15.819  0.00  0.00    -0.031 A 
ATOM     42  CAO SMK d   1      32.360  -9.004  15.120  0.00  0.00    -0.074 A 
ATOM     43  CAK SMK d   1      31.831 -10.244  15.455  0.00  0.00    -0.082 A 
ATOM     44  H37 SMK d   1      31.923  -8.437  14.306  0.00  0.00     0.084 H 
ATOM     45  CAH SMK d   1      32.408 -10.958  16.504  0.00  0.00    -0.083 A 
ATOM     46  H38 SMK d   1      30.985 -10.649  14.911  0.00  0.00     0.083 H 
ATOM     47  CAL SMK d   1      33.495 -10.439  17.208  0.00  0.00    -0.082 A 
ATOM     48  H39 SMK d   1      32.007 -11.928  16.776  0.00  0.00     0.083 H 
ATOM     49  CAP SMK d   1      34.021  -9.198  16.865  0.00  0.00    -0.074 A 
ATOM     50  H40 SMK d   1      33.931 -11.004  18.024  0.00  0.00     0.083 H 
ATOM     51  H41 SMK d   1      34.869  -8.794  17.407  0.00  0.00     0.084 H 
ENDBRANCH  28  41
ENDBRANCH  26  28
ENDBRANCH  11  24
BRANCH   1  52
ATOM     52  NAY SMK d   1      31.315  -4.129   9.353  0.00  0.00    -0.346 N 
ATOM     53  C   SMK d   1      30.947  -3.998   8.095  0.00  0.00     0.248 C 
ATOM     54  O   SMK d   1      31.732  -3.709   7.196  0.00  0.00    -0.271 OA
ATOM     55  H10 SMK d   1      30.646  -4.359  10.060  0.00  0.00     0.163 HD
BRANCH  53  56
ATOM     56  CA  SMK d   1      29.473  -4.246   7.816  0.00  0.00     0.175 C 
ATOM     57  H6  SMK d   1      28.955  -4.476   8.759  0.00  0.00     0.099 H 
BRANCH  56  58
ATOM     58  CB  SMK d   1      29.360  -5.440   6.868  0.00  0.00    -0.034 C 
ATOM     59  H4  SMK d   1      28.317  -5.537   6.532  0.00  0.00     0.036 H 
ATOM     60  H5  SMK d   1      30.012  -5.273   5.998  0.00  0.00     0.036 H 
BRANCH  58  61
ATOM     61  CAA SMK d   1      29.781  -6.724   7.570  0.00  0.00    -0.074 C 
ATOM     62  H1  SMK d   1      29.692  -7.569   6.872  0.00  0.00     0.027 H 
ATOM     63  H2  SMK d   1      29.130  -6.897   8.440  0.00  0.00     0.027 H 
ATOM     64  H3  SMK d   1      30.825  -6.633   7.905  0.00  0.00     0.027 H 
ENDBRANCH  58  61
ENDBRANCH  56  58
BRANCH  56  65
ATOM     65  N   SMK d   1      28.860  -3.055   7.210  0.00  0.00    -0.067 N 
ATOM     66  H7  SMK d   1      28.941  -2.276   7.844  0.00  0.00     0.275 HD
ATOM     67  H8  SMK d   1      27.886  -3.236   7.023  0.00  0.00     0.275 HD
ATOM     68  H9  SMK d   1      29.332  -2.836   6.347  0.00  0.00     0.275 HD
ENDBRANCH  56  65
ENDBRANCH  53  56
ENDBRANCH   1  52
BRANCH   5  69
ATOM     69  CAS SMK d   1      32.333  -2.119  11.525  0.00  0.00    -0.037 C 
ATOM     70  H13 SMK d   1      33.026  -2.332  12.352  0.00  0.00     0.036 H 
ATOM     71  H14 SMK d   1      31.423  -2.726  11.644  0.00  0.00     0.036 H 
BRANCH  69  72
ATOM     72  CAQ SMK d   1      31.952  -0.630  11.559  0.00  0.00     0.080 C 
ATOM     73  H15 SMK d   1      32.748  -0.039  11.082  0.00  0.00     0.075 H 
ATOM     74  H16 SMK d   1      31.832  -0.308  12.604  0.00  0.00     0.075 H 
BRANCH  72  75
ATOM     75  NAB SMK d   1      30.690  -0.417  10.837  0.00  0.00    -0.079 N 
ATOM     76  H17 SMK d   1      30.448   0.561  10.864  0.00  0.00     0.274 HD
ATOM     77  H18 SMK d   1      29.958  -0.956  11.273  0.00  0.00     0.274 HD
ATOM     78  H19 SMK d   1      30.798  -0.710   9.879  0.00  0.00     0.274 HD
ENDBRANCH  72  75
ENDBRANCH  69  72
ENDBRANCH   5  69
TORSDOF 12
