REMARK  19 active torsions:
REMARK  status: ('A' for Active; 'I' for Inactive)
REMARK    1  A    between atoms: CA_2  and  C_7 
REMARK       I    between atoms: C_7  and  N_9 
REMARK    2  A    between atoms: N_9  and  CA_10 
REMARK    3  A    between atoms: CA_10  and  C_11 
REMARK    4  A    between atoms: CA_10  and  CB_13 
REMARK       I    between atoms: C_11  and  N_20 
REMARK    5  A    between atoms: CB_13  and  CG_14 
REMARK    6  A    between atoms: N_20  and  CA_21 
REMARK    7  A    between atoms: CA_21  and  C_22 
REMARK    8  A    between atoms: CA_21  and  CB_24 
REMARK       I    between atoms: C_22  and  N_31 
REMARK    9  A    between atoms: CB_24  and  CG_25 
REMARK   10  A    between atoms: CG_25  and  CD_26 
REMARK   11  A    between atoms: CD_26  and  NE_27 
REMARK       I    between atoms: NE_27  and  CZ_28 
REMARK       I    between atoms: CZ_28  and  NH1_29 
REMARK   12  A    between atoms: N_31  and  CA_32 
REMARK   13  A    between atoms: CA_32  and  C_33 
REMARK   14  A    between atoms: CA_32  and  CB_35 
REMARK       I    between atoms: C_33  and  N_41 
REMARK   15  A    between atoms: CB_35  and  CG_36 
REMARK   16  A    between atoms: N_41  and  CA_42 
REMARK   17  A    between atoms: CA_42  and  C_43 
REMARK   18  A    between atoms: CA_42  and  CB_45 
REMARK   19  A    between atoms: CB_45  and  CG_46 
ROOT
ATOM      1  CA  ARG d   1      19.097 -13.921 -19.618  0.00  0.00     0.089 C 
ATOM      2  H17 ARG d   1      19.934 -13.781 -20.318  0.00  0.00     0.087 H 
ENDROOT
BRANCH   1   3
ATOM      3  N   ARG d   1      19.020 -12.721 -18.786  0.00  0.00    -0.346 N 
ATOM      4  C   PHE d   1      19.079 -11.502 -19.316  0.00  0.00     0.241 C 
ATOM      5  O   PHE d   1      19.026 -11.288 -20.539  0.00  0.00    -0.271 OA
ATOM      6  H16 ARG d   1      18.921 -12.819 -17.796  0.00  0.00     0.163 HD
BRANCH   4   7
ATOM      7  CA  PHE d   1      19.220 -10.336 -18.339  0.00  0.00     0.093 C 
ATOM      8  H8  PHE d   1      19.825 -10.635 -17.471  0.00  0.00     0.088 H 
BRANCH   7   9
ATOM      9  N   PHE d   1      19.907  -9.285 -19.089  0.00  0.00    -0.346 N 
ATOM     10  C   PCA d   1      21.222  -9.344 -19.311  0.00  0.00     0.241 C 
ATOM     11  O   PCA d   1      22.008  -9.970 -18.584  0.00  0.00    -0.271 OA
ATOM     12  H7  PHE d   1      19.383  -8.509 -19.441  0.00  0.00     0.163 HD
BRANCH  10  13
ATOM     13  CA  PCA d   1      21.743  -8.579 -20.541  0.00  0.00     0.089 C 
ATOM     14  N   PCA d   1      21.006  -7.364 -20.918  0.00  0.00    -0.348 N 
ATOM     15  CD  PCA d   1      21.953  -6.834 -21.904  0.00  0.00     0.218 C 
ATOM     16  H1  PCA d   1      20.128  -7.008 -20.599  0.00  0.00     0.163 HD
ATOM     17  CG  PCA d   1      23.386  -7.251 -21.650  0.00  0.00     0.011 C 
ATOM     18  OE  PCA d   1      21.637  -6.120 -22.855  0.00  0.00    -0.274 OA
ATOM     19  CB  PCA d   1      23.241  -8.252 -20.514  0.00  0.00    -0.030 C 
ATOM     20  H5  PCA d   1      23.827  -7.722 -22.541  0.00  0.00     0.047 H 
ATOM     21  H6  PCA d   1      24.002  -6.392 -21.347  0.00  0.00     0.047 H 
ATOM     22  H3  PCA d   1      23.847  -9.152 -20.698  0.00  0.00     0.037 H 
ATOM     23  H4  PCA d   1      23.532  -7.805 -19.552  0.00  0.00     0.037 H 
ATOM     24  H2  PCA d   1      21.603  -9.280 -21.377  0.00  0.00     0.087 H 
ENDBRANCH  10  13
ENDBRANCH   7   9
BRANCH   7  25
ATOM     25  CB  PHE d   1      17.844  -9.885 -17.855  0.00  0.00    -0.014 C 
ATOM     26  H9  PHE d   1      17.195  -9.752 -18.733  0.00  0.00     0.043 H 
ATOM     27  H10 PHE d   1      17.959  -8.923 -17.334  0.00  0.00     0.043 H 
BRANCH  25  28
ATOM     28  CG  PHE d   1      17.172 -10.861 -16.910  0.00  0.00    -0.056 A 
ATOM     29  CD1 PHE d   1      17.643 -11.034 -15.605  0.00  0.00    -0.077 A 
ATOM     30  CE1 PHE d   1      17.019 -11.919 -14.727  0.00  0.00    -0.082 A 
ATOM     31  H11 PHE d   1      18.507 -10.471 -15.271  0.00  0.00     0.084 H 
ATOM     32  CZ  PHE d   1      15.905 -12.648 -15.152  0.00  0.00    -0.083 A 
ATOM     33  H13 PHE d   1      17.396 -12.041 -13.718  0.00  0.00     0.083 H 
ATOM     34  CE2 PHE d   1      15.423 -12.485 -16.453  0.00  0.00    -0.082 A 
ATOM     35  H15 PHE d   1      15.416 -13.338 -14.474  0.00  0.00     0.083 H 
ATOM     36  CD2 PHE d   1      16.058 -11.596 -17.322  0.00  0.00    -0.077 A 
ATOM     37  H14 PHE d   1      14.558 -13.047 -16.787  0.00  0.00     0.083 H 
ATOM     38  H12 PHE d   1      15.681 -11.474 -18.331  0.00  0.00     0.084 H 
ENDBRANCH  25  28
ENDBRANCH   7  25
ENDBRANCH   4   7
ENDBRANCH   1   3
BRANCH   1  39
ATOM     39  C   ARG d   1      17.841 -14.162 -20.454  0.00  0.00     0.241 C 
ATOM     40  O   ARG d   1      16.728 -14.261 -19.919  0.00  0.00    -0.271 OA
ATOM     41  N   HIS d   1      18.046 -14.249 -21.768  0.00  0.00    -0.346 N 
ATOM     42  H29 HIS d   1      18.977 -14.116 -22.107  0.00  0.00     0.163 HD
BRANCH  41  43
ATOM     43  CA  HIS d   1      16.995 -14.526 -22.744  0.00  0.00     0.094 C 
ATOM     44  H30 HIS d   1      16.276 -15.244 -22.324  0.00  0.00     0.088 H 
BRANCH  43  45
ATOM     45  C   HIS d   1      17.656 -15.100 -23.990  0.00  0.00     0.241 C 
ATOM     46  O   HIS d   1      18.537 -14.460 -24.568  0.00  0.00    -0.271 OA
ATOM     47  N   ASP d   1      17.245 -16.300 -24.399  0.00  0.00    -0.344 N 
ATOM     48  H36 ASP d   1      16.609 -16.821 -23.829  0.00  0.00     0.163 HD
BRANCH  47  49
ATOM     49  CA  ASP d   1      17.706 -16.870 -25.665  0.00  0.00     0.105 C 
ATOM     50  H37 ASP d   1      18.785 -16.675 -25.756  0.00  0.00     0.090 H 
BRANCH  49  51
ATOM     51  C   ASP d   1      16.994 -16.198 -26.845  0.00  0.00     0.197 C 
ATOM     52  O   ASP d   1      15.763 -16.373 -27.050  0.00  0.00    -0.646 OA
ATOM     53  O38 ASP d   1      17.652 -15.457 -27.623  0.00  0.00    -0.646 OA
ENDBRANCH  49  51
BRANCH  49  54
ATOM     54  CB  ASP d   1      17.489 -18.393 -25.704  0.00  0.00     0.044 C 
ATOM     55  H38 ASP d   1      17.816 -18.768 -26.685  0.00  0.00     0.053 H 
ATOM     56  H39 ASP d   1      16.416 -18.597 -25.573  0.00  0.00     0.053 H 
BRANCH  54  57
ATOM     57  CG  ASP d   1      18.263 -19.141 -24.614  0.00  0.00     0.175 C 
ATOM     58  OD1 ASP d   1      19.111 -18.529 -23.920  0.00  0.00    -0.648 OA
ATOM     59  OD2 ASP d   1      18.012 -20.357 -24.450  0.00  0.00    -0.648 OA
ENDBRANCH  54  57
ENDBRANCH  49  54
ENDBRANCH  47  49
ENDBRANCH  43  45
BRANCH  43  60
ATOM     60  CB  HIS d   1      16.268 -13.239 -23.152  0.00  0.00     0.004 C 
ATOM     61  H31 HIS d   1      15.496 -13.500 -23.891  0.00  0.00     0.046 H 
ATOM     62  H32 HIS d   1      17.002 -12.561 -23.612  0.00  0.00     0.046 H 
BRANCH  60  63
ATOM     63  CG  HIS d   1      15.607 -12.515 -22.021  0.00  0.00     0.053 A 
ATOM     64  ND1 HIS d   1      14.447 -12.963 -21.424  0.00  0.00    -0.247 NA
ATOM     65  CE1 HIS d   1      14.091 -12.124 -20.466  0.00  0.00     0.064 A 
ATOM     66  NE2 HIS d   1      14.975 -11.143 -20.428  0.00  0.00    -0.359 N 
ATOM     67  H34 HIS d   1      13.220 -12.224 -19.820  0.00  0.00     0.143 H 
ATOM     68  CD2 HIS d   1      15.932 -11.362 -21.391  0.00  0.00     0.002 A 
ATOM     69  H35 HIS d   1      14.951 -10.342 -19.781  0.00  0.00     0.166 HD
ATOM     70  H33 HIS d   1      16.790 -10.727 -21.606  0.00  0.00     0.114 H 
ENDBRANCH  60  63
ENDBRANCH  43  60
ENDBRANCH  41  43
ENDBRANCH   1  39
BRANCH   1  71
ATOM     71  CB  ARG d   1      19.404 -15.139 -18.760  0.00  0.00    -0.036 C 
ATOM     72  H18 ARG d   1      18.479 -15.445 -18.250  0.00  0.00     0.036 H 
ATOM     73  H19 ARG d   1      20.158 -14.854 -18.012  0.00  0.00     0.036 H 
BRANCH  71  74
ATOM     74  CG  ARG d   1      19.929 -16.317 -19.538  0.00  0.00    -0.048 C 
ATOM     75  H20 ARG d   1      20.613 -15.964 -20.324  0.00  0.00     0.035 H 
ATOM     76  H21 ARG d   1      19.089 -16.858 -19.998  0.00  0.00     0.035 H 
BRANCH  74  77
ATOM     77  CD  ARG d   1      20.666 -17.233 -18.606  0.00  0.00     0.009 C 
ATOM     78  H22 ARG d   1      20.031 -17.437 -17.731  0.00  0.00     0.064 H 
ATOM     79  H23 ARG d   1      21.593 -16.739 -18.279  0.00  0.00     0.064 H 
BRANCH  77  80
ATOM     80  NE  ARG d   1      21.005 -18.493 -19.246  0.00  0.00    -0.227 N 
ATOM     81  CZ  ARG d   1      21.322 -19.602 -18.588  0.00  0.00     0.665 C 
ATOM     82  NH1 ARG d   1      21.337 -19.610 -17.258  0.00  0.00    -0.235 N 
ATOM     83  NH2 ARG d   1      21.617 -20.706 -19.264  0.00  0.00    -0.235 N 
ATOM     84  H25 ARG d   1      21.583 -20.472 -16.751  0.00  0.00     0.174 HD
ATOM     85  H26 ARG d   1      21.102 -18.754 -16.735  0.00  0.00     0.174 HD
ATOM     86  H27 ARG d   1      21.605 -20.698 -20.294  0.00  0.00     0.174 HD
ATOM     87  H28 ARG d   1      21.858 -21.570 -18.759  0.00  0.00     0.174 HD
ATOM     88  H24 ARG d   1      20.999 -18.528 -20.275  0.00  0.00     0.177 HD
ENDBRANCH  77  80
ENDBRANCH  74  77
ENDBRANCH  71  74
ENDBRANCH   1  71
TORSDOF 19
