REMARK  27 active torsions:
REMARK  status: ('A' for Active; 'I' for Inactive)
REMARK    1  A    between atoms: N_1  and  CA_2 
REMARK    2  A    between atoms: CA_2  and  C_3 
REMARK    3  A    between atoms: CA_2  and  CB_5 
REMARK       I    between atoms: C_3  and  N_10 
REMARK    4  A    between atoms: CB_5  and  CG_6 
REMARK    5  A    between atoms: CG_6  and  CD_7 
REMARK    6  A    between atoms: N_10  and  CA_11 
REMARK    7  A    between atoms: CA_11  and  C_12 
REMARK    8  A    between atoms: CA_11  and  CB_14 
REMARK       I    between atoms: C_12  and  N_21 
REMARK    9  A    between atoms: CB_14  and  CG_15 
REMARK   10  A    between atoms: N_21  and  CA_22 
REMARK   11  A    between atoms: CA_22  and  C_23 
REMARK   12  A    between atoms: CA_22  and  CB_25 
REMARK       I    between atoms: C_23  and  N_32 
REMARK   13  A    between atoms: CB_25  and  CG_26 
REMARK   14  A    between atoms: CG_26  and  CD_27 
REMARK   15  A    between atoms: CD_27  and  NE_28 
REMARK       I    between atoms: NE_28  and  CZ_29 
REMARK       I    between atoms: CZ_29  and  NH1_30 
REMARK   16  A    between atoms: N_32  and  CA_33 
REMARK   17  A    between atoms: CA_33  and  C_34 
REMARK   18  A    between atoms: CA_33  and  CB_36 
REMARK       I    between atoms: C_34  and  N_42 
REMARK   19  A    between atoms: CB_36  and  CG_37 
REMARK   20  A    between atoms: N_42  and  CA_43 
REMARK   21  A    between atoms: CA_43  and  C_44 
REMARK   22  A    between atoms: CA_43  and  CB_46 
REMARK       I    between atoms: C_44  and  N_51 
REMARK   23  A    between atoms: CB_46  and  CG_47 
REMARK   24  A    between atoms: CG_47  and  CD_48 
REMARK   25  A    between atoms: N_51  and  CA_52 
REMARK   26  A    between atoms: CA_52  and  C_53 
REMARK   27  A    between atoms: CA_52  and  CB_55 
ROOT
ATOM      1  CA  ARG d   1      28.041 -25.290 -34.054  0.00  0.00     0.089 C 
ATOM      2  H19 ARG d   1      28.853 -25.164 -34.785  0.00  0.00     0.087 H 
ENDROOT
BRANCH   1   3
ATOM      3  N   ARG d   1      28.003 -24.070 -33.231  0.00  0.00    -0.346 N 
ATOM      4  C   PHE d   1      27.899 -22.849 -33.755  0.00  0.00     0.241 C 
ATOM      5  O   PHE d   1      27.744 -22.644 -34.964  0.00  0.00    -0.271 OA
ATOM      6  H18 ARG d   1      28.058 -24.161 -32.237  0.00  0.00     0.163 HD
BRANCH   4   7
ATOM      7  CA  PHE d   1      27.978 -21.670 -32.776  0.00  0.00     0.093 C 
ATOM      8  H10 PHE d   1      28.551 -21.977 -31.888  0.00  0.00     0.088 H 
BRANCH   7   9
ATOM      9  N   PHE d   1      28.664 -20.540 -33.427  0.00  0.00    -0.346 N 
ATOM     10  C   GLU d   1      29.984 -20.462 -33.608  0.00  0.00     0.249 C 
ATOM     11  O   GLU d   1      30.798 -21.217 -33.057  0.00  0.00    -0.271 OA
ATOM     12  H9  PHE d   1      28.103 -19.780 -33.755  0.00  0.00     0.163 HD
BRANCH  10  13
ATOM     13  CA  GLU d   1      30.453 -19.338 -34.549  0.00  0.00     0.176 C 
ATOM     14  H4  GLU d   1      29.805 -18.466 -34.374  0.00  0.00     0.099 H 
BRANCH  13  15
ATOM     15  N   GLU d   1      31.862 -18.908 -34.303  0.00  0.00    -0.066 N 
ATOM     16  H1  GLU d   1      32.107 -18.173 -34.949  0.00  0.00     0.275 HD
ATOM     17  H2  GLU d   1      32.481 -19.692 -34.436  0.00  0.00     0.275 HD
ATOM     18  H3  GLU d   1      31.949 -18.568 -33.358  0.00  0.00     0.275 HD
ENDBRANCH  13  15
BRANCH  13  19
ATOM     19  CB  GLU d   1      30.284 -19.777 -36.009  0.00  0.00    -0.021 C 
ATOM     20  H5  GLU d   1      29.230 -20.051 -36.163  0.00  0.00     0.037 H 
ATOM     21  H6  GLU d   1      30.921 -20.658 -36.177  0.00  0.00     0.037 H 
BRANCH  19  22
ATOM     22  CG  GLU d   1      30.654 -18.724 -37.042  0.00  0.00     0.018 C 
ATOM     23  H7  GLU d   1      30.740 -19.212 -38.024  0.00  0.00     0.049 H 
ATOM     24  H8  GLU d   1      31.624 -18.286 -36.764  0.00  0.00     0.049 H 
BRANCH  22  25
ATOM     25  CD  GLU d   1      29.627 -17.603 -37.145  0.00  0.00     0.172 C 
ATOM     26  OE1 GLU d   1      28.742 -17.681 -38.029  0.00  0.00    -0.648 OA
ATOM     27  OE2 GLU d   1      29.701 -16.647 -36.339  0.00  0.00    -0.648 OA
ENDBRANCH  22  25
ENDBRANCH  19  22
ENDBRANCH  13  19
ENDBRANCH  10  13
ENDBRANCH   7   9
BRANCH   7  28
ATOM     28  CB  PHE d   1      26.559 -21.247 -32.337  0.00  0.00    -0.014 C 
ATOM     29  H11 PHE d   1      25.961 -21.064 -33.242  0.00  0.00     0.043 H 
ATOM     30  H12 PHE d   1      26.643 -20.316 -31.758  0.00  0.00     0.043 H 
BRANCH  28  31
ATOM     31  CG  PHE d   1      25.825 -22.274 -31.482  0.00  0.00    -0.056 A 
ATOM     32  CD1 PHE d   1      26.220 -22.528 -30.160  0.00  0.00    -0.077 A 
ATOM     33  CE1 PHE d   1      25.535 -23.462 -29.373  0.00  0.00    -0.082 A 
ATOM     34  H13 PHE d   1      27.066 -21.994 -29.742  0.00  0.00     0.084 H 
ATOM     35  CZ  PHE d   1      24.430 -24.143 -29.899  0.00  0.00    -0.083 A 
ATOM     36  H15 PHE d   1      25.860 -23.658 -28.358  0.00  0.00     0.083 H 
ATOM     37  CE2 PHE d   1      24.014 -23.887 -31.202  0.00  0.00    -0.082 A 
ATOM     38  H17 PHE d   1      23.900 -24.868 -29.292  0.00  0.00     0.083 H 
ATOM     39  CD2 PHE d   1      24.710 -22.952 -31.985  0.00  0.00    -0.077 A 
ATOM     40  H16 PHE d   1      23.156 -24.407 -31.611  0.00  0.00     0.083 H 
ATOM     41  H14 PHE d   1      24.377 -22.752 -32.997  0.00  0.00     0.084 H 
ENDBRANCH  28  31
ENDBRANCH   7  28
ENDBRANCH   4   7
ENDBRANCH   1   3
BRANCH   1  42
ATOM     42  C   ARG d   1      26.740 -25.538 -34.863  0.00  0.00     0.241 C 
ATOM     43  O   ARG d   1      25.639 -25.587 -34.296  0.00  0.00    -0.271 OA
ATOM     44  N   HIS d   1      26.892 -25.677 -36.183  0.00  0.00    -0.346 N 
ATOM     45  H31 HIS d   1      27.814 -25.585 -36.559  0.00  0.00     0.163 HD
BRANCH  44  46
ATOM     46  CA  HIS d   1      25.795 -25.956 -37.117  0.00  0.00     0.094 C 
ATOM     47  H32 HIS d   1      25.036 -26.573 -36.614  0.00  0.00     0.088 H 
BRANCH  46  48
ATOM     48  C   HIS d   1      26.355 -26.699 -38.323  0.00  0.00     0.241 C 
ATOM     49  O   HIS d   1      27.519 -26.536 -38.674  0.00  0.00    -0.271 OA
ATOM     50  N   GLU d   1      25.531 -27.507 -38.972  0.00  0.00    -0.346 N 
ATOM     51  H38 GLU d   1      24.596 -27.637 -38.643  0.00  0.00     0.163 HD
BRANCH  50  52
ATOM     52  CA  GLU d   1      25.985 -28.203 -40.160  0.00  0.00     0.090 C 
ATOM     53  H39 GLU d   1      26.946 -27.759 -40.461  0.00  0.00     0.087 H 
BRANCH  52  54
ATOM     54  C   GLU d   1      25.015 -28.039 -41.314  0.00  0.00     0.241 C 
ATOM     55  O   GLU d   1      23.826 -28.349 -41.195  0.00  0.00    -0.271 OA
ATOM     56  N   ALA d   1      25.539 -27.531 -42.423  0.00  0.00    -0.345 N 
ATOM     57  H44 ALA d   1      26.443 -27.107 -42.377  0.00  0.00     0.163 HD
BRANCH  56  58
ATOM     58  CA  ALA d   1      24.847 -27.568 -43.704  0.00  0.00     0.093 C 
ATOM     59  H45 ALA d   1      23.944 -28.189 -43.611  0.00  0.00     0.089 H 
BRANCH  58  60
ATOM     60  C   ALA d   1      25.786 -28.195 -44.713  0.00  0.00     0.196 C 
ATOM     61  O   ALA d   1      26.959 -27.821 -44.785  0.00  0.00    -0.646 OA
ATOM     62  OXT ALA d   1      25.399 -29.096 -45.457  0.00  0.00    -0.646 OA
ENDBRANCH  58  60
BRANCH  58  63
ATOM     63  CB  ALA d   1      24.432 -26.170 -44.151  0.00  0.00    -0.048 C 
ATOM     64  H46 ALA d   1      23.913 -26.233 -45.119  0.00  0.00     0.030 H 
ATOM     65  H47 ALA d   1      25.326 -25.538 -44.255  0.00  0.00     0.030 H 
ATOM     66  H48 ALA d   1      23.757 -25.731 -43.402  0.00  0.00     0.030 H 
ENDBRANCH  58  63
ENDBRANCH  56  58
ENDBRANCH  52  54
BRANCH  52  67
ATOM     67  CB  GLU d   1      26.218 -29.688 -39.875  0.00  0.00    -0.029 C 
ATOM     68  H40 GLU d   1      26.509 -30.176 -40.817  0.00  0.00     0.037 H 
ATOM     69  H41 GLU d   1      25.273 -30.120 -39.515  0.00  0.00     0.037 H 
BRANCH  67  70
ATOM     70  CG  GLU d   1      27.294 -29.976 -38.841  0.00  0.00     0.018 C 
ATOM     71  H42 GLU d   1      26.995 -29.525 -37.883  0.00  0.00     0.049 H 
ATOM     72  H43 GLU d   1      28.240 -29.527 -39.179  0.00  0.00     0.049 H 
BRANCH  70  73
ATOM     73  CD  GLU d   1      27.504 -31.460 -38.637  0.00  0.00     0.172 C 
ATOM     74  OE1 GLU d   1      26.750 -32.261 -39.239  0.00  0.00    -0.648 OA
ATOM     75  OE2 GLU d   1      28.427 -31.834 -37.877  0.00  0.00    -0.648 OA
ENDBRANCH  70  73
ENDBRANCH  67  70
ENDBRANCH  52  67
ENDBRANCH  50  52
ENDBRANCH  46  48
BRANCH  46  76
ATOM     76  CB  HIS d   1      25.151 -24.660 -37.620  0.00  0.00     0.004 C 
ATOM     77  H33 HIS d   1      24.454 -24.915 -38.432  0.00  0.00     0.046 H 
ATOM     78  H34 HIS d   1      25.947 -24.010 -38.011  0.00  0.00     0.046 H 
BRANCH  76  79
ATOM     79  CG  HIS d   1      24.395 -23.898 -36.575  0.00  0.00     0.053 A 
ATOM     80  ND1 HIS d   1      23.087 -24.180 -36.248  0.00  0.00    -0.247 NA
ATOM     81  CE1 HIS d   1      22.680 -23.349 -35.306  0.00  0.00     0.064 A 
ATOM     82  NE2 HIS d   1      23.672 -22.530 -35.020  0.00  0.00    -0.359 N 
ATOM     83  H36 HIS d   1      21.694 -23.342 -34.844  0.00  0.00     0.143 H 
ATOM     84  CD2 HIS d   1      24.756 -22.849 -35.801  0.00  0.00     0.002 A 
ATOM     85  H37 HIS d   1      23.640 -21.772 -34.323  0.00  0.00     0.166 HD
ATOM     86  H35 HIS d   1      25.724 -22.351 -35.798  0.00  0.00     0.114 H 
ENDBRANCH  76  79
ENDBRANCH  46  76
ENDBRANCH  44  46
ENDBRANCH   1  42
BRANCH   1  87
ATOM     87  CB  ARG d   1      28.390 -26.499 -33.172  0.00  0.00    -0.036 C 
ATOM     88  H20 ARG d   1      27.500 -26.755 -32.579  0.00  0.00     0.036 H 
ATOM     89  H21 ARG d   1      29.207 -26.203 -32.498  0.00  0.00     0.036 H 
BRANCH  87  90
ATOM     90  CG  ARG d   1      28.827 -27.740 -33.916  0.00  0.00    -0.048 C 
ATOM     91  H22 ARG d   1      29.580 -27.465 -34.669  0.00  0.00     0.035 H 
ATOM     92  H23 ARG d   1      27.956 -28.189 -34.415  0.00  0.00     0.035 H 
BRANCH  90  93
ATOM     93  CD  ARG d   1      29.428 -28.750 -32.955  0.00  0.00     0.009 C 
ATOM     94  H24 ARG d   1      28.696 -28.957 -32.160  0.00  0.00     0.064 H 
ATOM     95  H25 ARG d   1      30.337 -28.316 -32.513  0.00  0.00     0.064 H 
BRANCH  93  96
ATOM     96  NE  ARG d   1      29.782 -30.014 -33.604  0.00  0.00    -0.227 N 
ATOM     97  CZ  ARG d   1      30.034 -31.145 -32.951  0.00  0.00     0.665 C 
ATOM     98  NH1 ARG d   1      29.962 -31.173 -31.627  0.00  0.00    -0.235 N 
ATOM     99  NH2 ARG d   1      30.346 -32.251 -33.616  0.00  0.00    -0.235 N 
ATOM    100  H27 ARG d   1      30.157 -32.048 -31.119  0.00  0.00     0.174 HD
ATOM    101  H28 ARG d   1      29.711 -30.320 -31.107  0.00  0.00     0.174 HD
ATOM    102  H29 ARG d   1      30.403 -32.235 -34.644  0.00  0.00     0.174 HD
ATOM    103  H30 ARG d   1      30.531 -33.125 -33.104  0.00  0.00     0.174 HD
ATOM    104  H26 ARG d   1      29.840 -30.028 -34.632  0.00  0.00     0.177 HD
ENDBRANCH  93  96
ENDBRANCH  90  93
ENDBRANCH  87  90
ENDBRANCH   1  87
TORSDOF 27
