REMARK  6 active torsions:
REMARK  status: ('A' for Active; 'I' for Inactive)
REMARK    1  A    between atoms: C17_9  and  N32_32 
REMARK    2  A    between atoms: C19_24  and  C20_10 
REMARK    3  A    between atoms: O34_34  and  C26_14 
REMARK    4  A    between atoms: C16_22  and  N31_31 
REMARK    5  A    between atoms: C18_23  and  O34_34 
REMARK    6  A    between atoms: N33_33  and  C25_26 
ROOT
ATOM      1  C5  EZR d   1       4.611  28.165   5.908  0.00  0.00    -0.053 A 
ATOM      2  C6  EZR d   1       4.396  26.167   7.238  0.00  0.00    -0.060 A 
ATOM      3  C13 EZR d   1       2.985  27.964   7.716  0.00  0.00     0.084 A 
ATOM      4  C20 EZR d   1       2.020  29.872   7.657  0.00  0.00     0.158 A 
ATOM      5  C1  EZR d   1       4.991  26.880   6.223  0.00  0.00    -0.079 A 
ATOM      6  C14 EZR d   1       3.595  28.662   6.693  0.00  0.00     0.087 A 
ATOM      7  C16 EZR d   1       3.383  26.672   8.028  0.00  0.00     0.040 A 
ATOM      8  N27 EZR d   1       2.012  28.731   8.307  0.00  0.00    -0.336 N 
ATOM      9  N29 EZR d   1       2.966  29.870   6.676  0.00  0.00    -0.227 NA
ATOM     10  H2  EZR d   1       5.072  28.736   5.111  0.00  0.00     0.087 H 
ATOM     11  H3  EZR d   1       4.740  25.157   7.427  0.00  0.00     0.086 H 
ATOM     12  H15 EZR d   1       5.786  26.414   5.652  0.00  0.00     0.083 H 
ATOM     13  H24 EZR d   1       1.403  28.467   9.095  0.00  0.00     0.168 HD
ENDROOT
BRANCH   4  14
ATOM     14  C19 EZR d   1       1.154  31.027   7.952  0.00  0.00     0.108 A 
ATOM     15  C10 EZR d   1       0.126  31.107   8.929  0.00  0.00     0.026 A 
ATOM     16  C15 EZR d   1      -0.330  32.403   8.828  0.00  0.00     0.090 A 
ATOM     17  C2  EZR d   1      -0.456  30.259   9.857  0.00  0.00    -0.068 A 
ATOM     18  C8  EZR d   1      -1.316  32.949   9.609  0.00  0.00    -0.042 A 
ATOM     19  N30 EZR d   1       0.423  32.986   7.855  0.00  0.00    -0.174 NA
ATOM     20  C11 EZR d   1      -1.888  32.106  10.532  0.00  0.00    -0.021 A 
ATOM     21  H5  EZR d   1      -1.626  33.983   9.505  0.00  0.00     0.088 H 
ATOM     22  C3  EZR d   1      -1.465  30.797  10.632  0.00  0.00    -0.071 A 
ATOM     23  C12 EZR d   1      -2.862  32.675  11.436  0.00  0.00     0.008 A 
ATOM     24  H17 EZR d   1      -1.951  30.155  11.358  0.00  0.00     0.084 H 
ATOM     25  C4  EZR d   1      -2.579  33.925  11.954  0.00  0.00    -0.067 A 
ATOM     26  C18 EZR d   1      -4.023  32.062  11.852  0.00  0.00     0.081 A 
ATOM     27  C7  EZR d   1      -3.419  34.552  12.842  0.00  0.00    -0.057 A 
ATOM     28  H1  EZR d   1      -1.667  34.426  11.650  0.00  0.00     0.085 H 
ATOM     29  C17 EZR d   1      -4.576  33.927  13.250  0.00  0.00     0.028 A 
ATOM     30  H4  EZR d   1      -3.171  35.537  13.221  0.00  0.00     0.086 H 
ATOM     31  C9  EZR d   1      -4.870  32.681  12.748  0.00  0.00    -0.025 A 
ATOM     32  H18 EZR d   1      -5.779  32.179  13.060  0.00  0.00     0.091 H 
ATOM     33  N28 EZR d   1       1.335  32.177   7.300  0.00  0.00    -0.273 N 
ATOM     34  H25 EZR d   1       2.011  32.391   6.553  0.00  0.00     0.189 HD
ATOM     35  H16 EZR d   1      -0.137  29.229   9.969  0.00  0.00     0.085 H 
BRANCH  29  36
ATOM     36  N32 EZR d   1      -5.448  34.537  14.159  0.00  0.00    -0.399 N 
ATOM     37  H26 EZR d   1      -5.229  35.470  14.536  0.00  0.00     0.156 HD
ATOM     38  H27 EZR d   1      -6.309  34.053  14.451  0.00  0.00     0.156 HD
ENDBRANCH  29  36
BRANCH  26  39
ATOM     39  O34 EZR d   1      -4.358  30.811  11.376  0.00  0.00    -0.355 OA
BRANCH  39  40
ATOM     40  C26 EZR d   1      -5.646  30.564  11.918  0.00  0.00     0.010 C 
ATOM     41  H12 EZR d   1      -5.999  29.576  11.588  0.00  0.00     0.066 H 
ATOM     42  H13 EZR d   1      -6.345  31.338  11.569  0.00  0.00     0.066 H 
ATOM     43  H14 EZR d   1      -5.592  30.586  13.016  0.00  0.00     0.066 H 
ENDBRANCH  39  40
ENDBRANCH  26  39
ENDBRANCH   4  14
BRANCH   7  44
ATOM     44  N31 EZR d   1       2.789  25.917   9.058  0.00  0.00    -0.278 NA
ATOM     45  C21 EZR d   1       2.892  26.548  10.357  0.00  0.00     0.006 C 
ATOM     46  C23 EZR d   1       1.952  25.792  11.270  0.00  0.00     0.094 C 
ATOM     47  H6  EZR d   1       3.924  26.481  10.732  0.00  0.00     0.058 H 
ATOM     48  H7  EZR d   1       2.593  27.605  10.292  0.00  0.00     0.058 H 
ATOM     49  N33 EZR d   1       2.529  24.433  11.440  0.00  0.00    -0.073 N 
ATOM     50  H19 EZR d   1       0.952  25.726  10.816  0.00  0.00     0.077 H 
ATOM     51  H20 EZR d   1       1.879  26.298  12.244  0.00  0.00     0.077 H 
ATOM     52  C24 EZR d   1       3.450  23.930  10.375  0.00  0.00     0.094 C 
ATOM     53  H28 EZR d   1       3.139  24.543  12.235  0.00  0.00     0.279 HD
ATOM     54  C22 EZR d   1       3.137  24.501   9.002  0.00  0.00     0.006 C 
ATOM     55  H10 EZR d   1       4.480  24.206  10.643  0.00  0.00     0.077 H 
ATOM     56  H11 EZR d   1       3.365  22.834  10.327  0.00  0.00     0.077 H 
ATOM     57  H8  EZR d   1       2.291  23.945   8.572  0.00  0.00     0.058 H 
ATOM     58  H9  EZR d   1       4.021  24.379   8.358  0.00  0.00     0.058 H 
BRANCH  49  59
ATOM     59  C25 EZR d   1       1.541  23.430  11.888  0.00  0.00     0.066 C 
ATOM     60  H21 EZR d   1       2.033  22.452  11.993  0.00  0.00     0.068 H 
ATOM     61  H22 EZR d   1       0.732  23.356  11.146  0.00  0.00     0.068 H 
ATOM     62  H23 EZR d   1       1.122  23.736  12.858  0.00  0.00     0.068 H 
ENDBRANCH  49  59
ENDBRANCH   7  44
TORSDOF 6
