REMARK  5 active torsions:
REMARK  status: ('A' for Active; 'I' for Inactive)
REMARK    1  A    between atoms: C2_2  and  C19_19 
REMARK    2  A    between atoms: C9_9  and  C10_10 
REMARK    3  A    between atoms: C18_18  and  N20_20 
REMARK    4  A    between atoms: N23_23  and  C26_26 
REMARK    5  A    between atoms: C29_29  and  N32_32 
ROOT
ATOM      1  C10 EZV d   1       2.343  29.688   7.296  0.00  0.00     0.158 A 
ATOM      2  N11 EZV d   1       3.351  29.799   6.467  0.00  0.00    -0.337 N 
ATOM      3  C12 EZV d   1       4.004  28.597   6.506  0.00  0.00     0.064 A 
ATOM      4  C13 EZV d   1       3.382  27.738   7.383  0.00  0.00     0.107 A 
ATOM      5  N14 EZV d   1       2.332  28.452   7.875  0.00  0.00    -0.225 NA
ATOM      6  C15 EZV d   1       5.129  28.194   5.811  0.00  0.00    -0.055 A 
ATOM      7  C16 EZV d   1       5.559  26.912   6.056  0.00  0.00    -0.079 A 
ATOM      8  C17 EZV d   1       4.919  26.074   6.937  0.00  0.00    -0.060 A 
ATOM      9  C18 EZV d   1       3.801  26.455   7.638  0.00  0.00     0.042 A 
ATOM     10  H5  EZV d   1       3.601  30.623   5.901  0.00  0.00     0.167 HD
ATOM     11  H6  EZV d   1       5.641  28.849   5.115  0.00  0.00     0.087 H 
ATOM     12  H7  EZV d   1       6.437  26.548   5.534  0.00  0.00     0.083 H 
ATOM     13  H8  EZV d   1       5.311  25.074   7.084  0.00  0.00     0.086 H 
ENDROOT
BRANCH   1  14
ATOM     14  C9  EZV d   1       1.376  30.773   7.567  0.00  0.00     0.108 A 
ATOM     15  C5  EZV d   1       0.286  30.715   8.470  0.00  0.00     0.026 A 
ATOM     16  C4  EZV d   1      -0.281  31.971   8.414  0.00  0.00     0.090 A 
ATOM     17  C6  EZV d   1      -0.260  29.755   9.302  0.00  0.00    -0.068 A 
ATOM     18  C3  EZV d   1      -1.361  32.368   9.160  0.00  0.00    -0.042 A 
ATOM     19  N7  EZV d   1       0.470  32.676   7.521  0.00  0.00    -0.174 NA
ATOM     20  C2  EZV d   1      -1.895  31.403   9.982  0.00  0.00    -0.024 A 
ATOM     21  H2  EZV d   1      -1.766  33.372   9.106  0.00  0.00     0.088 H 
ATOM     22  C1  EZV d   1      -1.357  30.141  10.037  0.00  0.00    -0.071 A 
ATOM     23  H1  EZV d   1      -1.820  29.412  10.693  0.00  0.00     0.084 H 
ATOM     24  N8  EZV d   1       1.484  31.977   6.990  0.00  0.00    -0.273 N 
ATOM     25  H4  EZV d   1       2.182  32.292   6.301  0.00  0.00     0.189 HD
ATOM     26  H3  EZV d   1       0.153  28.755   9.371  0.00  0.00     0.085 H 
BRANCH  20  27
ATOM     27  C19 EZV d   1      -2.975  31.761  10.859  0.00  0.00    -0.026 A 
ATOM     28  C27 EZV d   1      -3.978  30.894  11.223  0.00  0.00    -0.070 A 
ATOM     29  C28 EZV d   1      -4.949  31.294  12.113  0.00  0.00    -0.057 A 
ATOM     30  H21 EZV d   1      -4.004  29.893  10.808  0.00  0.00     0.084 H 
ATOM     31  C29 EZV d   1      -4.936  32.562  12.650  0.00  0.00     0.025 A 
ATOM     32  H22 EZV d   1      -5.734  30.602  12.395  0.00  0.00     0.086 H 
ATOM     33  C30 EZV d   1      -3.934  33.432  12.283  0.00  0.00    -0.057 A 
ATOM     34  C31 EZV d   1      -2.962  33.024  11.402  0.00  0.00    -0.070 A 
ATOM     35  H23 EZV d   1      -3.912  34.437  12.688  0.00  0.00     0.086 H 
ATOM     36  H24 EZV d   1      -2.169  33.711  11.130  0.00  0.00     0.084 H 
BRANCH  31  37
ATOM     37  N32 EZV d   1      -5.922  32.976  13.565  0.00  0.00    -0.399 N 
ATOM     38  H25 EZV d   1      -6.673  32.327  13.841  0.00  0.00     0.156 HD
ATOM     39  H26 EZV d   1      -5.893  33.928  13.958  0.00  0.00     0.156 HD
ENDBRANCH  31  37
ENDBRANCH  20  27
ENDBRANCH   1  14
BRANCH   9  40
ATOM     40  N20 EZV d   1       3.144  25.605   8.530  0.00  0.00    -0.278 NA
ATOM     41  C21 EZV d   1       2.918  26.330   9.755  0.00  0.00     0.006 C 
ATOM     42  C22 EZV d   1       2.022  25.464  10.606  0.00  0.00     0.094 C 
ATOM     43  H9  EZV d   1       2.427  27.291   9.543  0.00  0.00     0.058 H 
ATOM     44  H10 EZV d   1       3.872  26.512  10.271  0.00  0.00     0.058 H 
ATOM     45  N23 EZV d   1       2.738  24.182  10.844  0.00  0.00    -0.073 N 
ATOM     46  H11 EZV d   1       1.074  25.273  10.081  0.00  0.00     0.077 H 
ATOM     47  H12 EZV d   1       1.816  25.963  11.564  0.00  0.00     0.077 H 
ATOM     48  C24 EZV d   1       3.118  23.460   9.602  0.00  0.00     0.094 C 
ATOM     49  H13 EZV d   1       3.599  24.418  11.312  0.00  0.00     0.279 HD
ATOM     50  C25 EZV d   1       3.912  24.396   8.721  0.00  0.00     0.006 C 
ATOM     51  H14 EZV d   1       2.211  23.133   9.072  0.00  0.00     0.077 H 
ATOM     52  H15 EZV d   1       3.731  22.583   9.857  0.00  0.00     0.077 H 
ATOM     53  H16 EZV d   1       4.870  24.637   9.204  0.00  0.00     0.058 H 
ATOM     54  H17 EZV d   1       4.102  23.919   7.748  0.00  0.00     0.058 H 
BRANCH  45  55
ATOM     55  C26 EZV d   1       1.971  23.308  11.760  0.00  0.00     0.066 C 
ATOM     56  H18 EZV d   1       1.706  23.871  12.667  0.00  0.00     0.068 H 
ATOM     57  H19 EZV d   1       2.584  22.437  12.035  0.00  0.00     0.068 H 
ATOM     58  H20 EZV d   1       1.053  22.967  11.259  0.00  0.00     0.068 H 
ENDBRANCH  45  55
ENDBRANCH   9  40
TORSDOF 5
