REMARK  7 active torsions:
REMARK  status: ('A' for Active; 'I' for Inactive)
REMARK    1  A    between atoms: N1_1  and  C11_16 
REMARK    2  A    between atoms: N2_3  and  O1_7 
REMARK       I    between atoms: C16_21  and  N2_3 
REMARK    3  A    between atoms: C7_12  and  C5_5 
REMARK    4  A    between atoms: C8_13  and  C7_12 
REMARK    5  A    between atoms: C9_14  and  C8_13 
REMARK    6  A    between atoms: C14_19  and  C12_17 
REMARK    7  A    between atoms: C15_20  and  C16_21 
ROOT
ATOM      1  N1  AGE d   1     -27.391  31.039 -40.179  0.00  0.00    -0.360 N 
ATOM      2  C9  AGE d   1     -25.233  30.945 -39.789  0.00  0.00     0.028 A 
ATOM      3  C10 AGE d   1     -26.254  31.780 -40.247  0.00  0.00    -0.007 A 
ATOM      4  C12 AGE d   1     -27.216  29.715 -39.695  0.00  0.00     0.034 A 
ATOM      5  C13 AGE d   1     -25.826  29.668 -39.445  0.00  0.00    -0.042 A 
ATOM      6  H10 AGE d   1     -26.159  32.810 -40.588  0.00  0.00     0.113 H 
ATOM      7  H14 AGE d   1     -25.285  28.807 -39.055  0.00  0.00     0.088 H 
ENDROOT
BRANCH   2   8
ATOM      8  C8  AGE d   1     -23.763  31.379 -39.686  0.00  0.00     0.165 C 
ATOM      9  O3  AGE d   1     -23.336  31.460 -38.551  0.00  0.00    -0.292 OA
BRANCH   8  10
ATOM     10  C7  AGE d   1     -22.796  31.727 -40.891  0.00  0.00     0.019 C 
ATOM     11  H8  AGE d   1     -22.485  32.755 -40.654  0.00  0.00     0.052 H 
ATOM     12  H9  AGE d   1     -21.953  31.041 -40.722  0.00  0.00     0.052 H 
BRANCH  10  13
ATOM     13  C5  AGE d   1     -22.892  31.759 -42.444  0.00  0.00    -0.051 A 
ATOM     14  C4  AGE d   1     -21.649  32.185 -43.115  0.00  0.00    -0.076 A 
ATOM     15  C3  AGE d   1     -21.532  32.284 -44.565  0.00  0.00    -0.082 A 
ATOM     16  H3  AGE d   1     -20.788  32.434 -42.505  0.00  0.00     0.084 H 
ATOM     17  C2  AGE d   1     -22.681  31.949 -45.414  0.00  0.00    -0.083 A 
ATOM     18  H7  AGE d   1     -20.599  32.604 -45.014  0.00  0.00     0.083 H 
ATOM     19  C1  AGE d   1     -23.933  31.520 -44.793  0.00  0.00    -0.082 A 
ATOM     20  H1  AGE d   1     -22.602  32.019 -46.493  0.00  0.00     0.083 H 
ATOM     21  C6  AGE d   1     -24.035  31.428 -43.329  0.00  0.00    -0.076 A 
ATOM     22  H6  AGE d   1     -24.787  31.270 -45.412  0.00  0.00     0.083 H 
ATOM     23  H4  AGE d   1     -24.971  31.110 -42.885  0.00  0.00     0.084 H 
ENDBRANCH  10  13
ENDBRANCH   8  10
ENDBRANCH   2   8
BRANCH   1  24
ATOM     24  C11 AGE d   1     -28.686  31.621 -40.591  0.00  0.00    -0.014 C 
ATOM     25  H11 AGE d   1     -28.533  32.658 -40.923  0.00  0.00     0.057 H 
ATOM     26  H12 AGE d   1     -29.382  31.608 -39.739  0.00  0.00     0.057 H 
ATOM     27  H13 AGE d   1     -29.107  31.030 -41.418  0.00  0.00     0.057 H 
ENDBRANCH   1  24
BRANCH   4  28
ATOM     28  C14 AGE d   1     -28.303  28.666 -39.516  0.00  0.00    -0.052 C 
ATOM     29  C15 AGE d   1     -28.254  27.342 -39.052  0.00  0.00    -0.013 C 
ATOM     30  H16 AGE d   1     -27.297  26.927 -38.740  0.00  0.00     0.092 H 
ATOM     31  H15 AGE d   1     -29.299  29.003 -39.799  0.00  0.00     0.087 H 
BRANCH  29  32
ATOM     32  C16 AGE d   1     -29.515  26.458 -38.971  0.00  0.00     0.264 C 
ATOM     33  N2  AGE d   1     -29.317  25.194 -38.506  0.00  0.00    -0.234 N 
ATOM     34  H2  AGE d   1     -28.395  24.909 -38.245  0.00  0.00     0.197 HD
ATOM     35  O2  AGE d   1     -30.640  26.810 -39.292  0.00  0.00    -0.266 OA
BRANCH  33  36
ATOM     36  O1  AGE d   1     -30.316  24.335 -38.392  0.00  0.00    -0.287 OA
ATOM     37  H5  AGE d   1     -29.986  23.511 -38.053  0.00  0.00     0.244 HD
ENDBRANCH  33  36
ENDBRANCH  29  32
ENDBRANCH   4  28
TORSDOF 7
