REMARK  5 active torsions:
REMARK  status: ('A' for Active; 'I' for Inactive)
REMARK    1  A    between atoms: C13_18  and  C1_1 
REMARK    2  A    between atoms: C3_3  and  N1_7 
REMARK    3  A    between atoms: N3_10  and  C8_14 
REMARK    4  A    between atoms: C15_20  and  C18_21 
REMARK    5  A    between atoms: C19_22  and  C9_23 
ROOT
ATOM      1  C1  985 d   1      73.312  36.867   2.380  0.00  0.00     0.086 A 
ATOM      2  N2  985 d   1      73.955  35.799   3.027  0.00  0.00    -0.228 NA
ATOM      3  C3  985 d   1      74.051  35.659   4.390  0.00  0.00     0.144 A 
ATOM      4  C4  985 d   1      73.450  36.674   5.193  0.00  0.00     0.046 A 
ATOM      5  N5  985 d   1      72.828  37.706   4.570  0.00  0.00    -0.267 NA
ATOM      6  C6  985 d   1      72.730  37.851   3.227  0.00  0.00     0.030 A 
ATOM      7  H1  985 d   1      73.490  36.622   6.275  0.00  0.00     0.120 H 
ATOM      8  H2  985 d   1      72.215  38.705   2.803  0.00  0.00     0.118 H 
ENDROOT
BRANCH   3   9
ATOM      9  N1  985 d   1      74.720  34.555   4.916  0.00  0.00    -0.363 N 
ATOM     10  C2  985 d   1      75.631  33.794   4.024  0.00  0.00     0.019 C 
ATOM     11  C11 985 d   1      75.025  32.483   3.460  0.00  0.00     0.098 C 
ATOM     12  H3  985 d   1      76.536  33.538   4.594  0.00  0.00     0.066 H 
ATOM     13  H4  985 d   1      75.902  34.440   3.176  0.00  0.00     0.066 H 
ATOM     14  N3  985 d   1      73.760  32.096   4.143  0.00  0.00    -0.073 N 
ATOM     15  H5  985 d   1      75.757  31.672   3.589  0.00  0.00     0.078 H 
ATOM     16  H6  985 d   1      74.818  32.623   2.389  0.00  0.00     0.078 H 
ATOM     17  C5  985 d   1      74.056  31.708   5.542  0.00  0.00     0.085 C 
ATOM     18  H7  985 d   1      73.116  32.872   4.133  0.00  0.00     0.279 HD
ATOM     19  C14 985 d   1      73.719  32.854   6.516  0.00  0.00    -0.027 C 
ATOM     20  H8  985 d   1      75.125  31.465   5.629  0.00  0.00     0.076 H 
ATOM     21  H9  985 d   1      73.456  30.824   5.805  0.00  0.00     0.076 H 
ATOM     22  C7  985 d   1      74.573  34.133   6.341  0.00  0.00    -0.002 C 
ATOM     23  H10 985 d   1      73.865  32.484   7.542  0.00  0.00     0.037 H 
ATOM     24  H11 985 d   1      72.663  33.126   6.371  0.00  0.00     0.037 H 
ATOM     25  H12 985 d   1      74.095  34.951   6.900  0.00  0.00     0.064 H 
ATOM     26  H13 985 d   1      75.575  33.943   6.754  0.00  0.00     0.064 H 
BRANCH  14  27
ATOM     27  C8  985 d   1      73.167  30.946   3.439  0.00  0.00     0.066 C 
ATOM     28  H14 985 d   1      72.945  31.228   2.399  0.00  0.00     0.068 H 
ATOM     29  H15 985 d   1      72.237  30.646   3.945  0.00  0.00     0.068 H 
ATOM     30  H16 985 d   1      73.876  30.105   3.448  0.00  0.00     0.068 H 
ENDBRANCH  14  27
ENDBRANCH   3   9
BRANCH   1  31
ATOM     31  C13 985 d   1      73.260  36.904   0.874  0.00  0.00    -0.005 A 
ATOM     32  C12 985 d   1      73.017  38.101   0.107  0.00  0.00    -0.071 A 
ATOM     33  C16 985 d   1      72.967  38.065  -1.326  0.00  0.00    -0.081 A 
ATOM     34  H19 985 d   1      72.870  39.043   0.622  0.00  0.00     0.084 H 
ATOM     35  C10 985 d   1      73.161  36.812  -2.003  0.00  0.00    -0.073 A 
ATOM     36  H18 985 d   1      72.785  38.972  -1.891  0.00  0.00     0.083 H 
ATOM     37  C15 985 d   1      73.405  35.614  -1.259  0.00  0.00    -0.035 A 
ATOM     38  H17 985 d   1      73.122  36.774  -3.086  0.00  0.00     0.084 H 
ATOM     39  C17 985 d   1      73.451  35.672   0.169  0.00  0.00    -0.061 A 
ATOM     40  H20 985 d   1      73.635  34.763   0.731  0.00  0.00     0.086 H 
BRANCH  37  41
ATOM     41  C18 985 d   1      73.600  34.332  -1.984  0.00  0.00    -0.067 C 
ATOM     42  C19 985 d   1      74.124  33.195  -1.427  0.00  0.00    -0.009 C 
ATOM     43  H22 985 d   1      74.436  33.212  -0.384  0.00  0.00     0.094 H 
ATOM     44  H21 985 d   1      73.306  34.293  -3.032  0.00  0.00     0.085 H 
BRANCH  42  45
ATOM     45  C9  985 d   1      74.278  31.940  -2.205  0.00  0.00     0.198 C 
ATOM     46  O1  985 d   1      74.962  31.073  -1.756  0.00  0.00    -0.645 OA
ATOM     47  O2  985 d   1      73.624  31.817  -3.386  0.00  0.00    -0.645 OA
ENDBRANCH  42  45
ENDBRANCH  37  41
ENDBRANCH   1  31
TORSDOF 5
