REMARK  5 active torsions:
REMARK  status: ('A' for Active; 'I' for Inactive)
REMARK    1  A    between atoms: C10_1  and  C9_2 
REMARK    2  A    between atoms: C9_2  and  C6_3 
REMARK    3  A    between atoms: C2_7  and  C7_8 
REMARK    4  A    between atoms: C7_8  and  C8_9 
REMARK    5  A    between atoms: C1_10  and  O1_11 
ROOT
ATOM      1  C6  DIE d   1      32.944  -0.392  35.675  0.00  0.00    -0.025 A 
ATOM      2  C5  DIE d   1      33.313  -0.112  36.982  0.00  0.00    -0.074 A 
ATOM      3  C4  DIE d   1      34.639   0.073  37.310  0.00  0.00    -0.082 A 
ATOM      4  C3  DIE d   1      35.632  -0.029  36.344  0.00  0.00    -0.074 A 
ATOM      5  C2  DIE d   1      35.309  -0.322  35.032  0.00  0.00    -0.025 A 
ATOM      6  C1  DIE d   1      33.978  -0.502  34.716  0.00  0.00     0.078 A 
ATOM      7  H6  DIE d   1      32.553  -0.038  37.752  0.00  0.00     0.084 H 
ATOM      8  H7  DIE d   1      34.910   0.301  38.334  0.00  0.00     0.083 H 
ATOM      9  H8  DIE d   1      36.669   0.122  36.621  0.00  0.00     0.084 H 
ENDROOT
BRANCH   1  10
ATOM     10  C9  DIE d   1      31.417  -0.567  35.543  0.00  0.00    -0.042 C 
ATOM     11  H4  DIE d   1      31.224  -1.593  35.196  0.00  0.00     0.039 H 
ATOM     12  H5  DIE d   1      30.974  -0.428  36.540  0.00  0.00     0.039 H 
BRANCH  10  13
ATOM     13  C10 DIE d   1      30.717   0.396  34.579  0.00  0.00    -0.073 C 
ATOM     14  H1  DIE d   1      29.638   0.181  34.565  0.00  0.00     0.028 H 
ATOM     15  H2  DIE d   1      31.130   0.267  33.568  0.00  0.00     0.028 H 
ATOM     16  H3  DIE d   1      30.880   1.431  34.912  0.00  0.00     0.028 H 
ENDBRANCH  10  13
ENDBRANCH   1  10
BRANCH   6  17
ATOM     17  O1  DIE d   1      33.826  -0.783  33.417  0.00  0.00    -0.360 OA
ATOM     18  H14 DIE d   1      32.903  -0.902  33.226  0.00  0.00     0.217 HD
ENDBRANCH   6  17
BRANCH   5  19
ATOM     19  C7  DIE d   1      36.436  -0.427  33.992  0.00  0.00    -0.042 C 
ATOM     20  H9  DIE d   1      36.765  -1.475  33.928  0.00  0.00     0.039 H 
ATOM     21  H10 DIE d   1      37.278   0.203  34.315  0.00  0.00     0.039 H 
BRANCH  19  22
ATOM     22  C8  DIE d   1      35.973   0.036  32.599  0.00  0.00    -0.073 C 
ATOM     23  H11 DIE d   1      36.806  -0.055  31.887  0.00  0.00     0.028 H 
ATOM     24  H12 DIE d   1      35.648   1.085  32.651  0.00  0.00     0.028 H 
ATOM     25  H13 DIE d   1      35.134  -0.592  32.264  0.00  0.00     0.028 H 
ENDBRANCH  19  22
ENDBRANCH   5  19
TORSDOF 5
