REMARK  4 active torsions:
REMARK  status: ('A' for Active; 'I' for Inactive)
REMARK    1  A    between atoms: C8_1  and  C7_2 
REMARK    2  A    between atoms: C7_2  and  C9_3 
REMARK    3  A    between atoms: C7_2  and  C2_4 
REMARK    4  A    between atoms: C1_9  and  O1_10 
ROOT
ATOM      1  C2  IP0 d   1      35.272   0.082  35.401  0.00  0.00    -0.022 A 
ATOM      2  C3  IP0 d   1      35.848  -0.443  36.548  0.00  0.00    -0.074 A 
ATOM      3  C4  IP0 d   1      35.059  -0.795  37.635  0.00  0.00    -0.082 A 
ATOM      4  C5  IP0 d   1      33.683  -0.618  37.575  0.00  0.00    -0.080 A 
ATOM      5  C6  IP0 d   1      33.107  -0.090  36.433  0.00  0.00    -0.051 A 
ATOM      6  C1  IP0 d   1      33.897   0.260  35.346  0.00  0.00     0.072 A 
ATOM      7  H   IP0 d   1      36.928  -0.580  36.597  0.00  0.00     0.084 H 
ATOM      8  H   IP0 d   1      35.518  -1.209  38.533  0.00  0.00     0.083 H 
ATOM      9  H   IP0 d   1      33.059  -0.894  38.425  0.00  0.00     0.083 H 
ATOM     10  H   IP0 d   1      32.027   0.052  36.386  0.00  0.00     0.087 H 
ENDROOT
BRANCH   1  11
ATOM     11  C7  IP0 d   1      36.163   0.467  34.217  0.00  0.00    -0.033 C 
ATOM     12  H   IP0 d   1      35.602   1.093  33.523  0.00  0.00     0.046 H 
BRANCH  11  13
ATOM     13  C8  IP0 d   1      36.622  -0.787  33.490  0.00  0.00    -0.069 C 
ATOM     14  H   IP0 d   1      37.186  -1.418  34.177  0.00  0.00     0.028 H 
ATOM     15  H   IP0 d   1      35.752  -1.333  33.125  0.00  0.00     0.028 H 
ATOM     16  H   IP0 d   1      37.256  -0.506  32.649  0.00  0.00     0.028 H 
ENDBRANCH  11  13
BRANCH  11  17
ATOM     17  C9  IP0 d   1      37.377   1.235  34.738  0.00  0.00    -0.069 C 
ATOM     18  H   IP0 d   1      37.042   2.134  35.255  0.00  0.00     0.028 H 
ATOM     19  H   IP0 d   1      37.935   0.604  35.429  0.00  0.00     0.028 H 
ATOM     20  H   IP0 d   1      38.017   1.513  33.900  0.00  0.00     0.028 H 
ENDBRANCH  11  17
ENDBRANCH   1  11
BRANCH   6  21
ATOM     21  O1  IP0 d   1      33.327   0.775  34.227  0.00  0.00    -0.360 OA
ATOM     22  H   IP0 d   1      32.704   0.140  33.865  0.00  0.00     0.217 HD
ENDBRANCH   6  21
TORSDOF 4
