REMARK  3 active torsions:
REMARK  status: ('A' for Active; 'I' for Inactive)
REMARK    1  A    between atoms: C8_1  and  C6_2 
REMARK    2  A    between atoms: C2_6  and  C7_7 
REMARK    3  A    between atoms: C1_8  and  O1_9 
ROOT
ATOM      1  C6  2MY d   1      32.779  -0.087  35.506  0.00  0.00    -0.028 A 
ATOM      2  C5  2MY d   1      32.972  -0.164  36.876  0.00  0.00    -0.074 A 
ATOM      3  C4  2MY d   1      34.257  -0.201  37.396  0.00  0.00    -0.082 A 
ATOM      4  C3  2MY d   1      35.352  -0.157  36.541  0.00  0.00    -0.074 A 
ATOM      5  C2  2MY d   1      35.160  -0.083  35.160  0.00  0.00    -0.028 A 
ATOM      6  C1  2MY d   1      33.871  -0.043  34.642  0.00  0.00     0.077 A 
ATOM      7  H4  2MY d   1      32.117  -0.195  37.542  0.00  0.00     0.084 H 
ATOM      8  H5  2MY d   1      34.407  -0.264  38.468  0.00  0.00     0.083 H 
ATOM      9  H6  2MY d   1      36.357  -0.180  36.947  0.00  0.00     0.084 H 
ENDROOT
BRANCH   1  10
ATOM     10  C8  2MY d   1      31.358  -0.050  34.949  0.00  0.00    -0.049 C 
ATOM     11  H1  2MY d   1      30.638  -0.094  35.779  0.00  0.00     0.033 H 
ATOM     12  H2  2MY d   1      31.203  -0.912  34.283  0.00  0.00     0.033 H 
ATOM     13  H3  2MY d   1      31.210   0.882  34.384  0.00  0.00     0.033 H 
ENDBRANCH   1  10
BRANCH   6  14
ATOM     14  O1  2MY d   1      33.660   0.031  33.287  0.00  0.00    -0.360 OA
ATOM     15  H10 2MY d   1      32.726   0.049  33.114  0.00  0.00     0.217 HD
ENDBRANCH   6  14
BRANCH   5  16
ATOM     16  C7  2MY d   1      36.370  -0.035  34.220  0.00  0.00    -0.049 C 
ATOM     17  H7  2MY d   1      37.296  -0.077  34.812  0.00  0.00     0.033 H 
ATOM     18  H8  2MY d   1      36.347   0.900  33.641  0.00  0.00     0.033 H 
ATOM     19  H9  2MY d   1      36.335  -0.893  33.533  0.00  0.00     0.033 H 
ENDBRANCH   5  16
TORSDOF 3
