REMARK  1 active torsions:
REMARK  status: ('A' for Active; 'I' for Inactive)
REMARK    1  A    between atoms: C1_1  and  O1_7 
ROOT
ATOM      1  C1  IPH d   1      34.529   0.468  35.651  0.00  0.00     0.065 A 
ATOM      2  C2  IPH d   1      35.671  -0.294  35.859  0.00  0.00    -0.051 A 
ATOM      3  C3  IPH d   1      36.521  -0.581  34.800  0.00  0.00    -0.080 A 
ATOM      4  C4  IPH d   1      36.229  -0.106  33.524  0.00  0.00    -0.083 A 
ATOM      5  C5  IPH d   1      35.084   0.654  33.310  0.00  0.00    -0.080 A 
ATOM      6  C6  IPH d   1      34.231   0.940  34.377  0.00  0.00    -0.051 A 
ATOM      7  H1  IPH d   1      35.899  -0.666  36.851  0.00  0.00     0.087 H 
ATOM      8  H2  IPH d   1      37.412  -1.175  34.966  0.00  0.00     0.083 H 
ATOM      9  H3  IPH d   1      36.894  -0.329  32.697  0.00  0.00     0.083 H 
ATOM     10  H4  IPH d   1      34.855   1.023  32.317  0.00  0.00     0.083 H 
ATOM     11  H5  IPH d   1      33.337   1.530  34.213  0.00  0.00     0.087 H 
ENDROOT
BRANCH   1  12
ATOM     12  O1  IPH d   1      33.693   0.741  36.702  0.00  0.00    -0.361 OA
ATOM     13  H6  IPH d   1      34.042   0.348  37.493  0.00  0.00     0.217 HD
ENDBRANCH   1  12
TORSDOF 1
