REMARK  8 active torsions:
REMARK  status: ('A' for Active; 'I' for Inactive)
REMARK    1  A    between atoms: CAX_10  and  NAS_11 
REMARK       I    between atoms: NAS_11  and  CAU_12 
REMARK       I    between atoms: CAU_12  and  NAT_14 
REMARK    2  A    between atoms: NAT_14  and  CAZ_15 
REMARK    3  A    between atoms: CAY_17  and  CBD_18 
REMARK    4  A    between atoms: CBD_18  and  CAB_19 
REMARK    5  A    between atoms: CBD_18  and  CAC_20 
REMARK    6  A    between atoms: CBD_18  and  CAA_21 
REMARK    7  A    between atoms: NBC_23  and  CAW_24 
REMARK    8  A    between atoms: CAV_29  and  NAD_30 
ROOT
ATOM      1  CAZ 1AU d   1      -1.191  31.256  -7.990  0.00  0.00     0.135 A 
ATOM      2  CAQ 1AU d   1      -1.767  30.203  -7.382  0.00  0.00    -0.012 A 
ATOM      3  CAY 1AU d   1      -0.735  29.450  -6.968  0.00  0.00     0.066 A 
ATOM      4  NAR 1AU d   1       0.401  30.038  -7.335  0.00  0.00    -0.169 NA
ATOM      5  NBC 1AU d   1       0.148  31.098  -7.914  0.00  0.00    -0.217 N 
ATOM      6  H10 1AU d   1      -2.830  30.006  -7.254  0.00  0.00     0.092 H 
ENDROOT
BRANCH   1   7
ATOM      7  NAT 1AU d   1      -1.820  32.310  -8.562  0.00  0.00    -0.293 N 
ATOM      8  CAU 1AU d   1      -2.839  32.992  -8.010  0.00  0.00     0.326 C 
ATOM      9  NAS 1AU d   1      -3.320  34.040  -8.711  0.00  0.00    -0.308 N 
ATOM     10  OAE 1AU d   1      -3.307  32.694  -6.907  0.00  0.00    -0.247 OA
ATOM     11  H8  1AU d   1      -2.897  34.267  -9.588  0.00  0.00     0.170 HD
ATOM     12  H9  1AU d   1      -1.502  32.604  -9.464  0.00  0.00     0.172 HD
BRANCH   9  13
ATOM     13  CAX 1AU d   1      -4.357  34.797  -8.269  0.00  0.00     0.047 A 
ATOM     14  CBB 1AU d   1      -5.316  35.303  -9.167  0.00  0.00     0.001 A 
ATOM     15  CAO 1AU d   1      -5.204  35.041 -10.534  0.00  0.00    -0.070 A 
ATOM     16  CBA 1AU d   1      -6.401  36.079  -8.692  0.00  0.00    -0.024 A 
ATOM     17  CAG 1AU d   1      -6.179  35.551 -11.395  0.00  0.00    -0.082 A 
ATOM     18  H1  1AU d   1      -4.378  34.454 -10.919  0.00  0.00     0.084 H 
ATOM     19  CAF 1AU d   1      -7.246  36.323 -10.930  0.00  0.00    -0.082 A 
ATOM     20  H2  1AU d   1      -6.105  35.341 -12.456  0.00  0.00     0.083 H 
ATOM     21  CAM 1AU d   1      -7.351  36.585  -9.569  0.00  0.00    -0.072 A 
ATOM     22  H3  1AU d   1      -7.983  36.713 -11.622  0.00  0.00     0.083 H 
ATOM     23  H4  1AU d   1      -8.173  37.183  -9.193  0.00  0.00     0.084 H 
ATOM     24  CAN 1AU d   1      -6.537  36.347  -7.333  0.00  0.00    -0.072 A 
ATOM     25  CAI 1AU d   1      -5.593  35.830  -6.448  0.00  0.00    -0.080 A 
ATOM     26  H5  1AU d   1      -7.363  36.947  -6.969  0.00  0.00     0.084 H 
ATOM     27  CAL 1AU d   1      -4.519  35.078  -6.902  0.00  0.00    -0.056 A 
ATOM     28  H6  1AU d   1      -5.700  36.019  -5.386  0.00  0.00     0.083 H 
ATOM     29  H7  1AU d   1      -3.793  34.701  -6.191  0.00  0.00     0.086 H 
ENDBRANCH   9  13
ENDBRANCH   1   7
BRANCH   5  30
ATOM     30  CAW 1AU d   1       1.132  31.885  -8.395  0.00  0.00     0.062 A 
ATOM     31  CAP 1AU d   1       1.186  33.246  -8.164  0.00  0.00    -0.030 A 
ATOM     32  CAV 1AU d   1       2.233  34.025  -8.684  0.00  0.00     0.027 A 
ATOM     33  H20 1AU d   1       0.410  33.719  -7.573  0.00  0.00     0.090 H 
ATOM     34  CAJ 1AU d   1       3.261  33.454  -9.439  0.00  0.00    -0.058 A 
ATOM     35  CAH 1AU d   1       3.230  32.082  -9.682  0.00  0.00    -0.079 A 
ATOM     36  H23 1AU d   1       4.067  34.066  -9.828  0.00  0.00     0.086 H 
ATOM     37  CAK 1AU d   1       2.170  31.320  -9.149  0.00  0.00    -0.055 A 
ATOM     38  H22 1AU d   1       4.008  31.609 -10.271  0.00  0.00     0.083 H 
ATOM     39  H21 1AU d   1       2.157  30.251  -9.330  0.00  0.00     0.087 H 
BRANCH  32  40
ATOM     40  NAD 1AU d   1       2.246  35.337  -8.428  0.00  0.00    -0.399 N 
ATOM     41  H24 1AU d   1       1.490  35.761  -7.872  0.00  0.00     0.156 HD
ATOM     42  H25 1AU d   1       3.012  35.924  -8.787  0.00  0.00     0.156 HD
ENDBRANCH  32  40
ENDBRANCH   5  30
BRANCH   3  43
ATOM     43  CBD 1AU d   1      -0.761  28.074  -6.221  0.00  0.00    -0.005 C 
BRANCH  43  44
ATOM     44  CAB 1AU d   1      -1.456  27.030  -7.112  0.00  0.00    -0.064 C 
ATOM     45  H11 1AU d   1      -1.477  26.061  -6.593  0.00  0.00     0.028 H 
ATOM     46  H12 1AU d   1      -0.902  26.927  -8.057  0.00  0.00     0.028 H 
ATOM     47  H13 1AU d   1      -2.485  27.355  -7.324  0.00  0.00     0.028 H 
ENDBRANCH  43  44
BRANCH  43  48
ATOM     48  CAC 1AU d   1       0.667  27.619  -5.925  0.00  0.00    -0.064 C 
ATOM     49  H14 1AU d   1       1.165  28.365  -5.288  0.00  0.00     0.028 H 
ATOM     50  H15 1AU d   1       1.222  27.515  -6.869  0.00  0.00     0.028 H 
ATOM     51  H16 1AU d   1       0.643  26.650  -5.405  0.00  0.00     0.028 H 
ENDBRANCH  43  48
BRANCH  43  52
ATOM     52  CAA 1AU d   1      -1.457  28.153  -4.859  0.00  0.00    -0.064 C 
ATOM     53  H17 1AU d   1      -2.499  28.478  -4.998  0.00  0.00     0.028 H 
ATOM     54  H18 1AU d   1      -0.930  28.876  -4.219  0.00  0.00     0.028 H 
ATOM     55  H19 1AU d   1      -1.442  27.162  -4.382  0.00  0.00     0.028 H 
ENDBRANCH  43  52
ENDBRANCH   3  43
TORSDOF 8
