REMARK  8 active torsions:
REMARK  status: ('A' for Active; 'I' for Inactive)
REMARK    1  A    between atoms: CAX_6  and  NAS_7 
REMARK       I    between atoms: NAS_7  and  CAU_8 
REMARK       I    between atoms: CAU_8  and  NAT_10 
REMARK    2  A    between atoms: NAT_10  and  CAZ_11 
REMARK    3  A    between atoms: CAY_13  and  CBD_14 
REMARK    4  A    between atoms: CBD_14  and  CAB_15 
REMARK    5  A    between atoms: CBD_14  and  CAC_16 
REMARK    6  A    between atoms: CBD_14  and  CAA_17 
REMARK    7  A    between atoms: NBC_19  and  CAW_20 
REMARK    8  A    between atoms: CAV_25  and  NAD_26 
ROOT
ATOM      1  CAZ 1AW d   1      -1.310  31.103  -7.156  0.00  0.00     0.135 A 
ATOM      2  CAQ 1AW d   1      -1.838  30.023  -6.588  0.00  0.00    -0.012 A 
ATOM      3  CAY 1AW d   1      -0.793  29.267  -6.256  0.00  0.00     0.066 A 
ATOM      4  NAR 1AW d   1       0.317  29.874  -6.626  0.00  0.00    -0.169 NA
ATOM      5  NBC 1AW d   1       0.016  30.942  -7.157  0.00  0.00    -0.217 N 
ATOM      6  H8  1AW d   1      -2.893  29.805  -6.429  0.00  0.00     0.092 H 
ENDROOT
BRANCH   1   7
ATOM      7  NAT 1AW d   1      -1.996  32.147  -7.678  0.00  0.00    -0.293 N 
ATOM      8  CAU 1AW d   1      -3.036  32.799  -7.127  0.00  0.00     0.326 C 
ATOM      9  NAS 1AW d   1      -3.513  33.785  -7.902  0.00  0.00    -0.309 N 
ATOM     10  OAE 1AW d   1      -3.493  32.536  -6.007  0.00  0.00    -0.247 OA
ATOM     11  H6  1AW d   1      -3.061  33.926  -8.783  0.00  0.00     0.170 HD
ATOM     12  H7  1AW d   1      -1.696  32.470  -8.575  0.00  0.00     0.172 HD
BRANCH   9  13
ATOM     13  CAX 1AW d   1      -4.531  34.594  -7.610  0.00  0.00     0.036 A 
ATOM     14  CBB 1AW d   1      -5.181  35.255  -8.654  0.00  0.00    -0.057 A 
ATOM     15  CBA 1AW d   1      -6.259  36.118  -8.389  0.00  0.00    -0.081 A 
ATOM     16  H1  1AW d   1      -4.852  35.102  -9.676  0.00  0.00     0.086 H 
ATOM     17  CAN 1AW d   1      -6.701  36.322  -7.072  0.00  0.00    -0.083 A 
ATOM     18  H2  1AW d   1      -6.752  36.630  -9.207  0.00  0.00     0.083 H 
ATOM     19  CAI 1AW d   1      -6.047  35.666  -6.031  0.00  0.00    -0.081 A 
ATOM     20  H3  1AW d   1      -7.538  36.980  -6.868  0.00  0.00     0.083 H 
ATOM     21  CAL 1AW d   1      -4.973  34.805  -6.299  0.00  0.00    -0.057 A 
ATOM     22  H4  1AW d   1      -6.370  35.822  -5.008  0.00  0.00     0.083 H 
ATOM     23  H5  1AW d   1      -4.479  34.296  -5.480  0.00  0.00     0.086 H 
ENDBRANCH   9  13
ENDBRANCH   1   7
BRANCH   5  24
ATOM     24  CAW 1AW d   1       0.939  31.776  -7.661  0.00  0.00     0.062 A 
ATOM     25  CAP 1AW d   1       0.969  33.157  -7.377  0.00  0.00    -0.030 A 
ATOM     26  CAV 1AW d   1       1.975  33.956  -7.946  0.00  0.00     0.027 A 
ATOM     27  H18 1AW d   1       0.223  33.598  -6.726  0.00  0.00     0.090 H 
ATOM     28  CAJ 1AW d   1       2.920  33.371  -8.783  0.00  0.00    -0.058 A 
ATOM     29  CAH 1AW d   1       2.897  32.007  -9.076  0.00  0.00    -0.079 A 
ATOM     30  H21 1AW d   1       3.695  33.991  -9.219  0.00  0.00     0.086 H 
ATOM     31  CAK 1AW d   1       1.905  31.214  -8.520  0.00  0.00    -0.055 A 
ATOM     32  H20 1AW d   1       3.645  31.573  -9.730  0.00  0.00     0.083 H 
ATOM     33  H19 1AW d   1       1.872  30.155  -8.747  0.00  0.00     0.087 H 
BRANCH  26  34
ATOM     34  NAD 1AW d   1       2.051  35.270  -7.699  0.00  0.00    -0.399 N 
ATOM     35  H22 1AW d   1       1.359  35.719  -7.082  0.00  0.00     0.156 HD
ATOM     36  H23 1AW d   1       2.801  35.832  -8.126  0.00  0.00     0.156 HD
ENDBRANCH  26  34
ENDBRANCH   5  24
BRANCH   3  37
ATOM     37  CBD 1AW d   1      -0.849  27.895  -5.555  0.00  0.00    -0.005 C 
BRANCH  37  38
ATOM     38  CAB 1AW d   1      -1.929  27.095  -6.272  0.00  0.00    -0.064 C 
ATOM     39  H9  1AW d   1      -2.014  26.100  -5.812  0.00  0.00     0.028 H 
ATOM     40  H10 1AW d   1      -1.661  26.986  -7.333  0.00  0.00     0.028 H 
ATOM     41  H11 1AW d   1      -2.891  27.621  -6.189  0.00  0.00     0.028 H 
ENDBRANCH  37  38
BRANCH  37  42
ATOM     42  CAC 1AW d   1       0.512  27.209  -5.621  0.00  0.00    -0.064 C 
ATOM     43  H12 1AW d   1       1.257  27.821  -5.092  0.00  0.00     0.028 H 
ATOM     44  H13 1AW d   1       0.813  27.092  -6.673  0.00  0.00     0.028 H 
ATOM     45  H14 1AW d   1       0.447  26.219  -5.146  0.00  0.00     0.028 H 
ENDBRANCH  37  42
BRANCH  37  46
ATOM     46  CAA 1AW d   1      -1.204  28.014  -4.075  0.00  0.00    -0.064 C 
ATOM     47  H15 1AW d   1      -2.183  28.505  -3.971  0.00  0.00     0.028 H 
ATOM     48  H16 1AW d   1      -0.437  28.612  -3.561  0.00  0.00     0.028 H 
ATOM     49  H17 1AW d   1      -1.248  27.011  -3.627  0.00  0.00     0.028 H 
ENDBRANCH  37  46
ENDBRANCH   3  37
TORSDOF 8
