REMARK  11 active torsions:
REMARK  status: ('A' for Active; 'I' for Inactive)
REMARK    1  A    between atoms: NAY_32  and  C6_3 
REMARK    2  A    between atoms: CBA_7  and  CAA_6 
REMARK    3  A    between atoms: NBK_13  and  CBE_12 
REMARK    4  A    between atoms: CBF_15  and  CBL_16 
REMARK    5  A    between atoms: CBL_16  and  CAC_17 
REMARK    6  A    between atoms: CBL_16  and  CAD_18 
REMARK    7  A    between atoms: CBL_16  and  CAB_19 
REMARK    8  A    between atoms: NAX_22  and  CBG_21 
REMARK       I    between atoms: CAZ_23  and  NAX_22 
REMARK       I    between atoms: NAW_25  and  CAZ_23 
REMARK    9  A    between atoms: CBC_26  and  NAW_25 
REMARK   10  A    between atoms: CBD_31  and  NAY_32 
REMARK   11  A    between atoms: CBB_34  and  NAE_35 
ROOT
ATOM      1  NAX 1BU d   1       2.252  32.412   8.633  0.00  0.00    -0.293 N 
ATOM      2  CAZ 1BU d   1       3.367  32.971   8.143  0.00  0.00     0.326 C 
ATOM      3  OAF 1BU d   1       3.910  32.554   7.123  0.00  0.00    -0.247 OA
ATOM      4  NAW 1BU d   1       3.866  34.032   8.824  0.00  0.00    -0.309 N 
ATOM      5  H18 1BU d   1       1.875  32.816   9.467  0.00  0.00     0.172 HD
ATOM      6  H19 1BU d   1       3.361  34.324   9.636  0.00  0.00     0.170 HD
ENDROOT
BRANCH   1   7
ATOM      7  CBG 1BU d   1       1.595  31.373   8.121  0.00  0.00     0.135 A 
ATOM      8  NBK 1BU d   1       0.257  31.164   8.188  0.00  0.00    -0.217 N 
ATOM      9  NAV 1BU d   1      -0.054  30.112   7.605  0.00  0.00    -0.169 NA
ATOM     10  CBF 1BU d   1       1.076  29.561   7.160  0.00  0.00     0.066 A 
ATOM     11  CAR 1BU d   1       2.136  30.336   7.491  0.00  0.00    -0.012 A 
ATOM     12  H17 1BU d   1       3.190  30.152   7.287  0.00  0.00     0.092 H 
BRANCH   8  13
ATOM     13  CBE 1BU d   1      -0.661  31.986   8.734  0.00  0.00     0.061 A 
ATOM     14  CAQ 1BU d   1      -0.630  33.355   8.476  0.00  0.00    -0.049 A 
ATOM     15  CBA 1BU d   1      -1.581  34.218   9.017  0.00  0.00    -0.060 A 
ATOM     16  H4  1BU d   1       0.151  33.757   7.841  0.00  0.00     0.087 H 
ATOM     17  CAI 1BU d   1      -2.598  33.694   9.818  0.00  0.00    -0.077 A 
ATOM     18  CAG 1BU d   1      -2.659  32.340  10.076  0.00  0.00    -0.080 A 
ATOM     19  H5  1BU d   1      -3.345  34.356  10.240  0.00  0.00     0.084 H 
ATOM     20  CAJ 1BU d   1      -1.692  31.495   9.519  0.00  0.00    -0.055 A 
ATOM     21  H6  1BU d   1      -3.446  31.936  10.702  0.00  0.00     0.083 H 
ATOM     22  H7  1BU d   1      -1.751  30.429   9.707  0.00  0.00     0.087 H 
BRANCH  15  23
ATOM     23  CAA 1BU d   1      -1.498  35.756   8.707  0.00  0.00    -0.051 C 
ATOM     24  H1  1BU d   1      -0.628  35.954   8.063  0.00  0.00     0.033 H 
ATOM     25  H2  1BU d   1      -1.392  36.315   9.649  0.00  0.00     0.033 H 
ATOM     26  H3  1BU d   1      -2.416  36.076   8.192  0.00  0.00     0.033 H 
ENDBRANCH  15  23
ENDBRANCH   8  13
BRANCH  10  27
ATOM     27  CBL 1BU d   1       1.135  28.204   6.414  0.00  0.00    -0.005 C 
BRANCH  27  28
ATOM     28  CAC 1BU d   1      -0.316  27.706   6.236  0.00  0.00    -0.064 C 
ATOM     29  H8  1BU d   1      -0.310  26.741   5.708  0.00  0.00     0.028 H 
ATOM     30  H9  1BU d   1      -0.887  28.441   5.650  0.00  0.00     0.028 H 
ATOM     31  H10 1BU d   1      -0.784  27.581   7.223  0.00  0.00     0.028 H 
ENDBRANCH  27  28
BRANCH  27  32
ATOM     32  CAD 1BU d   1       1.831  28.307   5.035  0.00  0.00    -0.064 C 
ATOM     33  H11 1BU d   1       2.863  28.662   5.171  0.00  0.00     0.028 H 
ATOM     34  H12 1BU d   1       1.280  29.015   4.398  0.00  0.00     0.028 H 
ATOM     35  H13 1BU d   1       1.844  27.317   4.556  0.00  0.00     0.028 H 
ENDBRANCH  27  32
BRANCH  27  36
ATOM     36  CAB 1BU d   1       1.973  27.228   7.285  0.00  0.00    -0.064 C 
ATOM     37  H14 1BU d   1       1.507  27.129   8.277  0.00  0.00     0.028 H 
ATOM     38  H15 1BU d   1       2.994  27.621   7.397  0.00  0.00     0.028 H 
ATOM     39  H16 1BU d   1       2.011  26.242   6.798  0.00  0.00     0.028 H 
ENDBRANCH  27  36
ENDBRANCH  10  27
ENDBRANCH   1   7
BRANCH   4  40
ATOM     40  CBC 1BU d   1       4.987  34.740   8.512  0.00  0.00     0.036 A 
ATOM     41  CAL 1BU d   1       5.036  36.125   8.734  0.00  0.00    -0.055 A 
ATOM     42  CAN 1BU d   1       6.194  36.866   8.412  0.00  0.00    -0.055 A 
ATOM     43  H20 1BU d   1       4.176  36.631   9.157  0.00  0.00     0.087 H 
ATOM     44  CBD 1BU d   1       7.333  36.264   7.884  0.00  0.00     0.033 A 
ATOM     45  H21 1BU d   1       6.196  37.937   8.581  0.00  0.00     0.087 H 
ATOM     46  CAM 1BU d   1       7.284  34.873   7.685  0.00  0.00    -0.055 A 
ATOM     47  CAK 1BU d   1       6.143  34.119   7.994  0.00  0.00    -0.055 A 
ATOM     48  H23 1BU d   1       8.154  34.369   7.281  0.00  0.00     0.087 H 
ATOM     49  H22 1BU d   1       6.149  33.047   7.833  0.00  0.00     0.087 H 
BRANCH  44  50
ATOM     50  NAY 1BU d   1       8.429  37.011   7.589  0.00  0.00    -0.340 N 
ATOM     51  H24 1BU d   1       8.318  38.035   7.584  0.00  0.00     0.167 HD
BRANCH  50  52
ATOM     52  C6  1BU d   1       9.672  36.508   7.297  0.00  0.00     0.142 A 
ATOM     53  C5  1BU d   1      10.581  37.174   6.445  0.00  0.00     0.041 A 
ATOM     54  C4  1BU d   1      11.858  36.588   6.217  0.00  0.00     0.072 A 
ATOM     55  CAS 1BU d   1      10.261  38.383   5.830  0.00  0.00    -0.042 A 
ATOM     56  N3  1BU d   1      12.171  35.395   6.783  0.00  0.00    -0.241 NA
ATOM     57  CAP 1BU d   1      12.798  37.191   5.379  0.00  0.00    -0.052 A 
ATOM     58  C2  1BU d   1      11.293  34.779   7.575  0.00  0.00     0.089 A 
ATOM     59  N1  1BU d   1      10.098  35.324   7.834  0.00  0.00    -0.224 NA
ATOM     60  H30 1BU d   1      11.551  33.823   8.016  0.00  0.00     0.146 H 
ATOM     61  CAO 1BU d   1      12.465  38.390   4.768  0.00  0.00    -0.056 A 
ATOM     62  H29 1BU d   1      13.766  36.732   5.210  0.00  0.00     0.087 H 
ATOM     63  CBB 1BU d   1      11.213  38.977   4.995  0.00  0.00     0.026 A 
ATOM     64  H28 1BU d   1      13.177  38.876   4.111  0.00  0.00     0.087 H 
ATOM     65  H25 1BU d   1       9.298  38.852   5.995  0.00  0.00     0.088 H 
BRANCH  63  66
ATOM     66  NAE 1BU d   1      10.936  40.139   4.407  0.00  0.00    -0.399 N 
ATOM     67  H26 1BU d   1      11.632  40.583   3.791  0.00  0.00     0.156 HD
ATOM     68  H27 1BU d   1      10.026  40.594   4.569  0.00  0.00     0.156 HD
ENDBRANCH  63  66
ENDBRANCH  50  52
ENDBRANCH  44  50
ENDBRANCH   4  40
TORSDOF 11
