REMARK  16 active torsions:
REMARK  status: ('A' for Active; 'I' for Inactive)
REMARK    1  A    between atoms: C1_1  and  O11_11 
REMARK    2  A    between atoms: C2_2  and  O12_12 
REMARK    3  A    between atoms: C10_10  and  N17_17 
REMARK    4  A    between atoms: O11_11  and  C16_16 
REMARK    5  A    between atoms: O12_12  and  C13_13 
REMARK    6  A    between atoms: C13_13  and  C14_14 
REMARK    7  A    between atoms: C14_14  and  C15_15 
REMARK    8  A    between atoms: C15_15  and  N34_34 
REMARK    9  A    between atoms: N17_17  and  C18_18 
REMARK   10  A    between atoms: C21_21  and  S25_25 
REMARK   11  A    between atoms: S25_25  and  C26_26 
REMARK   12  A    between atoms: N30_30  and  C31_31 
REMARK   13  A    between atoms: N34_34  and  C35_35 
REMARK   14  A    between atoms: N34_34  and  C36_36 
REMARK   15  A    between atoms: C35_35  and  C37_37 
REMARK   16  A    between atoms: C37_37  and  O38_38 
ROOT
ATOM      1  C1  741 d   1      84.218  51.790 148.112  0.00  0.00     0.102 A 
ATOM      2  C2  741 d   1      84.592  52.529 146.969  0.00  0.00     0.104 A 
ATOM      3  C3  741 d   1      83.738  52.600 145.850  0.00  0.00    -0.019 A 
ATOM      4  C4  741 d   1      82.497  51.950 145.891  0.00  0.00     0.071 A 
ATOM      5  C5  741 d   1      82.092  51.212 147.064  0.00  0.00     0.024 A 
ATOM      6  C6  741 d   1      82.967  51.150 148.166  0.00  0.00    -0.034 A 
ATOM      7  N7  741 d   1      81.668  52.026 144.801  0.00  0.00    -0.259 NA
ATOM      8  C8  741 d   1      80.490  51.419 144.816  0.00  0.00     0.025 A 
ATOM      9  C9  741 d   1      80.032  50.684 145.921  0.00  0.00     0.089 A 
ATOM     10  C10 741 d   1      80.817  50.567 147.088  0.00  0.00     0.067 A 
ATOM     11  C32 741 d   1      78.708  50.159 145.803  0.00  0.00     0.103 C 
ATOM     12  N33 741 d   1      77.592  49.852 145.756  0.00  0.00    -0.191 NA
ATOM     13  H1  741 d   1      84.038  53.152 144.966  0.00  0.00     0.091 H 
ATOM     14  H2  741 d   1      82.675  50.608 149.058  0.00  0.00     0.089 H 
ATOM     15  H3  741 d   1      79.855  51.493 143.940  0.00  0.00     0.117 H 
ENDROOT
BRANCH  10  16
ATOM     16  N17 741 d   1      80.442  49.853 148.228  0.00  0.00    -0.354 N 
ATOM     17  H13 741 d   1      80.710  50.234 149.147  0.00  0.00     0.166 HD
BRANCH  16  18
ATOM     18  C18 741 d   1      79.732  48.665 148.199  0.00  0.00     0.034 A 
ATOM     19  C19 741 d   1      78.772  48.413 149.199  0.00  0.00    -0.056 A 
ATOM     20  C20 741 d   1      78.016  47.227 149.216  0.00  0.00    -0.062 A 
ATOM     21  H14 741 d   1      78.612  49.152 149.975  0.00  0.00     0.087 H 
ATOM     22  C21 741 d   1      78.213  46.271 148.218  0.00  0.00     0.030 A 
ATOM     23  H15 741 d   1      77.285  47.056 149.999  0.00  0.00     0.085 H 
ATOM     24  C22 741 d   1      79.165  46.515 147.219  0.00  0.00     0.053 A 
ATOM     25  C23 741 d   1      79.924  47.696 147.196  0.00  0.00    -0.035 A 
ATOM     26 CL24 741 d   1      79.391  45.306 145.993  0.00  0.00    -0.083 Cl
ATOM     27  H16 741 d   1      80.653  47.861 146.411  0.00  0.00     0.089 H 
BRANCH  22  28
ATOM     28  S25 741 d   1      77.243  44.758 148.240  0.00  0.00    -0.051 SA
BRANCH  28  29
ATOM     29  C26 741 d   1      75.952  45.059 149.442  0.00  0.00     0.172 A 
ATOM     30  N27 741 d   1      76.129  44.891 150.764  0.00  0.00    -0.235 NA
ATOM     31  C28 741 d   1      74.920  45.284 151.250  0.00  0.00     0.020 A 
ATOM     32  C29 741 d   1      74.081  45.669 150.180  0.00  0.00    -0.002 A 
ATOM     33  H17 741 d   1      74.642  45.299 152.303  0.00  0.00     0.117 H 
ATOM     34  N30 741 d   1      74.774  45.532 149.018  0.00  0.00    -0.339 N 
ATOM     35  H18 741 d   1      73.053  46.017 150.271  0.00  0.00     0.113 H 
BRANCH  34  36
ATOM     36  C31 741 d   1      74.350  45.783 147.640  0.00  0.00    -0.013 C 
ATOM     37  H19 741 d   1      75.181  45.562 146.954  0.00  0.00     0.057 H 
ATOM     38  H20 741 d   1      74.057  46.838 147.533  0.00  0.00     0.057 H 
ATOM     39  H21 741 d   1      73.493  45.138 147.397  0.00  0.00     0.057 H 
ENDBRANCH  34  36
ENDBRANCH  28  29
ENDBRANCH  22  28
ENDBRANCH  16  18
ENDBRANCH  10  16
BRANCH   1  40
ATOM     40  O11 741 d   1      85.018  51.690 149.250  0.00  0.00    -0.353 OA
BRANCH  40  41
ATOM     41  C16 741 d   1      85.696  52.891 149.606  0.00  0.00     0.010 C 
ATOM     42  H10 741 d   1      86.299  52.718 150.510  0.00  0.00     0.066 H 
ATOM     43  H11 741 d   1      84.959  53.684 149.803  0.00  0.00     0.066 H 
ATOM     44  H12 741 d   1      86.354  53.199 148.780  0.00  0.00     0.066 H 
ENDBRANCH  40  41
ENDBRANCH   1  40
BRANCH   2  45
ATOM     45  O12 741 d   1      85.861  53.104 146.964  0.00  0.00    -0.348 OA
BRANCH  45  46
ATOM     46  C13 741 d   1      86.600  53.422 145.780  0.00  0.00     0.028 C 
ATOM     47  H4  741 d   1      85.959  53.407 144.887  0.00  0.00     0.075 H 
ATOM     48  H5  741 d   1      87.447  52.735 145.635  0.00  0.00     0.075 H 
BRANCH  46  49
ATOM     49  C14 741 d   1      87.077  54.847 146.110  0.00  0.00    -0.022 C 
ATOM     50  H6  741 d   1      86.275  55.519 145.772  0.00  0.00     0.038 H 
ATOM     51  H7  741 d   1      87.976  55.013 145.499  0.00  0.00     0.038 H 
BRANCH  49  52
ATOM     52  C15 741 d   1      87.443  55.310 147.531  0.00  0.00     0.085 C 
ATOM     53  H8  741 d   1      87.703  54.448 148.163  0.00  0.00     0.076 H 
ATOM     54  H9  741 d   1      86.605  55.859 147.986  0.00  0.00     0.076 H 
BRANCH  52  55
ATOM     55  N34 741 d   1      88.615  56.200 147.357  0.00  0.00    -0.073 N 
ATOM     56  H22 741 d   1      88.544  56.388 146.369  0.00  0.00     0.279 HD
BRANCH  55  57
ATOM     57  C35 741 d   1      88.550  57.580 147.884  0.00  0.00     0.102 C 
ATOM     58  H23 741 d   1      88.170  57.548 148.916  0.00  0.00     0.079 H 
ATOM     59  H24 741 d   1      87.862  58.167 147.257  0.00  0.00     0.079 H 
BRANCH  57  60
ATOM     60  C37 741 d   1      89.933  58.267 147.884  0.00  0.00     0.039 C 
ATOM     61  H28 741 d   1      89.800  59.334 148.118  0.00  0.00     0.076 H 
ATOM     62  H29 741 d   1      90.381  58.164 146.885  0.00  0.00     0.076 H 
BRANCH  60  63
ATOM     63  O38 741 d   1      90.825  57.685 148.856  0.00  0.00    -0.399 OA
ATOM     64  H30 741 d   1      91.662  58.134 148.825  0.00  0.00     0.209 HD
ENDBRANCH  60  63
ENDBRANCH  57  60
ENDBRANCH  55  57
BRANCH  55  65
ATOM     65  C36 741 d   1      89.938  55.550 147.410  0.00  0.00     0.066 C 
ATOM     66  H25 741 d   1      89.865  54.534 146.994  0.00  0.00     0.068 H 
ATOM     67  H26 741 d   1      90.278  55.494 148.455  0.00  0.00     0.068 H 
ATOM     68  H27 741 d   1      90.659  56.136 146.821  0.00  0.00     0.068 H 
ENDBRANCH  55  65
ENDBRANCH  52  55
ENDBRANCH  49  52
ENDBRANCH  46  49
ENDBRANCH  45  46
ENDBRANCH   2  45
TORSDOF 16
