REMARK  5 active torsions:
REMARK  status: ('A' for Active; 'I' for Inactive)
REMARK    1  A    between atoms: C7_7  and  C4_4 
REMARK    2  A    between atoms: C5_5  and  O13_20 
REMARK    3  A    between atoms: C12_10  and  C14_17 
REMARK    4  A    between atoms: N22_13  and  C18_11 
REMARK    5  A    between atoms: N23_26  and  C28_27 
ROOT
ATOM      1  C7  IHX d   1      -1.562 -23.276  29.637  0.00  0.00     0.006 A 
ATOM      2  C8  IHX d   1      -0.894 -24.072  28.719  0.00  0.00     0.099 A 
ATOM      3  C11 IHX d   1      -2.404 -23.880  30.560  0.00  0.00    -0.055 A 
ATOM      4  C12 IHX d   1      -2.570 -25.261  30.560  0.00  0.00     0.051 A 
ATOM      5  C18 IHX d   1       0.615 -24.338  26.913  0.00  0.00     0.144 A 
ATOM      6  C19 IHX d   1       0.448 -25.709  27.032  0.00  0.00     0.047 A 
ATOM      7  C10 IHX d   1      -1.897 -26.045  29.689  0.00  0.00    -0.038 A 
ATOM      8  C9  IHX d   1      -1.055 -25.460  28.776  0.00  0.00     0.087 A 
ATOM      9  N21 IHX d   1      -0.380 -26.280  27.943  0.00  0.00    -0.255 NA
ATOM     10  N20 IHX d   1      -0.050 -23.513  27.781  0.00  0.00    -0.227 NA
ATOM     11  H5  IHX d   1      -2.935 -23.273  31.284  0.00  0.00     0.086 H 
ATOM     12  H6  IHX d   1       1.006 -26.356  26.365  0.00  0.00     0.120 H 
ATOM     13  H12 IHX d   1      -2.020 -27.122  29.711  0.00  0.00     0.088 H 
ENDROOT
BRANCH   5  14
ATOM     14  N22 IHX d   1       1.425 -23.720  25.960  0.00  0.00    -0.361 N 
ATOM     15  C27 IHX d   1       1.520 -22.246  25.929  0.00  0.00     0.019 C 
ATOM     16  C25 IHX d   1       2.781 -21.677  25.240  0.00  0.00     0.098 C 
ATOM     17  H9  IHX d   1       1.508 -21.883  26.967  0.00  0.00     0.066 H 
ATOM     18  H10 IHX d   1       0.639 -21.860  25.396  0.00  0.00     0.066 H 
ATOM     19  N23 IHX d   1       3.236 -22.464  24.073  0.00  0.00    -0.072 N 
ATOM     20  H13 IHX d   1       3.596 -21.650  25.978  0.00  0.00     0.078 H 
ATOM     21  H14 IHX d   1       2.559 -20.654  24.902  0.00  0.00     0.078 H 
ATOM     22  C24 IHX d   1       3.404 -23.882  24.420  0.00  0.00     0.098 C 
ATOM     23  H15 IHX d   1       2.554 -22.382  23.335  0.00  0.00     0.279 HD
ATOM     24  C26 IHX d   1       2.068 -24.468  24.850  0.00  0.00     0.019 C 
ATOM     25  H7  IHX d   1       4.125 -23.973  25.245  0.00  0.00     0.078 H 
ATOM     26  H8  IHX d   1       3.778 -24.431  23.543  0.00  0.00     0.078 H 
ATOM     27  H19 IHX d   1       1.389 -24.459  23.985  0.00  0.00     0.066 H 
ATOM     28  H20 IHX d   1       2.232 -25.505  25.177  0.00  0.00     0.066 H 
BRANCH  19  29
ATOM     29  C28 IHX d   1       4.528 -21.942  23.609  0.00  0.00     0.066 C 
ATOM     30  H16 IHX d   1       4.869 -22.526  22.741  0.00  0.00     0.068 H 
ATOM     31  H17 IHX d   1       5.268 -22.023  24.419  0.00  0.00     0.068 H 
ATOM     32  H18 IHX d   1       4.415 -20.887  23.320  0.00  0.00     0.068 H 
ENDBRANCH  19  29
ENDBRANCH   5  14
BRANCH   1  33
ATOM     33  C4  IHX d   1      -1.474 -21.815  29.676  0.00  0.00    -0.021 A 
ATOM     34  C2  IHX d   1      -1.335 -21.217  30.919  0.00  0.00    -0.072 A 
ATOM     35  C1  IHX d   1      -1.273 -19.840  31.032  0.00  0.00    -0.080 A 
ATOM     36  H2  IHX d   1      -1.274 -21.833  31.809  0.00  0.00     0.084 H 
ATOM     37  C3  IHX d   1      -1.318 -19.068  29.883  0.00  0.00    -0.051 A 
ATOM     38  H1  IHX d   1      -1.190 -19.372  32.006  0.00  0.00     0.083 H 
ATOM     39  C5  IHX d   1      -1.434 -19.675  28.633  0.00  0.00     0.066 A 
ATOM     40  H3  IHX d   1      -1.263 -17.988  29.956  0.00  0.00     0.087 H 
ATOM     41  C6  IHX d   1      -1.514 -21.062  28.516  0.00  0.00    -0.040 A 
ATOM     42  H4  IHX d   1      -1.605 -21.536  27.545  0.00  0.00     0.089 H 
BRANCH  39  43
ATOM     43  O13 IHX d   1      -1.464 -18.911  27.514  0.00  0.00    -0.361 OA
ATOM     44  H11 IHX d   1      -0.733 -19.143  26.954  0.00  0.00     0.217 HD
ENDBRANCH  39  43
ENDBRANCH   1  33
BRANCH   4  45
ATOM     45  C14 IHX d   1      -3.443 -25.877  31.618  0.00  0.00     0.417 C 
ATOM     46  F17 IHX d   1      -4.553 -25.188  31.805  0.00  0.00    -0.166 F 
ATOM     47  F15 IHX d   1      -2.763 -25.779  32.771  0.00  0.00    -0.166 F 
ATOM     48  F16 IHX d   1      -3.773 -27.145  31.394  0.00  0.00    -0.166 F 
ENDBRANCH   4  45
TORSDOF 5
