REMARK  7 active torsions:
REMARK  status: ('A' for Active; 'I' for Inactive)
REMARK    1  A    between atoms: CAR_1  and  OAV_2 
REMARK    2  A    between atoms: OAV_2  and  CAY_3 
REMARK    3  A    between atoms: CAY_3  and  CBM_5 
REMARK    4  A    between atoms: CBM_5  and  OAE_6 
REMARK    5  A    between atoms: CBL_8  and  NBJ_22 
REMARK    6  A    between atoms: CBN_10  and  CAB_11 
REMARK    7  A    between atoms: CBN_10  and  NBK_12 
ROOT
ATOM      1  CBM XDR d   1     -45.457 -48.002   3.374  0.00  0.00     0.199 C 
ATOM      2  CAT XDR d   1     -46.103 -48.284   4.743  0.00  0.00     0.019 C 
ATOM      3  CBL XDR d   1     -45.192 -47.742   5.847  0.00  0.00     0.117 C 
ATOM      4  OAW XDR d   1     -44.427 -46.743   5.198  0.00  0.00    -0.332 OA
ATOM      5  CBN XDR d   1     -45.076 -46.556   3.929  0.00  0.00     0.181 C 
ATOM      6  H5  XDR d   1     -46.234 -49.368   4.872  0.00  0.00     0.045 H 
ATOM      7  H6  XDR d   1     -47.083 -47.788   4.797  0.00  0.00     0.045 H 
ATOM      8  H7  XDR d   1     -44.561 -48.491   6.348  0.00  0.00     0.118 H 
ENDROOT
BRANCH   1   9
ATOM      9  CAY XDR d   1     -44.048 -48.485   3.100  0.00  0.00     0.298 C 
ATOM     10  OAD XDR d   1     -43.593 -48.437   1.959  0.00  0.00    -0.262 OA
BRANCH   9  11
ATOM     11  OAV XDR d   1     -43.373 -49.131   4.098  0.00  0.00    -0.324 OA
BRANCH  11  12
ATOM     12  CAR XDR d   1     -42.094 -49.832   3.787  0.00  0.00     0.013 C 
ATOM     13  H1  XDR d   1     -41.695 -50.291   4.704  0.00  0.00     0.067 H 
ATOM     14  H2  XDR d   1     -41.365 -49.108   3.393  0.00  0.00     0.067 H 
ATOM     15  H3  XDR d   1     -42.278 -50.614   3.035  0.00  0.00     0.067 H 
ENDBRANCH  11  12
ENDBRANCH   9  11
ENDBRANCH   1   9
BRANCH   1  16
ATOM     16  OAE XDR d   1     -46.173 -47.423   2.300  0.00  0.00    -0.375 OA
ATOM     17  H4  XDR d   1     -46.258 -48.058   1.599  0.00  0.00     0.211 HD
ENDBRANCH   1  16
BRANCH   5  18
ATOM     18  CAB XDR d   1     -44.070 -45.777   3.080  0.00  0.00    -0.027 C 
ATOM     19  H8  XDR d   1     -43.876 -44.800   3.546  0.00  0.00     0.034 H 
ATOM     20  H9  XDR d   1     -44.481 -45.627   2.071  0.00  0.00     0.034 H 
ATOM     21  H10 XDR d   1     -43.130 -46.344   3.013  0.00  0.00     0.034 H 
ENDBRANCH   5  18
BRANCH   5  22
ATOM     22  NBK XDR d   1     -46.224 -45.578   4.160  0.00  0.00    -0.307 N 
ATOM     23  CBE XDR d   1     -46.587 -44.644   3.274  0.00  0.00     0.049 A 
ATOM     24  CAM XDR d   1     -46.109 -44.332   2.010  0.00  0.00    -0.056 A 
ATOM     25  CBB XDR d   1     -47.659 -43.909   3.800  0.00  0.00     0.004 A 
ATOM     26  CAI XDR d   1     -46.694 -43.285   1.294  0.00  0.00    -0.081 A 
ATOM     27  H11 XDR d   1     -45.288 -44.896   1.581  0.00  0.00     0.087 H 
ATOM     28  CAF XDR d   1     -47.757 -42.562   1.832  0.00  0.00    -0.082 A 
ATOM     29  H12 XDR d   1     -46.317 -43.032   0.309  0.00  0.00     0.083 H 
ATOM     30  CAJ XDR d   1     -48.249 -42.872   3.097  0.00  0.00    -0.070 A 
ATOM     31  H13 XDR d   1     -48.203 -41.754   1.263  0.00  0.00     0.083 H 
ATOM     32  H14 XDR d   1     -49.075 -42.314   3.522  0.00  0.00     0.084 H 
ATOM     33  CBF XDR d   1     -47.929 -44.434   5.048  0.00  0.00     0.015 A 
ATOM     34  CBI XDR d   1     -47.009 -45.456   5.225  0.00  0.00     0.077 A 
ATOM     35  CAZ XDR d   1     -48.856 -44.145   6.062  0.00  0.00    -0.010 A 
ATOM     36  CBH XDR d   1     -47.039 -46.175   6.392  0.00  0.00     0.077 A 
ATOM     37  NBJ XDR d   1     -46.239 -47.182   6.716  0.00  0.00    -0.316 N 
ATOM     38  CBG XDR d   1     -47.964 -45.891   7.404  0.00  0.00     0.022 A 
ATOM     39  CBD XDR d   1     -46.615 -47.624   7.925  0.00  0.00     0.048 A 
ATOM     40  CAL XDR d   1     -46.125 -48.662   8.711  0.00  0.00    -0.056 A 
ATOM     41  CBC XDR d   1     -47.689 -46.836   8.386  0.00  0.00     0.004 A 
ATOM     42  CAH XDR d   1     -46.718 -48.952   9.932  0.00  0.00    -0.081 A 
ATOM     43  H15 XDR d   1     -45.278 -49.246   8.369  0.00  0.00     0.087 H 
ATOM     44  CAG XDR d   1     -47.778 -48.177  10.384  0.00  0.00    -0.082 A 
ATOM     45  H16 XDR d   1     -46.355 -49.780  10.530  0.00  0.00     0.083 H 
ATOM     46  CAK XDR d   1     -48.253 -47.101   9.629  0.00  0.00    -0.070 A 
ATOM     47  H17 XDR d   1     -48.243 -48.410  11.335  0.00  0.00     0.083 H 
ATOM     48  H18 XDR d   1     -49.054 -46.478  10.009  0.00  0.00     0.084 H 
ATOM     49  CBA XDR d   1     -48.900 -44.866   7.248  0.00  0.00     0.054 A 
ATOM     50  CAX XDR d   1     -49.942 -44.311   8.026  0.00  0.00     0.253 A 
ATOM     51  NAU XDR d   1     -50.553 -43.291   7.393  0.00  0.00    -0.353 N 
ATOM     52  OAC XDR d   1     -50.321 -44.700   9.153  0.00  0.00    -0.268 OA
ATOM     53  CAS XDR d   1     -49.924 -43.065   6.090  0.00  0.00     0.021 A 
ATOM     54  H21 XDR d   1     -51.322 -42.766   7.758  0.00  0.00     0.163 HD
ATOM     55  H19 XDR d   1     -50.646 -43.195   5.270  0.00  0.00     0.071 H 
ATOM     56  H20 XDR d   1     -49.479 -42.061   6.030  0.00  0.00     0.071 H 
ENDBRANCH   5  22
TORSDOF 7
