REMARK  6 active torsions:
REMARK  status: ('A' for Active; 'I' for Inactive)
REMARK    1  A    between atoms: N_1  and  CA_2 
REMARK    2  A    between atoms: CA_2  and  C_3 
REMARK    3  A    between atoms: CA_2  and  CB_5 
REMARK    4  A    between atoms: CB_5  and  CG1_6 
REMARK    5  A    between atoms: CB_5  and  CG2_7 
REMARK    6  A    between atoms: CG1_6  and  CD1_8 
ROOT
ATOM      1  CB  ILE d   1      34.380  29.200  -2.596  0.00  0.00    -0.021 C 
ATOM      2  H   ILE d   1      34.905  28.392  -2.087  0.00  0.00     0.043 H 
ENDROOT
BRANCH   1   3
ATOM      3  CA  ILE d   1      34.498  30.477  -1.729  0.00  0.00     0.185 C 
ATOM      4  H   ILE d   1      33.964  31.276  -2.244  0.00  0.00     0.101 H 
BRANCH   3   5
ATOM      5  N   ILE d   1      35.923  30.886  -1.570  0.00  0.00    -0.065 N 
ATOM      6  H   ILE d   1      35.972  31.728  -0.996  0.00  0.00     0.275 HD
ATOM      7  H   ILE d   1      36.443  30.134  -1.118  0.00  0.00     0.275 HD
ATOM      8  H   ILE d   1      36.326  31.075  -2.488  0.00  0.00     0.275 HD
ENDBRANCH   3   5
BRANCH   3   9
ATOM      9  C   ILE d   1      33.859  30.265  -0.359  0.00  0.00     0.204 C 
ATOM     10  O   ILE d   1      32.790  30.806  -0.077  0.00  0.00    -0.646 OA
ATOM     11  OXT ILE d   1      34.401  29.551   0.486  0.00  0.00    -0.646 OA
ENDBRANCH   3   9
ENDBRANCH   1   3
BRANCH   1  12
ATOM     12  CG1 ILE d   1      35.035  29.414  -3.965  0.00  0.00    -0.063 C 
ATOM     13  H   ILE d   1      35.932  30.012  -3.805  0.00  0.00     0.033 H 
ATOM     14  H   ILE d   1      34.295  29.891  -4.607  0.00  0.00     0.033 H 
BRANCH  12  15
ATOM     15  CD1 ILE d   1      35.467  28.123  -4.653  0.00  0.00    -0.076 C 
ATOM     16  H   ILE d   1      36.192  27.604  -4.026  0.00  0.00     0.027 H 
ATOM     17  H   ILE d   1      34.596  27.486  -4.808  0.00  0.00     0.027 H 
ATOM     18  H   ILE d   1      35.921  28.360  -5.615  0.00  0.00     0.027 H 
ENDBRANCH  12  15
ENDBRANCH   1  12
BRANCH   1  19
ATOM     19  CG2 ILE d   1      32.916  28.795  -2.761  0.00  0.00    -0.070 C 
ATOM     20  H   ILE d   1      32.380  29.582  -3.292  0.00  0.00     0.028 H 
ATOM     21  H   ILE d   1      32.859  27.867  -3.330  0.00  0.00     0.028 H 
ATOM     22  H   ILE d   1      32.468  28.648  -1.778  0.00  0.00     0.028 H 
ENDBRANCH   1  19
TORSDOF 6
