REMARK  8 active torsions:
REMARK  status: ('A' for Active; 'I' for Inactive)
REMARK       I    between atoms: C1_2  and  N15_3 
REMARK    1  A    between atoms: C1_2  and  C6_12 
REMARK    2  A    between atoms: N15_3  and  C16_4 
REMARK    3  A    between atoms: C16_4  and  C17_5 
REMARK    4  A    between atoms: C17_5  and  C18_6 
REMARK    5  A    between atoms: C5_14  and  S10_22 
REMARK    6  A    between atoms: C2_17  and  S8_18 
REMARK    7  A    between atoms: S8_18  and  N9_21 
REMARK    8  A    between atoms: S10_22  and  C13_23 
ROOT
ATOM      1  C6  AG5 d   1     -51.033 -62.326   5.285  0.00  0.00     0.069 A 
ATOM      2  C7  AG5 d   1     -49.860 -63.071   5.373  0.00  0.00    -0.041 A 
ATOM      3  C5  AG5 d   1     -50.974 -60.945   5.079  0.00  0.00     0.113 A 
ATOM      4  N4  AG5 d   1     -49.831 -60.319   5.057  0.00  0.00    -0.251 NA
ATOM      5  C3  AG5 d   1     -48.700 -60.994   5.210  0.00  0.00     0.026 A 
ATOM      6  C2  AG5 d   1     -48.695 -62.360   5.397  0.00  0.00     0.097 A 
ATOM      7  H11 AG5 d   1     -49.871 -64.154   5.420  0.00  0.00     0.087 H 
ATOM      8  H12 AG5 d   1     -47.757 -60.459   5.188  0.00  0.00     0.117 H 
ENDROOT
BRANCH   1   9
ATOM      9  C1  AG5 d   1     -52.427 -62.937   5.258  0.00  0.00     0.254 C 
ATOM     10  O14 AG5 d   1     -53.404 -62.271   5.668  0.00  0.00    -0.268 OA
ATOM     11  N15 AG5 d   1     -52.611 -64.186   4.725  0.00  0.00    -0.356 N 
ATOM     12  H1  AG5 d   1     -51.809 -64.667   4.369  0.00  0.00     0.162 HD
BRANCH  11  13
ATOM     13  C16 AG5 d   1     -53.938 -64.876   4.642  0.00  0.00    -0.001 C 
ATOM     14  H2  AG5 d   1     -53.875 -65.684   3.898  0.00  0.00     0.064 H 
ATOM     15  H3  AG5 d   1     -54.701 -64.148   4.329  0.00  0.00     0.064 H 
BRANCH  13  16
ATOM     16  C17 AG5 d   1     -54.344 -65.474   5.996  0.00  0.00    -0.026 C 
ATOM     17  H4  AG5 d   1     -55.051 -66.297   5.816  0.00  0.00     0.042 H 
ATOM     18  H5  AG5 d   1     -54.837 -64.690   6.590  0.00  0.00     0.042 H 
BRANCH  16  19
ATOM     19  C18 AG5 d   1     -53.153 -66.022   6.803  0.00  0.00    -0.057 A 
ATOM     20  C24 AG5 d   1     -52.543 -65.200   7.668  0.00  0.00    -0.077 A 
ATOM     21  C25 AG5 d   1     -51.488 -65.616   8.366  0.00  0.00    -0.082 A 
ATOM     22  H6  AG5 d   1     -52.911 -64.189   7.800  0.00  0.00     0.084 H 
ATOM     23  C26 AG5 d   1     -50.952 -66.852   8.231  0.00  0.00    -0.083 A 
ATOM     24  H7  AG5 d   1     -51.037 -64.933   9.076  0.00  0.00     0.083 H 
ATOM     25  C27 AG5 d   1     -51.554 -67.736   7.382  0.00  0.00    -0.082 A 
ATOM     26  H8  AG5 d   1     -50.064 -67.134   8.785  0.00  0.00     0.083 H 
ATOM     27  C28 AG5 d   1     -52.665 -67.287   6.667  0.00  0.00    -0.077 A 
ATOM     28  H9  AG5 d   1     -51.183 -68.748   7.268  0.00  0.00     0.083 H 
ATOM     29  H10 AG5 d   1     -53.156 -67.967   5.981  0.00  0.00     0.084 H 
ENDBRANCH  16  19
ENDBRANCH  13  16
ENDBRANCH  11  13
ENDBRANCH   1   9
BRANCH   3  30
ATOM     30  S10 AG5 d   1     -52.477 -60.017   4.835  0.00  0.00    -0.070 SA
BRANCH  30  31
ATOM     31  C13 AG5 d   1     -52.082 -58.351   4.535  0.00  0.00     0.007 A 
ATOM     32  C19 AG5 d   1     -51.404 -58.027   3.354  0.00  0.00    -0.066 A 
ATOM     33  C20 AG5 d   1     -51.123 -56.697   3.090  0.00  0.00    -0.082 A 
ATOM     34  H15 AG5 d   1     -51.104 -58.803   2.659  0.00  0.00     0.085 H 
ATOM     35  C21 AG5 d   1     -51.500 -55.709   4.009  0.00  0.00    -0.083 A 
ATOM     36  H16 AG5 d   1     -50.612 -56.421   2.174  0.00  0.00     0.083 H 
ATOM     37  C22 AG5 d   1     -52.171 -56.047   5.191  0.00  0.00    -0.082 A 
ATOM     38  H17 AG5 d   1     -51.270 -54.670   3.803  0.00  0.00     0.083 H 
ATOM     39  C23 AG5 d   1     -52.491 -57.383   5.471  0.00  0.00    -0.066 A 
ATOM     40  H18 AG5 d   1     -52.445 -55.270   5.895  0.00  0.00     0.083 H 
ATOM     41  H19 AG5 d   1     -53.030 -57.658   6.370  0.00  0.00     0.085 H 
ENDBRANCH  30  31
ENDBRANCH   3  30
BRANCH   6  42
ATOM     42  S8  AG5 d   1     -47.101 -63.128   5.588  0.00  0.00     0.258 S 
ATOM     43  O11 AG5 d   1     -46.541 -63.081   4.248  0.00  0.00    -0.201 OA
ATOM     44  O12 AG5 d   1     -46.450 -62.420   6.657  0.00  0.00    -0.201 OA
BRANCH  42  45
ATOM     45  N9  AG5 d   1     -47.353 -64.747   6.044  0.00  0.00    -0.324 N 
ATOM     46  H13 AG5 d   1     -46.571 -65.350   6.201  0.00  0.00     0.169 HD
ATOM     47  H14 AG5 d   1     -48.283 -65.096   6.155  0.00  0.00     0.169 HD
ENDBRANCH  42  45
ENDBRANCH   6  42
TORSDOF 8
