REMARK  10 active torsions:
REMARK  status: ('A' for Active; 'I' for Inactive)
REMARK       I    between atoms: C1_2  and  N15_3 
REMARK    1  A    between atoms: C1_2  and  C6_9 
REMARK    2  A    between atoms: N15_3  and  C16_4 
REMARK    3  A    between atoms: C16_4  and  C17_5 
REMARK    4  A    between atoms: C17_5  and  C19_6 
REMARK    5  A    between atoms: C19_6  and  O18_7 
REMARK    6  A    between atoms: O18_7  and  C20_8 
REMARK    7  A    between atoms: C5_11  and  S10_19 
REMARK    8  A    between atoms: C2_14  and  S8_15 
REMARK    9  A    between atoms: S8_15  and  N9_18 
REMARK   10  A    between atoms: S10_19  and  C13_20 
ROOT
ATOM      1  C6  AG4 d   1      36.202  41.734  93.436  0.00  0.00     0.069 A 
ATOM      2  C7  AG4 d   1      36.661  42.998  93.736  0.00  0.00    -0.041 A 
ATOM      3  C5  AG4 d   1      35.002  41.459  92.772  0.00  0.00     0.113 A 
ATOM      4  N4  AG4 d   1      34.255  42.521  92.448  0.00  0.00    -0.251 NA
ATOM      5  C3  AG4 d   1      34.652  43.791  92.747  0.00  0.00     0.026 A 
ATOM      6  C2  AG4 d   1      35.839  44.067  93.396  0.00  0.00     0.097 A 
ATOM      7  H11 AG4 d   1      37.621  43.152  94.216  0.00  0.00     0.087 H 
ATOM      8  H12 AG4 d   1      34.010  44.617  92.464  0.00  0.00     0.117 H 
ENDROOT
BRANCH   1   9
ATOM      9  C1  AG4 d   1      37.026  40.575  93.871  0.00  0.00     0.254 C 
ATOM     10  O14 AG4 d   1      36.457  39.795  94.625  0.00  0.00    -0.268 OA
ATOM     11  N15 AG4 d   1      38.315  40.437  93.554  0.00  0.00    -0.357 N 
ATOM     12  H1  AG4 d   1      38.852  41.178  93.152  0.00  0.00     0.162 HD
BRANCH  11  13
ATOM     13  C16 AG4 d   1      38.879  39.127  93.838  0.00  0.00    -0.003 C 
ATOM     14  H2  AG4 d   1      39.689  38.934  93.120  0.00  0.00     0.064 H 
ATOM     15  H3  AG4 d   1      38.088  38.373  93.710  0.00  0.00     0.064 H 
BRANCH  13  16
ATOM     16  C17 AG4 d   1      39.437  38.998  95.229  0.00  0.00    -0.030 C 
ATOM     17  H4  AG4 d   1      40.252  38.260  95.220  0.00  0.00     0.038 H 
ATOM     18  H5  AG4 d   1      38.639  38.655  95.904  0.00  0.00     0.038 H 
BRANCH  16  19
ATOM     19  C19 AG4 d   1      39.976  40.322  95.736  0.00  0.00     0.020 C 
ATOM     20  H6  AG4 d   1      39.724  41.130  95.034  0.00  0.00     0.074 H 
ATOM     21  H7  AG4 d   1      41.068  40.268  95.856  0.00  0.00     0.074 H 
BRANCH  19  22
ATOM     22  O18 AG4 d   1      39.351  40.550  96.996  0.00  0.00    -0.396 OA
BRANCH  22  23
ATOM     23  C20 AG4 d   1      39.515  41.944  97.267  0.00  0.00     0.004 C 
ATOM     24  H8  AG4 d   1      39.050  42.187  98.234  0.00  0.00     0.066 H 
ATOM     25  H9  AG4 d   1      39.034  42.531  96.471  0.00  0.00     0.066 H 
ATOM     26  H10 AG4 d   1      40.587  42.187  97.304  0.00  0.00     0.066 H 
ENDBRANCH  22  23
ENDBRANCH  19  22
ENDBRANCH  16  19
ENDBRANCH  13  16
ENDBRANCH  11  13
ENDBRANCH   1   9
BRANCH   3  27
ATOM     27  S10 AG4 d   1      34.536  39.823  92.399  0.00  0.00    -0.070 SA
BRANCH  27  28
ATOM     28  C13 AG4 d   1      33.023  39.951  91.646  0.00  0.00     0.007 A 
ATOM     29  C21 AG4 d   1      32.927  40.460  90.345  0.00  0.00    -0.066 A 
ATOM     30  C22 AG4 d   1      31.664  40.536  89.737  0.00  0.00    -0.082 A 
ATOM     31  H15 AG4 d   1      33.814  40.790  89.816  0.00  0.00     0.085 H 
ATOM     32  C23 AG4 d   1      30.528  40.110  90.425  0.00  0.00    -0.083 A 
ATOM     33  H16 AG4 d   1      31.571  40.927  88.730  0.00  0.00     0.083 H 
ATOM     34  C24 AG4 d   1      30.613  39.582  91.726  0.00  0.00    -0.082 A 
ATOM     35  H17 AG4 d   1      29.558  40.188  89.947  0.00  0.00     0.083 H 
ATOM     36  C25 AG4 d   1      31.868  39.509  92.332  0.00  0.00    -0.066 A 
ATOM     37  H18 AG4 d   1      29.725  39.240  92.245  0.00  0.00     0.083 H 
ATOM     38  H19 AG4 d   1      31.958  39.111  93.336  0.00  0.00     0.085 H 
ENDBRANCH  27  28
ENDBRANCH   3  27
BRANCH   6  39
ATOM     39  S8  AG4 d   1      36.223  45.618  93.718  0.00  0.00     0.258 S 
ATOM     40  O12 AG4 d   1      35.032  46.211  94.452  0.00  0.00    -0.201 OA
ATOM     41  O11 AG4 d   1      36.473  46.338  92.368  0.00  0.00    -0.201 OA
BRANCH  39  42
ATOM     42  N9  AG4 d   1      37.640  45.671  94.491  0.00  0.00    -0.324 N 
ATOM     43  H13 AG4 d   1      38.027  46.551  94.766  0.00  0.00     0.169 HD
ATOM     44  H14 AG4 d   1      38.130  44.824  94.695  0.00  0.00     0.169 HD
ENDBRANCH  39  42
ENDBRANCH   6  39
TORSDOF 10
