REMARK  6 active torsions:
REMARK  status: ('A' for Active; 'I' for Inactive)
REMARK    1  A    between atoms: C10_2  and  C3_8 
REMARK    2  A    between atoms: C20_11  and  O23_12 
REMARK    3  A    between atoms: O23_12  and  C24_13 
REMARK    4  A    between atoms: C16_18  and  C17_17 
REMARK    5  A    between atoms: S15_19  and  C16_18 
REMARK    6  A    between atoms: C12_20  and  S15_19 
ROOT
ATOM      1  C10 34O d   1       1.253  11.846  19.044  0.00  0.00     0.203 A 
ATOM      2  C12 34O d   1       0.182  11.707  20.945  0.00  0.00     0.231 A 
ATOM      3  N13 34O d   1       1.214  10.973  21.043  0.00  0.00    -0.114 NA
ATOM      4  N14 34O d   1       1.900  11.058  19.805  0.00  0.00    -0.120 NA
ATOM      5  O11 34O d   1       0.069  12.366  19.672  0.00  0.00    -0.263 OA
ENDROOT
BRANCH   2   6
ATOM      6  S15 34O d   1      -0.965  11.962  22.099  0.00  0.00    -0.078 SA
BRANCH   6   7
ATOM      7  C16 34O d   1      -2.599  11.776  21.406  0.00  0.00     0.008 C 
ATOM      8  H12 34O d   1      -2.834  10.701  21.398  0.00  0.00     0.056 H 
ATOM      9  H13 34O d   1      -3.301  12.300  22.071  0.00  0.00     0.056 H 
BRANCH   7  10
ATOM     10  C17 34O d   1      -2.826  12.306  19.989  0.00  0.00    -0.045 A 
ATOM     11  C22 34O d   1      -3.054  11.397  18.945  0.00  0.00    -0.073 A 
ATOM     12  C21 34O d   1      -3.267  11.819  17.635  0.00  0.00    -0.047 A 
ATOM     13  H10 34O d   1      -3.065  10.335  19.164  0.00  0.00     0.084 H 
ATOM     14  C20 34O d   1      -3.257  13.182  17.325  0.00  0.00     0.106 A 
ATOM     15  H9  34O d   1      -3.441  11.088  16.853  0.00  0.00     0.087 H 
ATOM     16  C19 34O d   1      -3.023  14.168  18.439  0.00  0.00     0.150 A 
ATOM     17  F25 34O d   1      -3.012  15.503  18.227  0.00  0.00    -0.203 F 
ATOM     18  C18 34O d   1      -2.821  13.682  19.733  0.00  0.00    -0.036 A 
ATOM     19  H11 34O d   1      -2.659  14.378  20.548  0.00  0.00     0.089 H 
BRANCH  14  20
ATOM     20  O23 34O d   1      -3.475  13.564  16.013  0.00  0.00    -0.353 OA
BRANCH  20  21
ATOM     21  C24 34O d   1      -2.721  14.588  15.360  0.00  0.00     0.011 C 
ATOM     22  H6  34O d   1      -3.081  14.706  14.327  0.00  0.00     0.066 H 
ATOM     23  H7  34O d   1      -1.657  14.309  15.348  0.00  0.00     0.066 H 
ATOM     24  H8  34O d   1      -2.845  15.537  15.902  0.00  0.00     0.066 H 
ENDBRANCH  20  21
ENDBRANCH  14  20
ENDBRANCH   7  10
ENDBRANCH   6   7
ENDBRANCH   2   6
BRANCH   1  25
ATOM     25  C3  34O d   1       1.556  12.239  17.635  0.00  0.00     0.022 A 
ATOM     26  C4  34O d   1       0.590  13.013  16.987  0.00  0.00    -0.034 A 
ATOM     27  C5  34O d   1       0.857  13.361  15.675  0.00  0.00     0.105 A 
ATOM     28  H3  34O d   1      -0.321  13.324  17.486  0.00  0.00     0.089 H 
ATOM     29  C6  34O d   1       2.089  12.941  15.017  0.00  0.00     0.105 A 
ATOM     30  O9  34O d   1       0.129  14.099  14.804  0.00  0.00    -0.323 OA
ATOM     31  C1  34O d   1       3.024  12.165  15.674  0.00  0.00    -0.047 A 
ATOM     32  O7  34O d   1       2.078  13.429  13.754  0.00  0.00    -0.323 OA
ATOM     33  C2  34O d   1       2.731  11.825  16.997  0.00  0.00    -0.066 A 
ATOM     34  H4  34O d   1       3.936  11.837  15.189  0.00  0.00     0.087 H 
ATOM     35  H5  34O d   1       3.439  11.219  17.549  0.00  0.00     0.085 H 
ATOM     36  C8  34O d   1       0.871  14.197  13.574  0.00  0.00     0.115 A 
ATOM     37  H1  34O d   1       0.281  13.786  12.742  0.00  0.00     0.118 H 
ATOM     38  H2  34O d   1       1.119  15.248  13.364  0.00  0.00     0.118 H 
ENDBRANCH   1  25
TORSDOF 6
