REMARK  4 active torsions:
REMARK  status: ('A' for Active; 'I' for Inactive)
REMARK    1  A    between atoms: SBN_2  and  CAX_5 
REMARK    2  A    between atoms: CAX_5  and  CAV_6 
REMARK    3  A    between atoms: CAV_6  and  NBM_7 
REMARK    4  A    between atoms: CBK_13  and  CAG_14 
ROOT
ATOM      1  NBM STT d   1      -1.226   0.455  -7.480  0.00  0.00    -0.297 N 
ATOM      2  CBI STT d   1      -1.892  -0.647  -7.976  0.00  0.00     0.265 A 
ATOM      3  OAA STT d   1      -1.814  -1.825  -7.573  0.00  0.00    -0.267 OA
ATOM      4  CBJ STT d   1      -1.498   1.611  -8.116  0.00  0.00     0.148 A 
ATOM      5  SAE STT d   1      -0.867   3.187  -7.761  0.00  0.00    -0.052 SA
ATOM      6  SBA STT d   1      -2.601   1.324  -9.334  0.00  0.00    -0.056 SA
ATOM      7  CBK STT d   1      -2.741  -0.345  -9.050  0.00  0.00     0.066 A 
ENDROOT
BRANCH   1   8
ATOM      8  CAV STT d   1      -0.255   0.460  -6.367  0.00  0.00     0.019 C 
ATOM      9  H3  STT d   1       0.750   0.260  -6.768  0.00  0.00     0.066 H 
ATOM     10  H4  STT d   1      -0.267   1.449  -5.886  0.00  0.00     0.066 H 
BRANCH   8  11
ATOM     11  CAX STT d   1      -0.595  -0.602  -5.327  0.00  0.00     0.060 C 
ATOM     12  H1  STT d   1      -1.605  -0.405  -4.938  0.00  0.00     0.062 H 
ATOM     13  H2  STT d   1      -0.575  -1.589  -5.811  0.00  0.00     0.062 H 
BRANCH  11  14
ATOM     14  SBN STT d   1       0.569  -0.610  -3.942  0.00  0.00     0.103 S 
ATOM     15  OAD STT d   1       1.719  -0.998  -4.653  0.00  0.00    -0.595 OA
ATOM     16  OAB STT d   1      -0.122  -1.629  -3.176  0.00  0.00    -0.595 OA
ATOM     17  OAC STT d   1       0.425   0.782  -3.562  0.00  0.00    -0.595 OA
ENDBRANCH  11  14
ENDBRANCH   8  11
ENDBRANCH   1   8
BRANCH   7  18
ATOM     18  CAG STT d   1      -3.535  -1.268  -9.750  0.00  0.00    -0.100 C 
ATOM     19  H5  STT d   1      -4.163  -0.931 -10.573  0.00  0.00     0.069 H 
ATOM     20  H6  STT d   1      -3.522  -2.320  -9.469  0.00  0.00     0.069 H 
ENDBRANCH   7  18
TORSDOF 4
