REMARK  9 active torsions:
REMARK  status: ('A' for Active; 'I' for Inactive)
REMARK    1  A    between atoms: N27_27  and  C10_10 
REMARK    2  A    between atoms: N29_29  and  C11_11 
REMARK    3  A    between atoms: C12_12  and  O32_32 
REMARK    4  A    between atoms: O32_32  and  C13_13 
REMARK    5  A    between atoms: C17_17  and  N28_28 
REMARK    6  A    between atoms: C20_20  and  C23_23 
REMARK    7  A    between atoms: O33_33  and  C21_21 
REMARK       I    between atoms: C23_23  and  N29_29 
REMARK    8  A    between atoms: C25_25  and  C24_24 
REMARK    9  A    between atoms: C25_25  and  O33_33 
ROOT
ATOM      1  C18 353 d   1       0.435   2.952  52.210  0.00  0.00    -0.034 A 
ATOM      2  C19 353 d   1       0.221   2.048  53.167  0.00  0.00    -0.009 A 
ATOM      3  C20 353 d   1       0.807   4.730  53.841  0.00  0.00     0.134 A 
ATOM      4  C21 353 d   1       0.733   4.320  52.560  0.00  0.00     0.091 A 
ATOM      5  C22 353 d   1       0.568   3.700  54.922  0.00  0.00     0.270 A 
ATOM      6  N27 353 d   1       0.283   2.394  54.499  0.00  0.00    -0.289 N 
ATOM      7  O30 353 d   1       0.624   4.017  56.106  0.00  0.00    -0.266 OA
ATOM      8  H10 353 d   1       0.385   2.657  51.163  0.00  0.00     0.089 H 
ATOM      9  H11 353 d   1      -0.006   1.019  52.891  0.00  0.00     0.112 H 
ENDROOT
BRANCH   3  10
ATOM     10  C23 353 d   1       1.123   6.182  54.130  0.00  0.00     0.264 C 
ATOM     11  N29 353 d   1       1.245   6.448  55.478  0.00  0.00    -0.323 N 
ATOM     12  H19 353 d   1       1.227   5.657  56.090  0.00  0.00     0.169 HD
ATOM     13  O31 353 d   1       1.250   7.005  53.232  0.00  0.00    -0.267 OA
BRANCH  11  14
ATOM     14  C11 353 d   1       1.391   7.703  56.086  0.00  0.00     0.038 A 
ATOM     15  C3  353 d   1       1.682   7.698  57.459  0.00  0.00    -0.054 A 
ATOM     16  C4  353 d   1       1.843   8.892  58.150  0.00  0.00    -0.045 A 
ATOM     17  H3  353 d   1       1.782   6.755  57.984  0.00  0.00     0.087 H 
ATOM     18  C12 353 d   1       1.714  10.095  57.466  0.00  0.00     0.114 A 
ATOM     19  H4  353 d   1       2.067   8.886  59.211  0.00  0.00     0.088 H 
ATOM     20  C15 353 d   1       1.422  10.103  56.103  0.00  0.00     0.152 A 
ATOM     21  C8  353 d   1       1.263   8.912  55.406  0.00  0.00    -0.017 A 
ATOM     22  F35 353 d   1       1.296  11.259  55.438  0.00  0.00    -0.203 F 
ATOM     23  H8  353 d   1       1.042   8.923  54.345  0.00  0.00     0.091 H 
BRANCH  18  24
ATOM     24  O32 353 d   1       1.864  11.281  58.133  0.00  0.00    -0.306 OA
BRANCH  24  25
ATOM     25  C13 353 d   1       0.778  11.687  58.889  0.00  0.00     0.103 A 
ATOM     26  C7  353 d   1      -0.519  11.230  58.673  0.00  0.00    -0.032 A 
ATOM     27  C9  353 d   1      -1.518  11.712  59.501  0.00  0.00     0.007 A 
ATOM     28  H7  353 d   1      -0.739  10.521  57.883  0.00  0.00     0.090 H 
ATOM     29  N26 353 d   1      -1.317  12.596  60.505  0.00  0.00    -0.242 NA
ATOM     30  H9  353 d   1      -2.529  11.357  59.334  0.00  0.00     0.115 H 
ATOM     31  C17 353 d   1      -0.054  13.037  60.714  0.00  0.00     0.145 A 
ATOM     32  C16 353 d   1       1.013  12.599  59.922  0.00  0.00     0.113 A 
ATOM     33 CL36 353 d   1       2.615  13.176  60.211  0.00  0.00    -0.077 Cl
BRANCH  31  34
ATOM     34  N28 353 d   1       0.173  13.955  61.753  0.00  0.00    -0.383 N 
ATOM     35  H17 353 d   1      -0.613  14.277  62.336  0.00  0.00     0.157 HD
ATOM     36  H18 353 d   1       1.125  14.306  61.932  0.00  0.00     0.157 HD
ENDBRANCH  31  34
ENDBRANCH  24  25
ENDBRANCH  18  24
ENDBRANCH  11  14
ENDBRANCH   3  10
BRANCH   4  37
ATOM     37  O33 353 d   1       0.929   5.159  51.487  0.00  0.00    -0.350 OA
BRANCH  37  38
ATOM     38  C25 353 d   1       1.048   4.466  50.241  0.00  0.00     0.023 C 
ATOM     39  H15 353 d   1       1.917   3.793  50.263  0.00  0.00     0.074 H 
ATOM     40  H16 353 d   1       0.137   3.882  50.043  0.00  0.00     0.074 H 
BRANCH  38  41
ATOM     41  C24 353 d   1       1.233   5.523  49.174  0.00  0.00    -0.056 C 
ATOM     42  H12 353 d   1       1.330   5.039  48.191  0.00  0.00     0.030 H 
ATOM     43  H13 353 d   1       2.142   6.104  49.388  0.00  0.00     0.030 H 
ATOM     44  H14 353 d   1       0.361   6.194  49.168  0.00  0.00     0.030 H 
ENDBRANCH  38  41
ENDBRANCH  37  38
ENDBRANCH   4  37
BRANCH   6  45
ATOM     45  C10 353 d   1       0.059   1.434  55.516  0.00  0.00     0.042 A 
ATOM     46  C1  353 d   1       0.963   0.381  55.701  0.00  0.00    -0.054 A 
ATOM     47  C5  353 d   1       0.725  -0.546  56.707  0.00  0.00    -0.043 A 
ATOM     48  H1  353 d   1       1.838   0.291  55.067  0.00  0.00     0.087 H 
ATOM     49  C14 353 d   1      -0.403  -0.406  57.513  0.00  0.00     0.116 A 
ATOM     50  H5  353 d   1       1.410  -1.371  56.864  0.00  0.00     0.088 H 
ATOM     51  C6  353 d   1      -1.301   0.636  57.342  0.00  0.00    -0.043 A 
ATOM     52  F34 353 d   1      -0.630  -1.299  58.481  0.00  0.00    -0.206 F 
ATOM     53  C2  353 d   1      -1.070   1.563  56.339  0.00  0.00    -0.054 A 
ATOM     54  H6  353 d   1      -2.171   0.724  57.983  0.00  0.00     0.088 H 
ATOM     55  H2  353 d   1      -1.760   2.386  56.190  0.00  0.00     0.087 H 
ENDBRANCH   6  45
TORSDOF 9
