REMARK  4 active torsions:
REMARK  status: ('A' for Active; 'I' for Inactive)
REMARK    1  A    between atoms: N9_20  and  C6_3 
REMARK    2  A    between atoms: C18_15  and  C15_8 
REMARK    3  A    between atoms: C3_21  and  O2_22 
REMARK    4  A    between atoms: O2_22  and  C1_23 
ROOT
ATOM      1  C10 3HT d   1       3.674 -14.018  36.671  0.00  0.00     0.072 A 
ATOM      2  C13 3HT d   1       5.512 -12.033  38.992  0.00  0.00    -0.052 A 
ATOM      3  C15 3HT d   1       7.519 -11.866  37.691  0.00  0.00     0.021 A 
ATOM      4  C17 3HT d   1       5.680 -13.098  36.805  0.00  0.00     0.070 A 
ATOM      5  C14 3HT d   1       6.812 -11.569  38.855  0.00  0.00    -0.066 A 
ATOM      6  C16 3HT d   1       6.981 -12.626  36.669  0.00  0.00    -0.040 A 
ATOM      7  C12 3HT d   1       4.952 -12.807  37.967  0.00  0.00     0.085 A 
ATOM      8  N11 3HT d   1       3.734 -13.388  37.859  0.00  0.00    -0.241 NA
ATOM      9  N9  3HT d   1       4.858 -13.862  36.083  0.00  0.00    -0.304 N 
ATOM     10  H5  3HT d   1       2.817 -14.555  36.267  0.00  0.00     0.144 H 
ATOM     11  H6  3HT d   1       4.937 -11.800  39.881  0.00  0.00     0.087 H 
ATOM     12  H8  3HT d   1       7.272 -10.983  39.643  0.00  0.00     0.085 H 
ATOM     13  H9  3HT d   1       7.561 -12.849  35.781  0.00  0.00     0.088 H 
ENDROOT
BRANCH   9  14
ATOM     14  C6  3HT d   1       5.049 -14.342  34.837  0.00  0.00     0.040 A 
ATOM     15  C5  3HT d   1       4.138 -13.959  33.845  0.00  0.00    -0.054 A 
ATOM     16  C4  3HT d   1       4.167 -14.360  32.510  0.00  0.00    -0.049 A 
ATOM     17  H2  3HT d   1       3.338 -13.290  34.142  0.00  0.00     0.087 H 
ATOM     18  C3  3HT d   1       5.184 -15.204  32.089  0.00  0.00     0.068 A 
ATOM     19  H1  3HT d   1       3.409 -14.019  31.814  0.00  0.00     0.087 H 
ATOM     20  C8  3HT d   1       6.136 -15.610  33.036  0.00  0.00    -0.049 A 
ATOM     21  C7  3HT d   1       6.066 -15.178  34.376  0.00  0.00    -0.054 A 
ATOM     22  H4  3HT d   1       6.941 -16.269  32.731  0.00  0.00     0.087 H 
ATOM     23  H3  3HT d   1       6.829 -15.507  35.072  0.00  0.00     0.087 H 
BRANCH  18  24
ATOM     24  O2  3HT d   1       5.210 -15.581  30.764  0.00  0.00    -0.356 OA
BRANCH  24  25
ATOM     25  C1  3HT d   1       5.944 -16.715  30.297  0.00  0.00     0.010 C 
ATOM     26  H10 3HT d   1       5.813 -16.814  29.209  0.00  0.00     0.066 H 
ATOM     27  H11 3HT d   1       5.573 -17.623  30.795  0.00  0.00     0.066 H 
ATOM     28  H12 3HT d   1       7.011 -16.581  30.527  0.00  0.00     0.066 H 
ENDBRANCH  24  25
ENDBRANCH  18  24
ENDBRANCH   9  14
BRANCH   3  29
ATOM     29  C18 3HT d   1       8.894 -11.391  37.542  0.00  0.00     0.201 A 
ATOM     30  N19 3HT d   1       9.431 -10.290  38.130  0.00  0.00    -0.145 NA
ATOM     31  N20 3HT d   1      10.781 -10.223  37.749  0.00  0.00    -0.245 N 
ATOM     32  C21 3HT d   1      10.925 -11.297  36.961  0.00  0.00     0.237 A 
ATOM     33  H7  3HT d   1      11.467  -9.541  38.003  0.00  0.00     0.192 HD
ATOM     34  S22 3HT d   1      12.411 -11.709  36.189  0.00  0.00    -0.031 SA
ATOM     35  O32 3HT d   1       9.830 -12.064  36.805  0.00  0.00    -0.262 OA
ENDBRANCH   3  29
TORSDOF 4
