REMARK  2 active torsions:
REMARK  status: ('A' for Active; 'I' for Inactive)
REMARK       I    between atoms: N8_7  and  C6_8 
REMARK    1  A    between atoms: C6_8  and  C4_10 
REMARK    2  A    between atoms: C1_14  and  N13_15 
ROOT
ATOM      1  C4  PF2 d   1      18.511  16.214  36.430  0.00  0.00     0.180 C 
ATOM      2  N3  PF2 d   1      18.751  15.033  35.611  0.00  0.00    -0.060 N 
ATOM      3  C2  PF2 d   1      19.386  15.536  34.391  0.00  0.00     0.109 C 
ATOM      4  C5  PF2 d   1      18.182  17.304  35.412  0.00  0.00    -0.002 C 
ATOM      5  C1  PF2 d   1      19.173  17.050  34.313  0.00  0.00     0.129 C 
ATOM      6  H7  PF2 d   1      19.443  16.480  36.950  0.00  0.00     0.099 H 
ATOM      7  H8  PF2 d   1      17.882  14.571  35.393  0.00  0.00     0.278 HD
ATOM      8  H9  PF2 d   1      19.363  14.390  36.089  0.00  0.00     0.278 HD
ATOM      9  H10 PF2 d   1      18.933  15.053  33.512  0.00  0.00     0.079 H 
ATOM     10  H11 PF2 d   1      20.463  15.315  34.417  0.00  0.00     0.079 H 
ATOM     11  H12 PF2 d   1      18.321  18.305  35.846  0.00  0.00     0.040 H 
ATOM     12  H13 PF2 d   1      17.150  17.203  35.045  0.00  0.00     0.040 H 
ATOM     13  H14 PF2 d   1      20.110  17.575  34.551  0.00  0.00     0.087 H 
ENDROOT
BRANCH   5  14
ATOM     14  N13 PF2 d   1      18.767  17.468  32.935  0.00  0.00    -0.062 N 
ATOM     15  C18 PF2 d   1      19.966  17.409  32.059  0.00  0.00     0.099 C 
ATOM     16  C17 PF2 d   1      19.535  17.503  30.596  0.00  0.00     0.034 C 
ATOM     17  H16 PF2 d   1      20.495  16.459  32.225  0.00  0.00     0.078 H 
ATOM     18  H17 PF2 d   1      20.636  18.248  32.298  0.00  0.00     0.078 H 
ATOM     19  N16 PF2 d   1      18.733  18.712  30.412  0.00  0.00    -0.211 N 
ATOM     20  H18 PF2 d   1      18.936  16.619  30.331  0.00  0.00     0.067 H 
ATOM     21  H19 PF2 d   1      20.425  17.550  29.952  0.00  0.00     0.067 H 
ATOM     22  C15 PF2 d   1      17.800  19.230  31.435  0.00  0.00     0.034 C 
ATOM     23  C19 PF2 d   1      18.855  19.341  29.207  0.00  0.00     0.724 A 
ATOM     24  C14 PF2 d   1      18.223  18.844  32.868  0.00  0.00     0.099 C 
ATOM     25  H20 PF2 d   1      16.799  18.819  31.240  0.00  0.00     0.067 H 
ATOM     26  H21 PF2 d   1      17.767  20.327  31.360  0.00  0.00     0.067 H 
ATOM     27  H22 PF2 d   1      18.995  19.548  33.212  0.00  0.00     0.078 H 
ATOM     28  H23 PF2 d   1      17.345  18.911  33.528  0.00  0.00     0.078 H 
ATOM     29  N23 PF2 d   1      19.718  18.831  28.270  0.00  0.00    -0.075 NA
ATOM     30  N20 PF2 d   1      18.131  20.465  28.936  0.00  0.00    -0.075 NA
ATOM     31  C24 PF2 d   1      19.882  19.411  27.062  0.00  0.00     0.022 A 
ATOM     32  C22 PF2 d   1      19.171  20.564  26.775  0.00  0.00    -0.048 A 
ATOM     33  H24 PF2 d   1      20.558  18.982  26.331  0.00  0.00     0.115 H 
ATOM     34  C21 PF2 d   1      18.287  21.073  27.741  0.00  0.00     0.022 A 
ATOM     35  H25 PF2 d   1      19.294  21.065  25.822  0.00  0.00     0.087 H 
ATOM     36  H26 PF2 d   1      17.720  21.971  27.523  0.00  0.00     0.115 H 
ATOM     37  H15 PF2 d   1      18.066  16.827  32.598  0.00  0.00     0.280 HD
ENDBRANCH   5  14
BRANCH   1  38
ATOM     38  C6  PF2 d   1      17.440  16.036  37.503  0.00  0.00     0.251 C 
ATOM     39  N8  PF2 d   1      17.476  16.963  38.458  0.00  0.00    -0.344 N 
ATOM     40  C9  PF2 d   1      18.486  18.014  38.348  0.00  0.00     0.003 C 
ATOM     41  C12 PF2 d   1      16.642  17.173  39.626  0.00  0.00     0.058 C 
ATOM     42  C10 PF2 d   1      17.673  19.205  38.776  0.00  0.00     0.013 C 
ATOM     43  H3  PF2 d   1      19.335  17.836  39.024  0.00  0.00     0.064 H 
ATOM     44  H4  PF2 d   1      18.854  18.120  37.317  0.00  0.00     0.064 H 
ATOM     45  C11 PF2 d   1      17.078  18.612  39.992  0.00  0.00     0.261 C 
ATOM     46  H1  PF2 d   1      18.300  20.080  39.002  0.00  0.00     0.044 H 
ATOM     47  H2  PF2 d   1      16.913  19.482  38.031  0.00  0.00     0.044 H 
ATOM     48  F26 PF2 d   1      16.143  19.456  40.358  0.00  0.00    -0.204 F 
ATOM     49  F25 PF2 d   1      18.107  18.626  40.804  0.00  0.00    -0.204 F 
ATOM     50  H5  PF2 d   1      15.571  17.118  39.381  0.00  0.00     0.073 H 
ATOM     51  H6  PF2 d   1      16.872  16.457  40.429  0.00  0.00     0.073 H 
ATOM     52  O7  PF2 d   1      16.675  15.108  37.488  0.00  0.00    -0.271 OA
ENDBRANCH   1  38
TORSDOF 2
