REMARK  6 active torsions:
REMARK  status: ('A' for Active; 'I' for Inactive)
REMARK    1  A    between atoms: O5'_1  and  C5'_2 
REMARK    2  A    between atoms: C5'_2  and  C4'_3 
REMARK    3  A    between atoms: C3'_5  and  O3'_6 
REMARK    4  A    between atoms: C2'_7  and  O2'_8 
REMARK    5  A    between atoms: C1'_9  and  N9_10 
REMARK    6  A    between atoms: C6_14  and  N6_15 
ROOT
ATOM      1  C4' ADN d   1      19.433  27.099   8.899  0.00  0.00     0.088 C 
ATOM      2  O4' ADN d   1      18.301  27.995   8.766  0.00  0.00    -0.353 OA
ATOM      3  C3' ADN d   1      19.813  27.167  10.399  0.00  0.00     0.091 C 
ATOM      4  C2' ADN d   1      18.492  27.363  11.147  0.00  0.00     0.105 C 
ATOM      5  C1' ADN d   1      17.547  27.832  10.008  0.00  0.00     0.139 C 
ATOM      6  H4  ADN d   1      20.278  27.420   8.272  0.00  0.00     0.090 H 
ATOM      7  H5  ADN d   1      20.292  26.232  10.724  0.00  0.00     0.091 H 
ATOM      8  H7  ADN d   1      18.150  26.421  11.600  0.00  0.00     0.093 H 
ATOM      9  H9  ADN d   1      17.139  28.809  10.308  0.00  0.00     0.122 H 
ENDROOT
BRANCH   5  10
ATOM     10  N9  ADN d   1      16.411  26.947   9.708  0.00  0.00    -0.294 N 
ATOM     11  C8  ADN d   1      15.630  26.988   8.410  0.00  0.00     0.070 A 
ATOM     12  N7  ADN d   1      14.570  25.945   8.529  0.00  0.00    -0.240 NA
ATOM     13  H10 ADN d   1      15.807  27.646   7.561  0.00  0.00     0.144 H 
ATOM     14  C5  ADN d   1      14.686  25.277   9.875  0.00  0.00     0.131 A 
ATOM     15  C6  ADN d   1      13.891  24.118  10.528  0.00  0.00     0.210 A 
ATOM     16  C4  ADN d   1      15.838  25.886  10.596  0.00  0.00     0.163 A 
ATOM     17  N1  ADN d   1      14.263  23.646  11.838  0.00  0.00    -0.352 N 
ATOM     18  H11 ADN d   1      14.569  23.386  10.065  0.00  0.00     0.128 H 
ATOM     19  C2  ADN d   1      15.425  24.290  12.595  0.00  0.00     0.064 A 
ATOM     20  H15 ADN d   1      13.742  22.869  12.268  0.00  0.00     0.162 HD
ATOM     21  N3  ADN d   1      16.215  25.416  11.948  0.00  0.00    -0.224 NA
ATOM     22  H16 ADN d   1      15.686  23.943  13.594  0.00  0.00     0.143 H 
BRANCH  15  23
ATOM     23  N6  ADN d   1      12.757  23.515   9.830  0.00  0.00    -0.052 N 
ATOM     24  H12 ADN d   1      12.363  22.782  10.399  0.00  0.00     0.277 HD
ATOM     25  H13 ADN d   1      13.069  23.128   8.953  0.00  0.00     0.277 HD
ATOM     26  H14 ADN d   1      12.057  24.219   9.656  0.00  0.00     0.277 HD
ENDBRANCH  15  23
ENDBRANCH   5  10
BRANCH   4  27
ATOM     27  O2' ADN d   1      18.565  28.360  12.131  0.00  0.00    -0.388 OA
ATOM     28  H8  ADN d   1      18.794  29.188  11.725  0.00  0.00     0.210 HD
ENDBRANCH   4  27
BRANCH   1  29
ATOM     29  C5' ADN d   1      18.962  25.679   8.469  0.00  0.00     0.043 C 
ATOM     30  H2  ADN d   1      19.823  24.995   8.460  0.00  0.00     0.078 H 
ATOM     31  H3  ADN d   1      18.210  25.312   9.182  0.00  0.00     0.078 H 
BRANCH  29  32
ATOM     32  O5' ADN d   1      18.392  25.737   7.170  0.00  0.00    -0.398 OA
ATOM     33  H1  ADN d   1      18.106  24.869   6.912  0.00  0.00     0.209 HD
ENDBRANCH  29  32
ENDBRANCH   1  29
BRANCH   3  34
ATOM     34  O3' ADN d   1      20.713  28.244  10.583  0.00  0.00    -0.390 OA
ATOM     35  H6  ADN d   1      21.490  28.099  10.056  0.00  0.00     0.210 HD
ENDBRANCH   3  34
TORSDOF 6
