REMARK  8 active torsions:
REMARK  status: ('A' for Active; 'I' for Inactive)
REMARK    1  A    between atoms: N_9  and  C9_31 
REMARK    2  A    between atoms: C8_11  and  S_12 
REMARK    3  A    between atoms: S_12  and  C15_13 
REMARK    4  A    between atoms: C15_13  and  C16_14 
REMARK    5  A    between atoms: C15_13  and  C17_15 
REMARK       I    between atoms: C16_14  and  N19_17 
REMARK    6  A    between atoms: C17_15  and  C20_18 
REMARK    7  A    between atoms: C20_18  and  C21_19 
REMARK    8  A    between atoms: C21_19  and  C22_20 
ROOT
ATOM      1  C15 38M d   1      28.669  -7.512  27.314  0.00  0.00     0.075 C 
ATOM      2  H6  38M d   1      28.835  -8.564  27.039  0.00  0.00     0.072 H 
ENDROOT
BRANCH   1   3
ATOM      3  S   38M d   1      27.724  -6.665  26.131  0.00  0.00    -0.079 SA
BRANCH   3   4
ATOM      4  C8  38M d   1      26.161  -7.412  25.981  0.00  0.00     0.155 A 
ATOM      5  N   38M d   1      25.408  -7.015  24.970  0.00  0.00    -0.258 N 
ATOM      6  C6  38M d   1      24.137  -7.553  24.772  0.00  0.00     0.266 A 
ATOM      7  C4  38M d   1      23.652  -8.559  25.745  0.00  0.00     0.059 A 
ATOM      8  O   38M d   1      23.392  -7.188  23.896  0.00  0.00    -0.267 OA
ATOM      9  C3  38M d   1      24.475  -8.932  26.752  0.00  0.00     0.049 A 
ATOM     10  C5  38M d   1      22.345  -9.115  25.614  0.00  0.00    -0.065 A 
ATOM     11  C2  38M d   1      24.058  -9.879  27.679  0.00  0.00    -0.056 A 
ATOM     12  N7  38M d   1      25.740  -8.366  26.855  0.00  0.00    -0.335 N 
ATOM     13  C1  38M d   1      22.772 -10.402  27.614  0.00  0.00    -0.081 A 
ATOM     14  H3  38M d   1      24.738 -10.211  28.455  0.00  0.00     0.086 H 
ATOM     15  C   38M d   1      21.915 -10.020  26.579  0.00  0.00    -0.082 A 
ATOM     16  H2  38M d   1      22.434 -11.106  28.366  0.00  0.00     0.083 H 
ATOM     17  H1  38M d   1      20.913 -10.430  26.528  0.00  0.00     0.083 H 
ATOM     18  H5  38M d   1      26.371  -8.675  27.608  0.00  0.00     0.168 HD
ATOM     19  H4  38M d   1      21.704  -8.840  24.785  0.00  0.00     0.085 H 
BRANCH   5  20
ATOM     20  C9  38M d   1      25.818  -6.045  24.103  0.00  0.00     0.046 A 
ATOM     21  C10 38M d   1      26.919  -6.185  23.233  0.00  0.00    -0.056 A 
ATOM     22  C11 38M d   1      27.275  -5.164  22.342  0.00  0.00    -0.079 A 
ATOM     23  H34 38M d   1      27.501  -7.099  23.254  0.00  0.00     0.086 H 
ATOM     24  C12 38M d   1      26.552  -3.964  22.313  0.00  0.00    -0.062 A 
ATOM     25  H35 38M d   1      28.115  -5.303  21.671  0.00  0.00     0.083 H 
ATOM     26  C13 38M d   1      25.475  -3.843  23.174  0.00  0.00     0.036 A 
ATOM     27  H36 38M d   1      26.826  -3.159  21.640  0.00  0.00     0.086 H 
ATOM     28  C14 38M d   1      25.079  -4.866  24.064  0.00  0.00    -0.036 A 
ATOM     29 CL   38M d   1      24.544  -2.391  23.188  0.00  0.00    -0.084 Cl
ATOM     30  H37 38M d   1      24.215  -4.735  24.705  0.00  0.00     0.089 H 
ENDBRANCH   5  20
ENDBRANCH   3   4
ENDBRANCH   1   3
BRANCH   1  31
ATOM     31  C16 38M d   1      27.960  -7.431  28.690  0.00  0.00     0.234 C 
ATOM     32  O18 38M d   1      27.600  -6.354  29.127  0.00  0.00    -0.272 OA
ATOM     33  N19 38M d   1      27.742  -8.572  29.440  0.00  0.00    -0.350 N 
ATOM     34  C23 38M d   1      28.192  -9.876  28.943  0.00  0.00    -0.002 C 
ATOM     35  C27 38M d   1      27.081  -8.555  30.781  0.00  0.00     0.006 C 
ATOM     36  C24 38M d   1      29.332 -10.309  29.903  0.00  0.00    -0.049 C 
ATOM     37  H16 38M d   1      28.569  -9.787  27.913  0.00  0.00     0.064 H 
ATOM     38  H17 38M d   1      27.368 -10.604  28.970  0.00  0.00     0.064 H 
ATOM     39  C25 38M d   1      28.965 -10.170  31.408  0.00  0.00    -0.053 C 
ATOM     40  H18 38M d   1      30.213  -9.683  29.701  0.00  0.00     0.035 H 
ATOM     41  H19 38M d   1      29.576 -11.362  29.700  0.00  0.00     0.035 H 
ATOM     42  C26 38M d   1      28.128  -8.939  31.826  0.00  0.00    -0.000 C 
ATOM     43  H20 38M d   1      29.907 -10.137  31.976  0.00  0.00     0.034 H 
ATOM     44  H21 38M d   1      28.397 -11.068  31.693  0.00  0.00     0.034 H 
ATOM     45  C7  38M d   1      29.146  -7.831  32.088  0.00  0.00     0.090 C 
ATOM     46  C18 38M d   1      27.437  -9.258  33.192  0.00  0.00    -0.053 C 
ATOM     47  N1  38M d   1      28.657  -6.658  32.855  0.00  0.00    -0.074 N 
ATOM     48  H24 38M d   1      29.505  -7.468  31.114  0.00  0.00     0.076 H 
ATOM     49  H25 38M d   1      29.985  -8.271  32.647  0.00  0.00     0.076 H 
ATOM     50  C35 38M d   1      27.992  -7.072  34.161  0.00  0.00     0.082 C 
ATOM     51  H30 38M d   1      27.987  -6.157  32.293  0.00  0.00     0.277 HD
ATOM     52  H31 38M d   1      29.438  -6.056  33.063  0.00  0.00     0.277 HD
ATOM     53  C19 38M d   1      26.843  -8.012  33.800  0.00  0.00    -0.042 C 
ATOM     54  H32 38M d   1      28.716  -7.591  34.806  0.00  0.00     0.075 H 
ATOM     55  H33 38M d   1      27.605  -6.186  34.685  0.00  0.00     0.075 H 
ATOM     56  H28 38M d   1      26.275  -8.272  34.705  0.00  0.00     0.035 H 
ATOM     57  H29 38M d   1      26.175  -7.524  33.075  0.00  0.00     0.035 H 
ATOM     58  H26 38M d   1      28.183  -9.676  33.884  0.00  0.00     0.034 H 
ATOM     59  H27 38M d   1      26.637  -9.995  33.027  0.00  0.00     0.034 H 
ATOM     60  H22 38M d   1      26.253  -9.279  30.799  0.00  0.00     0.065 H 
ATOM     61  H23 38M d   1      26.693  -7.548  30.994  0.00  0.00     0.065 H 
ENDBRANCH   1  31
BRANCH   1  62
ATOM     62  C17 38M d   1      29.963  -6.713  27.278  0.00  0.00    -0.045 C 
ATOM     63  H7  38M d   1      29.820  -5.784  27.850  0.00  0.00     0.035 H 
ATOM     64  H8  38M d   1      30.197  -6.467  26.232  0.00  0.00     0.035 H 
BRANCH  62  65
ATOM     65  C20 38M d   1      31.122  -7.469  27.867  0.00  0.00    -0.064 C 
ATOM     66  H9  38M d   1      31.245  -8.420  27.328  0.00  0.00     0.033 H 
ATOM     67  H10 38M d   1      30.918  -7.673  28.928  0.00  0.00     0.033 H 
BRANCH  65  68
ATOM     68  C21 38M d   1      32.424  -6.646  27.749  0.00  0.00    -0.069 C 
ATOM     69  H11 38M d   1      32.336  -5.950  26.901  0.00  0.00     0.032 H 
ATOM     70  H12 38M d   1      33.269  -7.329  27.577  0.00  0.00     0.032 H 
BRANCH  68  71
ATOM     71  C22 38M d   1      32.676  -5.845  29.035  0.00  0.00    -0.077 C 
ATOM     72  H13 38M d   1      33.606  -5.267  28.931  0.00  0.00     0.027 H 
ATOM     73  H14 38M d   1      32.768  -6.536  29.886  0.00  0.00     0.027 H 
ATOM     74  H15 38M d   1      31.835  -5.158  29.210  0.00  0.00     0.027 H 
ENDBRANCH  68  71
ENDBRANCH  65  68
ENDBRANCH  62  65
ENDBRANCH   1  62
TORSDOF 8
