REMARK WARNING: 32 MAX_TORS EXCEEDED!!!
REMARK  43 active torsions:
REMARK  status: ('A' for Active; 'I' for Inactive)
REMARK    1  A    between atoms: N_1  and  CA_2 
REMARK    2  A    between atoms: CA_2  and  C_3 
REMARK    3  A    between atoms: CA_2  and  CB_5 
REMARK       I    between atoms: C_3  and  N_6 
REMARK    4  A    between atoms: N_6  and  CA_7 
REMARK    5  A    between atoms: CA_7  and  C_8 
REMARK    6  A    between atoms: CA_7  and  CB_10 
REMARK       I    between atoms: C_8  and  N_17 
REMARK    7  A    between atoms: CB_10  and  CG_11 
REMARK    8  A    between atoms: CG_11  and  CD_12 
REMARK    9  A    between atoms: CD_12  and  NE_13 
REMARK       I    between atoms: NE_13  and  CZ_14 
REMARK       I    between atoms: CZ_14  and  NH1_15 
REMARK       I    between atoms: CZ_14  and  NH2_16 
REMARK   10  A    between atoms: N_17  and  CA_18 
REMARK   11  A    between atoms: CA_18  and  C_19 
REMARK   12  A    between atoms: CA_18  and  CB_21 
REMARK       I    between atoms: C_19  and  N_27 
REMARK   13  A    between atoms: CB_21  and  CG_22 
REMARK   14  A    between atoms: N_27  and  CA_28 
REMARK   15  A    between atoms: CA_28  and  C_29 
REMARK   16  A    between atoms: CA_28  and  CB_31 
REMARK       I    between atoms: C_29  and  N_38 
REMARK   17  A    between atoms: CB_31  and  CG_32 
REMARK   18  A    between atoms: CG_32  and  CD_33 
REMARK   19  A    between atoms: CD_33  and  NE_34 
REMARK       I    between atoms: NE_34  and  CZ_35 
REMARK       I    between atoms: CZ_35  and  NH1_36 
REMARK       I    between atoms: CZ_35  and  NH2_37 
REMARK   20  A    between atoms: N_38  and  CA_39 
REMARK   21  A    between atoms: CA_39  and  C_40 
REMARK   22  A    between atoms: CA_39  and  CB_42 
REMARK       I    between atoms: C_40  and  N_47 
REMARK   23  A    between atoms: CB_42  and  CG_43 
REMARK   24  A    between atoms: CG_43  and  CD_44 
REMARK   25  A    between atoms: CD_44  and  CE_45 
REMARK   26  A    between atoms: CE_45  and  NZ_46 
REMARK   27  A    between atoms: N_47  and  CA_48 
REMARK   28  A    between atoms: CA_48  and  C_49 
REMARK   29  A    between atoms: CA_48  and  CB_51 
REMARK       I    between atoms: C_49  and  N_54 
REMARK   30  A    between atoms: CB_51  and  CG1_52 
REMARK   31  A    between atoms: CB_51  and  CG2_53 
REMARK   32  A    between atoms: N_54  and  CA_55 
REMARK   33  A    between atoms: CA_55  and  C_56 
REMARK   34  A    between atoms: CA_55  and  CB_58 
REMARK       I    between atoms: C_56  and  N_62 
REMARK   35  A    between atoms: CB_58  and  CG_59 
REMARK   36  A    between atoms: CG_59  and  CD1_60 
REMARK   37  A    between atoms: CG_59  and  CD2_61 
REMARK   38  A    between atoms: N_62  and  CA_63 
REMARK   39  A    between atoms: CA_63  and  C_64 
REMARK   40  A    between atoms: CA_63  and  CB_66 
REMARK   41  A    between atoms: CB_66  and  CG_67 
REMARK   42  A    between atoms: CG_67  and  CD_68 
REMARK   43  A    between atoms: CD_68  and  NE_69 
REMARK       I    between atoms: NE_69  and  CZ_70 
REMARK       I    between atoms: CZ_70  and  NH1_71 
REMARK       I    between atoms: CZ_70  and  NH2_72 
ROOT
ATOM      1  CA  LYS d   1       1.511   2.713  -8.525  0.00  0.00     0.089 C 
ATOM      2  H42 LYS d   1       0.743   1.934  -8.641  0.00  0.00     0.087 H 
ENDROOT
BRANCH   1   3
ATOM      3  N   LYS d   1       0.886   4.016  -8.302  0.00  0.00    -0.346 N 
ATOM      4  C   ARG d   1      -0.428   4.152  -8.127  0.00  0.00     0.241 C 
ATOM      5  O   ARG d   1      -1.261   3.300  -8.474  0.00  0.00    -0.271 OA
ATOM      6  H41 LYS d   1       1.464   4.832  -8.280  0.00  0.00     0.163 HD
BRANCH   4   7
ATOM      7  CA  ARG d   1      -0.854   5.447  -7.466  0.00  0.00     0.089 C 
ATOM      8  H29 ARG d   1      -0.409   6.297  -8.004  0.00  0.00     0.087 H 
BRANCH   7   9
ATOM      9  N   ARG d   1      -2.306   5.571  -7.484  0.00  0.00    -0.346 N 
ATOM     10  C   HIS d   1      -2.906   6.572  -8.116  0.00  0.00     0.241 C 
ATOM     11  O   HIS d   1      -2.284   7.479  -8.678  0.00  0.00    -0.271 OA
ATOM     12  H28 ARG d   1      -2.862   4.888  -7.010  0.00  0.00     0.163 HD
BRANCH  10  13
ATOM     13  CA  HIS d   1      -4.432   6.546  -8.123  0.00  0.00     0.094 C 
ATOM     14  H22 HIS d   1      -4.804   6.504  -7.089  0.00  0.00     0.088 H 
BRANCH  13  15
ATOM     15  N   HIS d   1      -4.909   7.775  -8.751  0.00  0.00    -0.346 N 
ATOM     16  C   ARG d   1      -5.628   8.673  -8.082  0.00  0.00     0.241 C 
ATOM     17  O   ARG d   1      -6.150   8.434  -6.993  0.00  0.00    -0.271 OA
ATOM     18  H21 HIS d   1      -4.689   7.947  -9.711  0.00  0.00     0.163 HD
BRANCH  16  19
ATOM     19  CA  ARG d   1      -5.813  10.032  -8.736  0.00  0.00     0.089 C 
ATOM     20  H9  ARG d   1      -5.935   9.902  -9.821  0.00  0.00     0.087 H 
BRANCH  19  21
ATOM     21  N   ARG d   1      -7.011  10.659  -8.185  0.00  0.00    -0.346 N 
ATOM     22  C   LYS d   1      -8.131  10.774  -8.891  0.00  0.00     0.248 C 
ATOM     23  O   LYS d   1      -8.242  10.364 -10.050  0.00  0.00    -0.271 OA
ATOM     24  H8  ARG d   1      -6.988  11.012  -7.250  0.00  0.00     0.163 HD
BRANCH  22  25
ATOM     25  CA  LYS d   1      -9.294  11.488  -8.189  0.00  0.00     0.172 C 
ATOM     26  H4  LYS d   1      -8.987  11.723  -7.159  0.00  0.00     0.098 H 
BRANCH  25  27
ATOM     27  N   LYS d   1      -9.612  12.762  -8.888  0.00  0.00    -0.067 N 
ATOM     28  H1  LYS d   1     -10.377  13.221  -8.418  0.00  0.00     0.275 HD
ATOM     29  H2  LYS d   1      -9.873  12.566  -9.842  0.00  0.00     0.275 HD
ATOM     30  H3  LYS d   1      -8.802  13.362  -8.878  0.00  0.00     0.275 HD
ENDBRANCH  25  27
BRANCH  25  31
ATOM     31  CB  LYS d   1     -10.522  10.590  -8.131  0.00  0.00    -0.042 C 
ATOM     32  H5  LYS d   1     -10.268   9.654  -7.612  0.00  0.00     0.030 H 
ATOM     33  H6  LYS d   1     -10.858  10.362  -9.153  0.00  0.00     0.030 H 
ATOM     34  H7  LYS d   1     -11.327  11.105  -7.586  0.00  0.00     0.030 H 
ENDBRANCH  25  31
ENDBRANCH  22  25
ENDBRANCH  19  21
BRANCH  19  35
ATOM     35  CB  ARG d   1      -4.587  10.915  -8.470  0.00  0.00    -0.036 C 
ATOM     36  H10 ARG d   1      -3.689  10.357  -8.774  0.00  0.00     0.036 H 
ATOM     37  H11 ARG d   1      -4.542  11.124  -7.391  0.00  0.00     0.036 H 
BRANCH  35  38
ATOM     38  CG  ARG d   1      -4.595  12.254  -9.218  0.00  0.00    -0.048 C 
ATOM     39  H12 ARG d   1      -5.564  12.746  -9.048  0.00  0.00     0.035 H 
ATOM     40  H13 ARG d   1      -4.467  12.058 -10.293  0.00  0.00     0.035 H 
BRANCH  38  41
ATOM     41  CD  ARG d   1      -3.482  13.193  -8.757  0.00  0.00     0.009 C 
ATOM     42  H14 ARG d   1      -3.689  13.503  -7.722  0.00  0.00     0.064 H 
ATOM     43  H15 ARG d   1      -3.475  14.078  -9.410  0.00  0.00     0.064 H 
BRANCH  41  44
ATOM     44  NE  ARG d   1      -2.157  12.566  -8.803  0.00  0.00    -0.227 N 
ATOM     45  CZ  ARG d   1      -1.386  12.450  -9.883  0.00  0.00     0.665 C 
ATOM     46  NH1 ARG d   1      -1.782  12.911 -11.070  0.00  0.00    -0.235 N 
ATOM     47  NH2 ARG d   1      -0.206  11.843  -9.772  0.00  0.00    -0.235 N 
ATOM     48  H17 ARG d   1      -1.169  12.810 -11.892  0.00  0.00     0.174 HD
ATOM     49  H18 ARG d   1      -2.700  13.367 -11.165  0.00  0.00     0.174 HD
ATOM     50  H19 ARG d   1       0.105  11.485  -8.858  0.00  0.00     0.174 HD
ATOM     51  H20 ARG d   1       0.396  11.732 -10.601  0.00  0.00     0.174 HD
ATOM     52  H16 ARG d   1      -1.790  12.181  -7.921  0.00  0.00     0.177 HD
ENDBRANCH  41  44
ENDBRANCH  38  41
ENDBRANCH  35  38
ENDBRANCH  19  35
ENDBRANCH  16  19
ENDBRANCH  13  15
BRANCH  13  53
ATOM     53  CB  HIS d   1      -4.914   5.301  -8.872  0.00  0.00     0.004 C 
ATOM     54  H23 HIS d   1      -6.005   5.366  -8.994  0.00  0.00     0.046 H 
ATOM     55  H24 HIS d   1      -4.664   4.413  -8.273  0.00  0.00     0.046 H 
BRANCH  53  56
ATOM     56  CG  HIS d   1      -4.291   5.154 -10.226  0.00  0.00     0.053 A 
ATOM     57  ND1 HIS d   1      -3.067   4.546 -10.424  0.00  0.00    -0.247 NA
ATOM     58  CE1 HIS d   1      -2.760   4.595 -11.709  0.00  0.00     0.064 A 
ATOM     59  NE2 HIS d   1      -3.720   5.247 -12.343  0.00  0.00    -0.359 N 
ATOM     60  H26 HIS d   1      -1.868   4.170 -12.168  0.00  0.00     0.143 H 
ATOM     61  CD2 HIS d   1      -4.691   5.600 -11.439  0.00  0.00     0.002 A 
ATOM     62  H27 HIS d   1      -3.736   5.456 -13.351  0.00  0.00     0.166 HD
ATOM     63  H25 HIS d   1      -5.612   6.139 -11.658  0.00  0.00     0.114 H 
ENDBRANCH  53  56
ENDBRANCH  13  53
ENDBRANCH  10  13
ENDBRANCH   7   9
BRANCH   7  64
ATOM     64  CB  ARG d   1      -0.367   5.441  -6.022  0.00  0.00    -0.036 C 
ATOM     65  H30 ARG d   1       0.679   5.101  -6.007  0.00  0.00     0.036 H 
ATOM     66  H31 ARG d   1      -0.989   4.739  -5.446  0.00  0.00     0.036 H 
BRANCH  64  67
ATOM     67  CG  ARG d   1      -0.440   6.800  -5.363  0.00  0.00    -0.048 C 
ATOM     68  H32 ARG d   1      -1.440   7.230  -5.522  0.00  0.00     0.035 H 
ATOM     69  H33 ARG d   1       0.318   7.462  -5.807  0.00  0.00     0.035 H 
BRANCH  67  70
ATOM     70  CD  ARG d   1      -0.179   6.663  -3.864  0.00  0.00     0.009 C 
ATOM     71  H34 ARG d   1       0.856   6.329  -3.703  0.00  0.00     0.064 H 
ATOM     72  H35 ARG d   1      -0.874   5.924  -3.438  0.00  0.00     0.064 H 
BRANCH  70  73
ATOM     73  NE  ARG d   1      -0.380   7.951  -3.207  0.00  0.00    -0.227 N 
ATOM     74  CZ  ARG d   1      -0.984   8.105  -2.034  0.00  0.00     0.665 C 
ATOM     75  NH1 ARG d   1      -1.450   7.050  -1.368  0.00  0.00    -0.235 N 
ATOM     76  NH2 ARG d   1      -1.123   9.323  -1.531  0.00  0.00    -0.235 N 
ATOM     77  H37 ARG d   1      -1.917   7.180  -0.459  0.00  0.00     0.174 HD
ATOM     78  H38 ARG d   1      -1.343   6.104  -1.762  0.00  0.00     0.174 HD
ATOM     79  H39 ARG d   1      -0.762  10.138  -2.047  0.00  0.00     0.174 HD
ATOM     80  H40 ARG d   1      -1.592   9.455  -0.624  0.00  0.00     0.174 HD
ATOM     81  H36 ARG d   1      -0.031   8.795  -3.684  0.00  0.00     0.177 HD
ENDBRANCH  70  73
ENDBRANCH  67  70
ENDBRANCH  64  67
ENDBRANCH   7  64
ENDBRANCH   4   7
ENDBRANCH   1   3
BRANCH   1  82
ATOM     82  C   LYS d   1       2.316   2.475  -7.237  0.00  0.00     0.241 C 
ATOM     83  O   LYS d   1       2.979   3.396  -6.729  0.00  0.00    -0.271 OA
ATOM     84  N   VAL d   1       2.200   1.277  -6.672  0.00  0.00    -0.346 N 
ATOM     85  H54 VAL d   1       1.713   0.551  -7.158  0.00  0.00     0.163 HD
BRANCH  84  86
ATOM     86  CA  VAL d   1       2.779   0.995  -5.333  0.00  0.00     0.092 C 
ATOM     87  H55 VAL d   1       3.542   1.757  -5.118  0.00  0.00     0.088 H 
BRANCH  86  88
ATOM     88  C   VAL d   1       3.423  -0.374  -5.314  0.00  0.00     0.241 C 
ATOM     89  O   VAL d   1       2.798  -1.360  -5.700  0.00  0.00    -0.271 OA
ATOM     90  N   LEU d   1       4.684  -0.453  -4.878  0.00  0.00    -0.346 N 
ATOM     91  H63 LEU d   1       5.169   0.367  -4.575  0.00  0.00     0.163 HD
BRANCH  90  92
ATOM     92  CA  LEU d   1       5.343  -1.759  -4.851  0.00  0.00     0.089 C 
ATOM     93  H64 LEU d   1       5.110  -2.282  -5.790  0.00  0.00     0.087 H 
BRANCH  92  94
ATOM     94  C   LEU d   1       4.811  -2.595  -3.692  0.00  0.00     0.241 C 
ATOM     95  O   LEU d   1       4.703  -2.086  -2.594  0.00  0.00    -0.271 OA
ATOM     96  N   ARG d   1       4.477  -3.857  -3.974  0.00  0.00    -0.349 N 
ATOM     97  H74 ARG d   1       4.591  -4.171  -4.917  0.00  0.00     0.163 HD
BRANCH  96  98
ATOM     98  CA  ARG d   1       3.950  -4.819  -2.985  0.00  0.00     0.062 C 
ATOM     99  H75 ARG d   1       4.037  -4.368  -1.986  0.00  0.00     0.083 H 
BRANCH  98 100
ATOM    100  C   ARG d   1       4.781  -6.110  -3.008  0.00  0.00     0.109 C 
ATOM    101  O   ARG d   1       5.988  -6.070  -3.235  0.00  0.00    -0.305 OA
ATOM    102  H76 ARG d   1       4.297  -7.068  -2.822  0.00  0.00     0.146 H 
ENDBRANCH  98 100
BRANCH  98 103
ATOM    103  CB  ARG d   1       2.461  -5.129  -3.244  0.00  0.00    -0.039 C 
ATOM    104  H77 ARG d   1       2.128  -5.856  -2.489  0.00  0.00     0.036 H 
ATOM    105  H78 ARG d   1       2.375  -5.575  -4.246  0.00  0.00     0.036 H 
BRANCH 103 106
ATOM    106  CG  ARG d   1       1.520  -3.912  -3.182  0.00  0.00    -0.048 C 
ATOM    107  H79 ARG d   1       1.830  -3.178  -3.940  0.00  0.00     0.035 H 
ATOM    108  H80 ARG d   1       1.585  -3.457  -2.183  0.00  0.00     0.035 H 
BRANCH 106 109
ATOM    109  CD  ARG d   1       0.077  -4.328  -3.449  0.00  0.00     0.009 C 
ATOM    110  H81 ARG d   1       0.063  -5.066  -4.265  0.00  0.00     0.064 H 
ATOM    111  H82 ARG d   1      -0.501  -3.441  -3.747  0.00  0.00     0.064 H 
BRANCH 109 112
ATOM    112  NE  ARG d   1      -0.539  -4.920  -2.263  0.00  0.00    -0.227 N 
ATOM    113  CZ  ARG d   1      -1.495  -4.347  -1.540  0.00  0.00     0.665 C 
ATOM    114  NH1 ARG d   1      -2.006  -3.170  -1.894  0.00  0.00    -0.235 N 
ATOM    115  NH2 ARG d   1      -1.963  -4.978  -0.469  0.00  0.00    -0.235 N 
ATOM    116  H84 ARG d   1      -2.747  -2.738  -1.324  0.00  0.00     0.174 HD
ATOM    117  H85 ARG d   1      -1.661  -2.692  -2.738  0.00  0.00     0.174 HD
ATOM    118  H86 ARG d   1      -1.568  -5.889  -0.194  0.00  0.00     0.174 HD
ATOM    119  H87 ARG d   1      -2.721  -4.556   0.087  0.00  0.00     0.174 HD
ATOM    120  H83 ARG d   1      -0.208  -5.849  -1.966  0.00  0.00     0.177 HD
ENDBRANCH 109 112
ENDBRANCH 106 109
ENDBRANCH 103 106
ENDBRANCH  98 103
ENDBRANCH  96  98
ENDBRANCH  92  94
BRANCH  92 121
ATOM    121  CB  LEU d   1       6.863  -1.608  -4.753  0.00  0.00    -0.035 C 
ATOM    122  H65 LEU d   1       7.091  -1.162  -3.774  0.00  0.00     0.037 H 
ATOM    123  H66 LEU d   1       7.181  -0.922  -5.552  0.00  0.00     0.037 H 
BRANCH 121 124
ATOM    124  CG  LEU d   1       7.692  -2.885  -4.883  0.00  0.00    -0.059 C 
ATOM    125  H67 LEU d   1       7.359  -3.591  -4.108  0.00  0.00     0.038 H 
BRANCH 124 126
ATOM    126  CD1 LEU d   1       7.483  -3.536  -6.246  0.00  0.00    -0.073 C 
ATOM    127  H68 LEU d   1       8.090  -4.451  -6.312  0.00  0.00     0.028 H 
ATOM    128  H69 LEU d   1       7.788  -2.836  -7.037  0.00  0.00     0.028 H 
ATOM    129  H70 LEU d   1       6.420  -3.791  -6.371  0.00  0.00     0.028 H 
ENDBRANCH 124 126
BRANCH 124 130
ATOM    130  CD2 LEU d   1       9.169  -2.596  -4.665  0.00  0.00    -0.073 C 
ATOM    131  H71 LEU d   1       9.309  -2.127  -3.680  0.00  0.00     0.028 H 
ATOM    132  H72 LEU d   1       9.529  -1.915  -5.450  0.00  0.00     0.028 H 
ATOM    133  H73 LEU d   1       9.737  -3.537  -4.707  0.00  0.00     0.028 H 
ENDBRANCH 124 130
ENDBRANCH 121 124
ENDBRANCH  92 121
ENDBRANCH  90  92
ENDBRANCH  86  88
BRANCH  86 134
ATOM    134  CB  VAL d   1       1.705   1.029  -4.213  0.00  0.00    -0.033 C 
ATOM    135  H56 VAL d   1       1.071   0.135  -4.309  0.00  0.00     0.042 H 
BRANCH 134 136
ATOM    136  CG1 VAL d   1       2.390   1.008  -2.845  0.00  0.00    -0.071 C 
ATOM    137  H57 VAL d   1       1.627   1.032  -2.053  0.00  0.00     0.028 H 
ATOM    138  H58 VAL d   1       3.046   1.886  -2.750  0.00  0.00     0.028 H 
ATOM    139  H59 VAL d   1       2.989   0.091  -2.749  0.00  0.00     0.028 H 
ENDBRANCH 134 136
BRANCH 134 140
ATOM    140  CG2 VAL d   1       0.832   2.250  -4.322  0.00  0.00    -0.071 C 
ATOM    141  H60 VAL d   1       0.341   2.263  -5.306  0.00  0.00     0.028 H 
ATOM    142  H61 VAL d   1       1.449   3.153  -4.208  0.00  0.00     0.028 H 
ATOM    143  H62 VAL d   1       0.068   2.226  -3.531  0.00  0.00     0.028 H 
ENDBRANCH 134 140
ENDBRANCH  86 134
ENDBRANCH  84  86
ENDBRANCH   1  82
BRANCH   1 144
ATOM    144  CB  LYS d   1       2.398   2.722  -9.787  0.00  0.00    -0.038 C 
ATOM    145  H43 LYS d   1       2.882   1.739  -9.883  0.00  0.00     0.036 H 
ATOM    146  H44 LYS d   1       3.167   3.500  -9.670  0.00  0.00     0.036 H 
BRANCH 144 147
ATOM    147  CG  LYS d   1       1.606   3.006 -11.075  0.00  0.00    -0.061 C 
ATOM    148  H45 LYS d   1       0.938   3.860 -10.892  0.00  0.00     0.033 H 
ATOM    149  H46 LYS d   1       1.006   2.117 -11.318  0.00  0.00     0.033 H 
BRANCH 147 150
ATOM    150  CD  LYS d   1       2.497   3.336 -12.281  0.00  0.00    -0.043 C 
ATOM    151  H47 LYS d   1       3.046   2.432 -12.583  0.00  0.00     0.035 H 
ATOM    152  H48 LYS d   1       3.212   4.123 -11.998  0.00  0.00     0.035 H 
BRANCH 150 153
ATOM    153  CE  LYS d   1       1.648   3.826 -13.457  0.00  0.00     0.080 C 
ATOM    154  H49 LYS d   1       1.094   4.724 -13.146  0.00  0.00     0.075 H 
ATOM    155  H50 LYS d   1       0.937   3.035 -13.736  0.00  0.00     0.075 H 
BRANCH 153 156
ATOM    156  NZ  LYS d   1       2.485   4.162 -14.642  0.00  0.00    -0.079 N 
ATOM    157  H51 LYS d   1       1.892   4.480 -15.393  0.00  0.00     0.274 HD
ATOM    158  H52 LYS d   1       2.993   3.343 -14.938  0.00  0.00     0.274 HD
ATOM    159  H53 LYS d   1       3.137   4.891 -14.397  0.00  0.00     0.274 HD
ENDBRANCH 153 156
ENDBRANCH 150 153
ENDBRANCH 147 150
ENDBRANCH 144 147
ENDBRANCH   1 144
TORSDOF 43
