REMARK WARNING: 32 MAX_TORS EXCEEDED!!!
REMARK  42 active torsions:
REMARK  status: ('A' for Active; 'I' for Inactive)
REMARK    1  A    between atoms: N_1  and  CA_2 
REMARK    2  A    between atoms: CA_2  and  C_3 
REMARK    3  A    between atoms: CA_2  and  CB_5 
REMARK       I    between atoms: C_3  and  N_10 
REMARK    4  A    between atoms: CB_5  and  CG_6 
REMARK    5  A    between atoms: CG_6  and  CD_7 
REMARK    6  A    between atoms: CD_7  and  CE_8 
REMARK    7  A    between atoms: CE_8  and  NZ_9 
REMARK    8  A    between atoms: N_10  and  CA_11 
REMARK    9  A    between atoms: CA_11  and  C_12 
REMARK   10  A    between atoms: CA_11  and  CB_14 
REMARK       I    between atoms: C_12  and  N_21 
REMARK   11  A    between atoms: CB_14  and  CG_15 
REMARK   12  A    between atoms: CG_15  and  CD_16 
REMARK   13  A    between atoms: CD_16  and  NE_17 
REMARK       I    between atoms: NE_17  and  CZ_18 
REMARK       I    between atoms: CZ_18  and  NH1_19 
REMARK       I    between atoms: CZ_18  and  NH2_20 
REMARK   14  A    between atoms: N_21  and  CA_22 
REMARK   15  A    between atoms: CA_22  and  C_23 
REMARK   16  A    between atoms: CA_22  and  CB_25 
REMARK       I    between atoms: C_23  and  N_31 
REMARK   17  A    between atoms: CB_25  and  CG_26 
REMARK   18  A    between atoms: N_31  and  CA_32 
REMARK   19  A    between atoms: CA_32  and  C_33 
REMARK   20  A    between atoms: CA_32  and  CB_35 
REMARK       I    between atoms: C_33  and  N_42 
REMARK   21  A    between atoms: CB_35  and  CG_36 
REMARK   22  A    between atoms: CG_36  and  CD_37 
REMARK   23  A    between atoms: CD_37  and  NE_38 
REMARK       I    between atoms: NE_38  and  CZ_39 
REMARK       I    between atoms: CZ_39  and  NH1_40 
REMARK   24  A    between atoms: N_42  and  CA_43 
REMARK   25  A    between atoms: CA_43  and  CB_44 
REMARK   26  A    between atoms: CA_43  and  C_50 
REMARK   27  A    between atoms: CB_44  and  CG_45 
REMARK   28  A    between atoms: CG_45  and  CD_46 
REMARK   29  A    between atoms: CD_46  and  CE_47 
REMARK   30  A    between atoms: CE_47  and  NZ_48 
REMARK   31  A    between atoms: NZ_48  and  CM_49 
REMARK       I    between atoms: C_50  and  N_52 
REMARK   32  A    between atoms: N_52  and  CA_53 
REMARK   33  A    between atoms: CA_53  and  C_54 
REMARK   34  A    between atoms: CA_53  and  CB_56 
REMARK       I    between atoms: C_54  and  N_59 
REMARK   35  A    between atoms: CB_56  and  CG1_57 
REMARK   36  A    between atoms: CB_56  and  CG2_58 
REMARK   37  A    between atoms: N_59  and  CA_60 
REMARK   38  A    between atoms: CA_60  and  C_61 
REMARK   39  A    between atoms: CA_60  and  CB_63 
REMARK   40  A    between atoms: CB_63  and  CG_64 
REMARK   41  A    between atoms: CG_64  and  CD1_65 
REMARK   42  A    between atoms: CG_64  and  CD2_66 
ROOT
ATOM      1  CA  ARG d   1     -15.383  -7.838  24.247  0.00  0.00     0.089 C 
ATOM      2  H37 ARG d   1     -14.590  -8.099  23.531  0.00  0.00     0.087 H 
ENDROOT
BRANCH   1   3
ATOM      3  N   ARG d   1     -15.443  -6.365  24.332  0.00  0.00    -0.346 N 
ATOM      4  C   HIS d   1     -14.494  -5.641  23.774  0.00  0.00     0.241 C 
ATOM      5  O   HIS d   1     -13.528  -6.145  23.253  0.00  0.00    -0.271 OA
ATOM      6  H36 ARG d   1     -16.200  -5.919  24.810  0.00  0.00     0.163 HD
BRANCH   4   7
ATOM      7  CA  HIS d   1     -14.711  -4.136  23.771  0.00  0.00     0.094 C 
ATOM      8  H30 HIS d   1     -14.875  -3.789  24.802  0.00  0.00     0.088 H 
BRANCH   7   9
ATOM      9  N   HIS d   1     -13.518  -3.470  23.233  0.00  0.00    -0.346 N 
ATOM     10  C   ARG d   1     -12.685  -2.799  24.036  0.00  0.00     0.241 C 
ATOM     11  O   ARG d   1     -12.962  -2.492  25.201  0.00  0.00    -0.271 OA
ATOM     12  H29 HIS d   1     -13.326  -3.519  22.253  0.00  0.00     0.163 HD
BRANCH  10  13
ATOM     13  CA  ARG d   1     -11.311  -2.480  23.479  0.00  0.00     0.089 C 
ATOM     14  H17 ARG d   1     -11.375  -2.360  22.387  0.00  0.00     0.087 H 
BRANCH  13  15
ATOM     15  N   ARG d   1     -10.784  -1.259  24.077  0.00  0.00    -0.346 N 
ATOM     16  C   LYS d   1     -10.969  -0.094  23.485  0.00  0.00     0.248 C 
ATOM     17  O   LYS d   1     -11.729   0.053  22.527  0.00  0.00    -0.271 OA
ATOM     18  H16 ARG d   1     -10.280  -1.304  24.940  0.00  0.00     0.163 HD
BRANCH  16  19
ATOM     19  CA  LYS d   1     -10.185   1.096  24.072  0.00  0.00     0.176 C 
ATOM     20  H4  LYS d   1      -9.513   0.745  24.869  0.00  0.00     0.099 H 
BRANCH  19  21
ATOM     21  N   LYS d   1      -9.368   1.710  22.970  0.00  0.00    -0.067 N 
ATOM     22  H1  LYS d   1      -8.847   2.492  23.334  0.00  0.00     0.275 HD
ATOM     23  H2  LYS d   1      -9.980   2.027  22.235  0.00  0.00     0.275 HD
ATOM     24  H3  LYS d   1      -8.729   1.022  22.602  0.00  0.00     0.275 HD
ENDBRANCH  19  21
BRANCH  19  25
ATOM     25  CB  LYS d   1     -11.185   2.094  24.659  0.00  0.00    -0.030 C 
ATOM     26  H5  LYS d   1     -11.596   1.650  25.578  0.00  0.00     0.036 H 
ATOM     27  H6  LYS d   1     -11.992   2.227  23.923  0.00  0.00     0.036 H 
BRANCH  25  28
ATOM     28  CG  LYS d   1     -10.649   3.492  25.018  0.00  0.00    -0.061 C 
ATOM     29  H7  LYS d   1     -10.678   4.131  24.123  0.00  0.00     0.033 H 
ATOM     30  H8  LYS d   1      -9.611   3.402  25.371  0.00  0.00     0.033 H 
BRANCH  28  31
ATOM     31  CD  LYS d   1     -11.509   4.135  26.129  0.00  0.00    -0.043 C 
ATOM     32  H9  LYS d   1     -11.003   5.045  26.483  0.00  0.00     0.035 H 
ATOM     33  H10 LYS d   1     -11.602   3.420  26.960  0.00  0.00     0.035 H 
BRANCH  31  34
ATOM     34  CE  LYS d   1     -12.935   4.517  25.640  0.00  0.00     0.080 C 
ATOM     35  H11 LYS d   1     -13.150   3.950  24.722  0.00  0.00     0.075 H 
ATOM     36  H12 LYS d   1     -12.949   5.594  25.418  0.00  0.00     0.075 H 
BRANCH  34  37
ATOM     37  NZ  LYS d   1     -14.045   4.218  26.668  0.00  0.00    -0.079 N 
ATOM     38  H13 LYS d   1     -14.938   4.489  26.287  0.00  0.00     0.274 HD
ATOM     39  H14 LYS d   1     -13.869   4.738  27.513  0.00  0.00     0.274 HD
ATOM     40  H15 LYS d   1     -14.054   3.232  26.876  0.00  0.00     0.274 HD
ENDBRANCH  34  37
ENDBRANCH  31  34
ENDBRANCH  28  31
ENDBRANCH  25  28
ENDBRANCH  19  25
ENDBRANCH  16  19
ENDBRANCH  13  15
BRANCH  13  41
ATOM     41  CB  ARG d   1     -10.378  -3.613  23.821  0.00  0.00    -0.036 C 
ATOM     42  H18 ARG d   1     -10.818  -4.546  23.440  0.00  0.00     0.036 H 
ATOM     43  H19 ARG d   1     -10.292  -3.668  24.916  0.00  0.00     0.036 H 
BRANCH  41  44
ATOM     44  CG  ARG d   1      -9.002  -3.480  23.252  0.00  0.00    -0.048 C 
ATOM     45  H20 ARG d   1      -8.594  -2.494  23.518  0.00  0.00     0.035 H 
ATOM     46  H21 ARG d   1      -9.053  -3.572  22.157  0.00  0.00     0.035 H 
BRANCH  44  47
ATOM     47  CD  ARG d   1      -8.097  -4.557  23.800  0.00  0.00     0.009 C 
ATOM     48  H22 ARG d   1      -7.944  -4.373  24.874  0.00  0.00     0.064 H 
ATOM     49  H23 ARG d   1      -7.131  -4.503  23.277  0.00  0.00     0.064 H 
BRANCH  47  50
ATOM     50  NE  ARG d   1      -8.643  -5.903  23.631  0.00  0.00    -0.227 N 
ATOM     51  CZ  ARG d   1      -8.681  -6.591  22.486  0.00  0.00     0.665 C 
ATOM     52  NH1 ARG d   1      -8.205  -6.047  21.356  0.00  0.00    -0.235 N 
ATOM     53  NH2 ARG d   1      -9.224  -7.824  22.468  0.00  0.00    -0.235 N 
ATOM     54  H25 ARG d   1      -8.236  -6.580  20.475  0.00  0.00     0.174 HD
ATOM     55  H26 ARG d   1      -7.809  -5.096  21.369  0.00  0.00     0.174 HD
ATOM     56  H27 ARG d   1      -9.589  -8.239  23.337  0.00  0.00     0.174 HD
ATOM     57  H28 ARG d   1      -9.274  -8.352  21.585  0.00  0.00     0.174 HD
ATOM     58  H24 ARG d   1      -9.032  -6.361  24.468  0.00  0.00     0.177 HD
ENDBRANCH  47  50
ENDBRANCH  44  47
ENDBRANCH  41  44
ENDBRANCH  13  41
ENDBRANCH  10  13
ENDBRANCH   7   9
BRANCH   7  59
ATOM     59  CB  HIS d   1     -15.966  -3.818  22.930  0.00  0.00     0.004 C 
ATOM     60  H31 HIS d   1     -16.058  -2.725  22.848  0.00  0.00     0.046 H 
ATOM     61  H32 HIS d   1     -16.844  -4.222  23.455  0.00  0.00     0.046 H 
BRANCH  59  62
ATOM     62  CG  HIS d   1     -15.940  -4.396  21.539  0.00  0.00     0.053 A 
ATOM     63  ND1 HIS d   1     -16.347  -5.706  21.277  0.00  0.00    -0.247 NA
ATOM     64  CE1 HIS d   1     -16.208  -5.950  19.986  0.00  0.00     0.064 A 
ATOM     65  NE2 HIS d   1     -15.703  -4.873  19.400  0.00  0.00    -0.359 N 
ATOM     66  H34 HIS d   1     -16.466  -6.882  19.485  0.00  0.00     0.143 H 
ATOM     67  CD2 HIS d   1     -15.530  -3.885  20.351  0.00  0.00     0.002 A 
ATOM     68  H35 HIS d   1     -15.476  -4.787  18.399  0.00  0.00     0.166 HD
ATOM     69  H33 HIS d   1     -15.138  -2.884  20.179  0.00  0.00     0.114 H 
ENDBRANCH  59  62
ENDBRANCH   7  59
ENDBRANCH   4   7
ENDBRANCH   1   3
BRANCH   1  70
ATOM     70  C   ARG d   1     -16.717  -8.393  23.701  0.00  0.00     0.241 C 
ATOM     71  O   ARG d   1     -17.527  -7.664  23.167  0.00  0.00    -0.271 OA
ATOM     72  N   MLZ d   1     -16.850  -9.722  23.733  0.00  0.00    -0.346 N 
ATOM     73  H49 MLZ d   1     -16.024 -10.259  23.904  0.00  0.00     0.163 HD
BRANCH  72  74
ATOM     74  CA  MLZ d   1     -18.101 -10.464  23.539  0.00  0.00     0.089 C 
ATOM     75  H50 MLZ d   1     -18.925  -9.747  23.409  0.00  0.00     0.087 H 
BRANCH  74  76
ATOM     76  CB  MLZ d   1     -18.070 -11.396  22.316  0.00  0.00    -0.038 C 
ATOM     77  H51 MLZ d   1     -19.031 -11.924  22.230  0.00  0.00     0.036 H 
ATOM     78  H52 MLZ d   1     -17.258 -12.129  22.431  0.00  0.00     0.036 H 
BRANCH  76  79
ATOM     79  CG  MLZ d   1     -17.829 -10.553  21.051  0.00  0.00    -0.061 C 
ATOM     80  H53 MLZ d   1     -16.988  -9.866  21.223  0.00  0.00     0.033 H 
ATOM     81  H54 MLZ d   1     -18.734  -9.973  20.819  0.00  0.00     0.033 H 
BRANCH  79  82
ATOM     82  CD  MLZ d   1     -17.494 -11.496  19.855  0.00  0.00    -0.043 C 
ATOM     83  H55 MLZ d   1     -18.398 -12.037  19.540  0.00  0.00     0.035 H 
ATOM     84  H56 MLZ d   1     -16.719 -12.218  20.153  0.00  0.00     0.035 H 
BRANCH  82  85
ATOM     85  CE  MLZ d   1     -16.978 -10.621  18.699  0.00  0.00     0.081 C 
ATOM     86  H57 MLZ d   1     -16.163  -9.990  19.084  0.00  0.00     0.075 H 
ATOM     87  H58 MLZ d   1     -17.806  -9.983  18.356  0.00  0.00     0.075 H 
BRANCH  85  88
ATOM     88  NZ  MLZ d   1     -16.469 -11.371  17.542  0.00  0.00    -0.079 N 
ATOM     89  H59 MLZ d   1     -17.242 -11.849  17.107  0.00  0.00     0.276 HD
ATOM     90  H60 MLZ d   1     -15.798 -12.047  17.871  0.00  0.00     0.276 HD
BRANCH  88  91
ATOM     91  CM  MLZ d   1     -15.832 -10.542  16.553  0.00  0.00     0.065 C 
ATOM     92  H61 MLZ d   1     -15.478 -11.169  15.722  0.00  0.00     0.067 H 
ATOM     93  H62 MLZ d   1     -14.977 -10.020  17.008  0.00  0.00     0.067 H 
ATOM     94  H63 MLZ d   1     -16.553  -9.803  16.174  0.00  0.00     0.067 H 
ENDBRANCH  88  91
ENDBRANCH  85  88
ENDBRANCH  82  85
ENDBRANCH  79  82
ENDBRANCH  76  79
ENDBRANCH  74  76
BRANCH  74  95
ATOM     95  C   MLZ d   1     -18.324 -11.270  24.783  0.00  0.00     0.241 C 
ATOM     96  O   MLZ d   1     -17.403 -11.745  25.401  0.00  0.00    -0.271 OA
ATOM     97  N   VAL d   1     -19.554 -11.327  25.229  0.00  0.00    -0.346 N 
ATOM     98  H64 VAL d   1     -20.285 -10.879  24.713  0.00  0.00     0.163 HD
BRANCH  97  99
ATOM     99  CA  VAL d   1     -19.882 -12.042  26.482  0.00  0.00     0.092 C 
ATOM    100  H65 VAL d   1     -19.054 -12.720  26.735  0.00  0.00     0.088 H 
BRANCH  99 101
ATOM    101  C   VAL d   1     -21.166 -12.812  26.286  0.00  0.00     0.241 C 
ATOM    102  O   VAL d   1     -22.137 -12.276  25.774  0.00  0.00    -0.271 OA
ATOM    103  N   LEU d   1     -21.171 -14.086  26.672  0.00  0.00    -0.345 N 
ATOM    104  H73 LEU d   1     -20.330 -14.513  27.004  0.00  0.00     0.163 HD
BRANCH 103 105
ATOM    105  CA  LEU d   1     -22.416 -14.863  26.609  0.00  0.00     0.096 C 
ATOM    106  H74 LEU d   1     -22.920 -14.617  25.663  0.00  0.00     0.089 H 
BRANCH 105 107
ATOM    107  C   LEU d   1     -23.384 -14.465  27.779  0.00  0.00     0.196 C 
ATOM    108  O   LEU d   1     -23.019 -14.505  28.984  0.00  0.00    -0.646 OA
ATOM    109  O75 LEU d   1     -24.557 -14.096  27.506  0.00  0.00    -0.646 OA
ENDBRANCH 105 107
BRANCH 105 110
ATOM    110  CB  LEU d   1     -22.107 -16.403  26.596  0.00  0.00    -0.034 C 
ATOM    111  H75 LEU d   1     -21.659 -16.656  27.568  0.00  0.00     0.037 H 
ATOM    112  H76 LEU d   1     -21.374 -16.584  25.796  0.00  0.00     0.037 H 
BRANCH 110 113
ATOM    113  CG  LEU d   1     -23.284 -17.368  26.367  0.00  0.00    -0.059 C 
ATOM    114  H77 LEU d   1     -24.079 -17.115  27.084  0.00  0.00     0.038 H 
BRANCH 113 115
ATOM    115  CD1 LEU d   1     -23.837 -17.202  24.979  0.00  0.00    -0.073 C 
ATOM    116  H78 LEU d   1     -24.676 -17.898  24.833  0.00  0.00     0.028 H 
ATOM    117  H79 LEU d   1     -23.049 -17.418  24.242  0.00  0.00     0.028 H 
ATOM    118  H80 LEU d   1     -24.191 -16.169  24.846  0.00  0.00     0.028 H 
ENDBRANCH 113 115
BRANCH 113 119
ATOM    119  CD2 LEU d   1     -22.858 -18.830  26.623  0.00  0.00    -0.073 C 
ATOM    120  H81 LEU d   1     -22.458 -18.922  27.644  0.00  0.00     0.028 H 
ATOM    121  H82 LEU d   1     -22.082 -19.118  25.898  0.00  0.00     0.028 H 
ATOM    122  H83 LEU d   1     -23.730 -19.491  26.510  0.00  0.00     0.028 H 
ENDBRANCH 113 119
ENDBRANCH 110 113
ENDBRANCH 105 110
ENDBRANCH 103 105
ENDBRANCH  99 101
BRANCH  99 123
ATOM    123  CB  VAL d   1     -20.169 -11.108  27.663  0.00  0.00    -0.033 C 
ATOM    124  H66 VAL d   1     -21.195 -10.725  27.554  0.00  0.00     0.042 H 
BRANCH 123 125
ATOM    125  CG1 VAL d   1     -20.109 -11.945  28.946  0.00  0.00    -0.071 C 
ATOM    126  H67 VAL d   1     -20.311 -11.300  29.814  0.00  0.00     0.028 H 
ATOM    127  H68 VAL d   1     -19.109 -12.391  29.046  0.00  0.00     0.028 H 
ATOM    128  H69 VAL d   1     -20.864 -12.744  28.898  0.00  0.00     0.028 H 
ENDBRANCH 123 125
BRANCH 123 129
ATOM    129  CG2 VAL d   1     -19.257  -9.918  27.695  0.00  0.00    -0.071 C 
ATOM    130  H70 VAL d   1     -19.347  -9.362  26.750  0.00  0.00     0.028 H 
ATOM    131  H71 VAL d   1     -18.218 -10.255  27.825  0.00  0.00     0.028 H 
ATOM    132  H72 VAL d   1     -19.537  -9.264  28.534  0.00  0.00     0.028 H 
ENDBRANCH 123 129
ENDBRANCH  99 123
ENDBRANCH  97  99
ENDBRANCH  74  95
ENDBRANCH  72  74
ENDBRANCH   1  70
BRANCH   1 133
ATOM    133  CB  ARG d   1     -15.021  -8.482  25.587  0.00  0.00    -0.036 C 
ATOM    134  H38 ARG d   1     -14.049  -8.089  25.919  0.00  0.00     0.036 H 
ATOM    135  H39 ARG d   1     -14.949  -9.571  25.450  0.00  0.00     0.036 H 
BRANCH 133 136
ATOM    136  CG  ARG d   1     -16.002  -8.205  26.596  0.00  0.00    -0.048 C 
ATOM    137  H40 ARG d   1     -16.984  -8.579  26.271  0.00  0.00     0.035 H 
ATOM    138  H41 ARG d   1     -16.061  -7.120  26.767  0.00  0.00     0.035 H 
BRANCH 136 139
ATOM    139  CD  ARG d   1     -15.599  -8.885  27.847  0.00  0.00     0.009 C 
ATOM    140  H42 ARG d   1     -14.603  -8.524  28.143  0.00  0.00     0.064 H 
ATOM    141  H43 ARG d   1     -15.558  -9.969  27.665  0.00  0.00     0.064 H 
BRANCH 139 142
ATOM    142  NE  ARG d   1     -16.526  -8.627  28.920  0.00  0.00    -0.227 N 
ATOM    143  CZ  ARG d   1     -16.680  -9.454  29.959  0.00  0.00     0.665 C 
ATOM    144  NH1 ARG d   1     -16.026 -10.618  29.990  0.00  0.00    -0.235 N 
ATOM    145  NH2 ARG d   1     -17.528  -9.150  30.923  0.00  0.00    -0.235 N 
ATOM    146  H45 ARG d   1     -16.145 -11.255  30.791  0.00  0.00     0.174 HD
ATOM    147  H46 ARG d   1     -15.402 -10.879  29.213  0.00  0.00     0.174 HD
ATOM    148  H47 ARG d   1     -18.033  -8.253  30.901  0.00  0.00     0.174 HD
ATOM    149  H48 ARG d   1     -17.685  -9.810  31.698  0.00  0.00     0.174 HD
ATOM    150  H44 ARG d   1     -17.094  -7.769  28.885  0.00  0.00     0.177 HD
ENDBRANCH 139 142
ENDBRANCH 136 139
ENDBRANCH 133 136
ENDBRANCH   1 133
TORSDOF 42
