REMARK  5 active torsions:
REMARK  status: ('A' for Active; 'I' for Inactive)
REMARK    1  A    between atoms: C1_2  and  C2_4 
REMARK    2  A    between atoms: C2_4  and  O4_5 
REMARK    3  A    between atoms: C2_4  and  O3_6 
REMARK    4  A    between atoms: C2_4  and  C3_7 
REMARK    5  A    between atoms: C3_7  and  C4_10 
ROOT
ATOM      1  C2  OAF d   1      -5.452 -27.995  -2.914  0.00  0.00     0.330 C 
ENDROOT
BRANCH   1   2
ATOM      2  C1  OAF d   1      -6.804 -27.763  -3.648  0.00  0.00     0.246 C 
ATOM      3  O2  OAF d   1      -7.668 -28.681  -3.621  0.00  0.00    -0.644 OA
ATOM      4  O1  OAF d   1      -6.901 -26.665  -4.256  0.00  0.00    -0.644 OA
ENDBRANCH   1   2
BRANCH   1   5
ATOM      5  O4  OAF d   1      -5.495 -28.513  -1.598  0.00  0.00    -0.352 OA
ATOM      6  H1  OAF d   1      -5.976 -27.915  -1.039  0.00  0.00     0.214 HD
ENDBRANCH   1   5
BRANCH   1   7
ATOM      7  O3  OAF d   1      -4.787 -26.747  -2.749  0.00  0.00    -0.352 OA
ATOM      8  H2  OAF d   1      -4.709 -26.317  -3.592  0.00  0.00     0.214 HD
ENDBRANCH   1   7
BRANCH   1   9
ATOM      9  C3  OAF d   1      -4.672 -28.968  -3.785  0.00  0.00     0.394 C 
ATOM     10  F1  OAF d   1      -4.757 -28.651  -5.048  0.00  0.00    -0.187 F 
ATOM     11  F2  OAF d   1      -5.159 -30.193  -3.735  0.00  0.00    -0.187 F 
BRANCH   9  12
ATOM     12  C4  OAF d   1      -3.264 -28.978  -3.303  0.00  0.00     0.255 C 
ATOM     13  O5  OAF d   1      -2.525 -28.040  -3.715  0.00  0.00    -0.643 OA
ATOM     14  O6  OAF d   1      -2.978 -29.921  -2.524  0.00  0.00    -0.643 OA
ENDBRANCH   9  12
ENDBRANCH   1   9
TORSDOF 5
