REMARK  5 active torsions:
REMARK  status: ('A' for Active; 'I' for Inactive)
REMARK    1  A    between atoms: C9_9  and  C11_11 
REMARK    2  A    between atoms: C12_12  and  C16_16 
REMARK    3  A    between atoms: C14_14  and  N22_22 
REMARK    4  A    between atoms: C20_20  and  C23_23 
REMARK       I    between atoms: N22_22  and  C25_25 
REMARK    5  A    between atoms: C25_25  and  C27_27 
ROOT
ATOM      1  C11 55F d   1      76.078  26.004  91.494  0.00  0.00     0.115 A 
ATOM      2  C12 55F d   1      76.518  27.244  91.012  0.00  0.00     0.108 A 
ATOM      3  N13 55F d   1      77.034  27.088  89.745  0.00  0.00    -0.185 N 
ATOM      4  C14 55F d   1      76.934  25.829  89.434  0.00  0.00     0.708 A 
ATOM      5  N15 55F d   1      76.361  25.136  90.465  0.00  0.00    -0.061 NA
ATOM      6  H6  55F d   1      77.427  27.832  89.152  0.00  0.00     0.184 HD
ENDROOT
BRANCH   1   7
ATOM      7  C9  55F d   1      75.457  25.519  92.719  0.00  0.00    -0.002 A 
ATOM      8  C8  55F d   1      74.439  26.272  93.387  0.00  0.00    -0.068 A 
ATOM      9  C7  55F d   1      73.842  25.779  94.577  0.00  0.00    -0.052 A 
ATOM     10  H4  55F d   1      74.122  27.226  92.981  0.00  0.00     0.085 H 
ATOM     11  C4  55F d   1      74.238  24.544  95.116  0.00  0.00     0.085 A 
ATOM     12  H3  55F d   1      73.074  26.361  95.074  0.00  0.00     0.087 H 
ATOM     13  N3  55F d   1      73.651  24.083  96.255  0.00  0.00    -0.257 NA
ATOM     14  C5  55F d   1      75.276  23.768  94.443  0.00  0.00     0.086 A 
ATOM     15  C2  55F d   1      74.074  22.871  96.735  0.00  0.00     0.020 A 
ATOM     16  C1  55F d   1      75.070  22.124  96.095  0.00  0.00     0.020 A 
ATOM     17  H2  55F d   1      73.623  22.478  97.639  0.00  0.00     0.117 H 
ATOM     18  N6  55F d   1      75.678  22.566  94.945  0.00  0.00    -0.257 NA
ATOM     19  H1  55F d   1      75.369  21.172  96.518  0.00  0.00     0.117 H 
ATOM     20  C10 55F d   1      75.862  24.270  93.265  0.00  0.00    -0.041 A 
ATOM     21  H5  55F d   1      76.634  23.695  92.766  0.00  0.00     0.088 H 
ENDBRANCH   1   7
BRANCH   2  22
ATOM     22  C16 55F d   1      76.502  28.570  91.641  0.00  0.00     0.087 A 
ATOM     23  C17 55F d   1      76.776  28.725  93.020  0.00  0.00    -0.050 A 
ATOM     24  C18 55F d   1      76.757  30.005  93.584  0.00  0.00    -0.041 A 
ATOM     25  H7  55F d   1      76.999  27.860  93.634  0.00  0.00     0.087 H 
ATOM     26  C19 55F d   1      76.469  31.105  92.781  0.00  0.00     0.140 A 
ATOM     27  H8  55F d   1      76.965  30.139  94.639  0.00  0.00     0.088 H 
ATOM     28  C20 55F d   1      76.209  30.908  91.415  0.00  0.00     0.070 A 
ATOM     29  F24 55F d   1      76.449  32.319  93.317  0.00  0.00    -0.204 F 
ATOM     30  N21 55F d   1      76.221  29.649  90.839  0.00  0.00    -0.248 NA
BRANCH  28  31
ATOM     31  C23 55F d   1      75.902  32.080  90.530  0.00  0.00    -0.033 C 
ATOM     32  H10 55F d   1      75.728  31.728  89.502  0.00  0.00     0.035 H 
ATOM     33  H11 55F d   1      76.751  32.779  90.539  0.00  0.00     0.035 H 
ATOM     34  H12 55F d   1      75.001  32.592  90.899  0.00  0.00     0.035 H 
ENDBRANCH  28  31
ENDBRANCH   2  22
BRANCH   4  35
ATOM     35  N22 55F d   1      77.323  25.205  88.269  0.00  0.00    -0.158 N 
ATOM     36  C25 55F d   1      77.787  23.893  88.235  0.00  0.00     0.232 C 
ATOM     37  O26 55F d   1      77.924  23.101  89.174  0.00  0.00    -0.273 OA
ATOM     38  H9  55F d   1      77.270  25.716  87.411  0.00  0.00     0.187 HD
BRANCH  36  39
ATOM     39  C27 55F d   1      78.142  23.472  86.830  0.00  0.00    -0.002 C 
ATOM     40  H13 55F d   1      78.504  22.433  86.839  0.00  0.00     0.040 H 
ATOM     41  H14 55F d   1      78.930  24.132  86.438  0.00  0.00     0.040 H 
ATOM     42  H15 55F d   1      77.251  23.544  86.189  0.00  0.00     0.040 H 
ENDBRANCH  36  39
ENDBRANCH   4  35
TORSDOF 5
