REMARK  24 active torsions:
REMARK  status: ('A' for Active; 'I' for Inactive)
REMARK    1  A    between atoms: N_1  and  CA_2 
REMARK    2  A    between atoms: CA_2  and  C_3 
REMARK    3  A    between atoms: CA_2  and  CB_5 
REMARK       I    between atoms: C_3  and  N_6 
REMARK    4  A    between atoms: N_6  and  CA_7 
REMARK    5  A    between atoms: CA_7  and  C_8 
REMARK    6  A    between atoms: CA_7  and  CB_10 
REMARK       I    between atoms: C_8  and  N_11 
REMARK    7  A    between atoms: N_11  and  CA_12 
REMARK    8  A    between atoms: CA_12  and  C_13 
REMARK       I    between atoms: C_13  and  N_15 
REMARK    9  A    between atoms: N_15  and  CA_16 
REMARK   10  A    between atoms: CA_16  and  C_17 
REMARK       I    between atoms: C_17  and  N_19 
REMARK   11  A    between atoms: N_19  and  CA_20 
REMARK   12  A    between atoms: CA_20  and  C_21 
REMARK   13  A    between atoms: CA_20  and  CB_23 
REMARK       I    between atoms: C_21  and  N_24 
REMARK   14  A    between atoms: N_24  and  CA_25 
REMARK   15  A    between atoms: CA_25  and  C_26 
REMARK   16  A    between atoms: CA_25  and  CB_28 
REMARK       I    between atoms: C_26  and  N_29 
REMARK   17  A    between atoms: N_29  and  CA_30 
REMARK   18  A    between atoms: CA_30  and  C_31 
REMARK   19  A    between atoms: CA_30  and  CB_33 
REMARK       I    between atoms: C_31  and  N_34 
REMARK   20  A    between atoms: N_34  and  CA_35 
REMARK   21  A    between atoms: CA_35  and  C_36 
REMARK       I    between atoms: C_36  and  N_38 
REMARK   22  A    between atoms: N_38  and  CA_39 
REMARK   23  A    between atoms: CA_39  and  C_40 
REMARK   24  A    between atoms: CA_39  and  CB_42 
ROOT
ATOM      1  CA  UNK d   1       5.695  12.436  74.762  0.00  0.00     0.086 C 
ATOM      2  H20 UNK d   1       6.589  11.888  75.095  0.00  0.00     0.086 H 
ENDROOT
BRANCH   1   3
ATOM      3  N   UNK d   1       4.752  11.386  74.267  0.00  0.00    -0.347 N 
ATOM      4  C   UNK d   1       4.272  10.238  74.835  0.00  0.00     0.236 C 
ATOM      5  O   UNK d   1       4.512   9.875  75.991  0.00  0.00    -0.272 OA
ATOM      6  H19 UNK d   1       4.406  11.556  73.344  0.00  0.00     0.163 HD
BRANCH   4   7
ATOM      7  CA  UNK d   1       3.414   9.378  73.869  0.00  0.00     0.069 C 
ATOM      8  H17 UNK d   1       2.818  10.091  73.280  0.00  0.00     0.078 H 
ATOM      9  H18 UNK d   1       4.128   8.864  73.209  0.00  0.00     0.078 H 
BRANCH   7  10
ATOM     10  N   UNK d   1       2.463   8.336  74.326  0.00  0.00    -0.351 N 
ATOM     11  C   UNK d   1       2.480   7.176  73.645  0.00  0.00     0.235 C 
ATOM     12  O   UNK d   1       3.397   6.929  72.850  0.00  0.00    -0.272 OA
ATOM     13  H16 UNK d   1       1.844   8.487  75.097  0.00  0.00     0.163 HD
BRANCH  11  14
ATOM     14  CA  UNK d   1       1.358   6.169  73.858  0.00  0.00     0.069 C 
ATOM     15  H14 UNK d   1       1.638   5.351  74.538  0.00  0.00     0.078 H 
ATOM     16  H15 UNK d   1       0.425   6.634  74.209  0.00  0.00     0.078 H 
BRANCH  14  17
ATOM     17  N   UNK d   1       1.298   5.757  72.475  0.00  0.00    -0.351 N 
ATOM     18  C   UNK d   1       0.867   6.485  71.478  0.00  0.00     0.240 C 
ATOM     19  O   UNK d   1       0.241   7.547  71.515  0.00  0.00    -0.271 OA
ATOM     20  H13 UNK d   1       1.614   4.833  72.261  0.00  0.00     0.163 HD
BRANCH  18  21
ATOM     21  CA  UNK d   1       1.262   5.777  70.213  0.00  0.00     0.086 C 
ATOM     22  H9  UNK d   1       1.598   4.776  70.522  0.00  0.00     0.086 H 
BRANCH  21  23
ATOM     23  N   UNK d   1       0.271   5.564  69.192  0.00  0.00    -0.346 N 
ATOM     24  C   UNK d   1       0.299   4.454  68.410  0.00  0.00     0.248 C 
ATOM     25  O   UNK d   1       1.141   3.573  68.510  0.00  0.00    -0.271 OA
ATOM     26  H8  UNK d   1      -0.450   6.244  69.056  0.00  0.00     0.163 HD
BRANCH  24  27
ATOM     27  CA  UNK d   1      -0.829   4.339  67.399  0.00  0.00     0.172 C 
ATOM     28  H4  UNK d   1      -1.135   5.357  67.115  0.00  0.00     0.098 H 
BRANCH  27  29
ATOM     29  N   UNK d   1      -0.387   3.643  66.187  0.00  0.00    -0.067 N 
ATOM     30  H1  UNK d   1      -1.154   3.582  65.536  0.00  0.00     0.275 HD
ATOM     31  H2  UNK d   1      -0.075   2.715  66.427  0.00  0.00     0.275 HD
ATOM     32  H3  UNK d   1       0.372   4.154  65.764  0.00  0.00     0.275 HD
ENDBRANCH  27  29
BRANCH  27  33
ATOM     33  CB  UNK d   1      -2.039   3.633  68.010  0.00  0.00    -0.042 C 
ATOM     34  H5  UNK d   1      -2.356   4.168  68.917  0.00  0.00     0.030 H 
ATOM     35  H6  UNK d   1      -1.768   2.599  68.270  0.00  0.00     0.030 H 
ATOM     36  H7  UNK d   1      -2.864   3.623  67.282  0.00  0.00     0.030 H 
ENDBRANCH  27  33
ENDBRANCH  24  27
ENDBRANCH  21  23
BRANCH  21  37
ATOM     37  CB  UNK d   1       2.444   6.496  69.589  0.00  0.00    -0.049 C 
ATOM     38  H10 UNK d   1       3.214   6.668  70.355  0.00  0.00     0.030 H 
ATOM     39  H11 UNK d   1       2.111   7.461  69.180  0.00  0.00     0.030 H 
ATOM     40  H12 UNK d   1       2.863   5.879  68.780  0.00  0.00     0.030 H 
ENDBRANCH  21  37
ENDBRANCH  18  21
ENDBRANCH  14  17
ENDBRANCH  11  14
ENDBRANCH   7  10
ENDBRANCH   4   7
ENDBRANCH   1   3
BRANCH   1  41
ATOM     41  C   UNK d   1       5.339  13.380  75.939  0.00  0.00     0.240 C 
ATOM     42  O   UNK d   1       5.040  12.953  77.059  0.00  0.00    -0.271 OA
ATOM     43  N   UNK d   1       5.460  14.685  75.579  0.00  0.00    -0.346 N 
ATOM     44  H24 UNK d   1       5.803  14.866  74.657  0.00  0.00     0.163 HD
BRANCH  43  45
ATOM     45  CA  UNK d   1       5.144  15.839  76.391  0.00  0.00     0.086 C 
ATOM     46  H25 UNK d   1       5.519  15.688  77.414  0.00  0.00     0.086 H 
BRANCH  45  47
ATOM     47  C   UNK d   1       3.624  15.913  76.398  0.00  0.00     0.240 C 
ATOM     48  O   UNK d   1       3.007  16.140  75.362  0.00  0.00    -0.271 OA
ATOM     49  N   UNK d   1       3.047  15.717  77.539  0.00  0.00    -0.346 N 
ATOM     50  H29 UNK d   1       3.654  15.542  78.315  0.00  0.00     0.163 HD
BRANCH  49  51
ATOM     51  CA  UNK d   1       1.607  15.721  77.832  0.00  0.00     0.086 C 
ATOM     52  H30 UNK d   1       1.373  14.681  78.103  0.00  0.00     0.086 H 
BRANCH  51  53
ATOM     53  C   UNK d   1       0.513  16.119  76.811  0.00  0.00     0.240 C 
ATOM     54  O   UNK d   1      -0.661  15.918  77.160  0.00  0.00    -0.271 OA
ATOM     55  N   UNK d   1       0.743  16.655  75.632  0.00  0.00    -0.351 N 
ATOM     56  H34 UNK d   1       1.683  16.806  75.326  0.00  0.00     0.163 HD
BRANCH  55  57
ATOM     57  CA  UNK d   1      -0.393  17.035  74.757  0.00  0.00     0.069 C 
ATOM     58  H35 UNK d   1       0.015  17.401  73.803  0.00  0.00     0.078 H 
ATOM     59  H36 UNK d   1      -0.952  17.844  75.251  0.00  0.00     0.078 H 
BRANCH  57  60
ATOM     60  C   UNK d   1      -1.375  15.888  74.452  0.00  0.00     0.235 C 
ATOM     61  O   UNK d   1      -0.998  14.728  74.597  0.00  0.00    -0.272 OA
ATOM     62  N   UNK d   1      -2.597  16.202  74.033  0.00  0.00    -0.349 N 
ATOM     63  H37 UNK d   1      -2.843  17.168  73.953  0.00  0.00     0.163 HD
BRANCH  62  64
ATOM     64  CA  UNK d   1      -3.596  15.193  73.684  0.00  0.00     0.059 C 
ATOM     65  H38 UNK d   1      -3.150  14.201  73.851  0.00  0.00     0.083 H 
BRANCH  64  66
ATOM     66  C   UNK d   1      -4.010  15.284  72.223  0.00  0.00     0.109 C 
ATOM     67  O   UNK d   1      -4.430  16.342  71.749  0.00  0.00    -0.305 OA
ATOM     68  H39 UNK d   1      -3.934  14.403  71.587  0.00  0.00     0.146 H 
ENDBRANCH  64  66
BRANCH  64  69
ATOM     69  CB  UNK d   1      -4.817  15.325  74.580  0.00  0.00    -0.051 C 
ATOM     70  H40 UNK d   1      -5.558  14.560  74.305  0.00  0.00     0.030 H 
ATOM     71  H41 UNK d   1      -5.258  16.325  74.454  0.00  0.00     0.030 H 
ATOM     72  H42 UNK d   1      -4.519  15.186  75.629  0.00  0.00     0.030 H 
ENDBRANCH  64  69
ENDBRANCH  62  64
ENDBRANCH  57  60
ENDBRANCH  55  57
ENDBRANCH  51  53
BRANCH  51  73
ATOM     73  CB  UNK d   1       1.406  16.588  79.060  0.00  0.00    -0.049 C 
ATOM     74  H31 UNK d   1       0.337  16.619  79.316  0.00  0.00     0.030 H 
ATOM     75  H32 UNK d   1       1.763  17.607  78.852  0.00  0.00     0.030 H 
ATOM     76  H33 UNK d   1       1.973  16.166  79.903  0.00  0.00     0.030 H 
ENDBRANCH  51  73
ENDBRANCH  49  51
ENDBRANCH  45  47
BRANCH  45  77
ATOM     77  CB  UNK d   1       5.750  17.125  75.834  0.00  0.00    -0.049 C 
ATOM     78  H26 UNK d   1       5.481  17.969  76.486  0.00  0.00     0.030 H 
ATOM     79  H27 UNK d   1       5.361  17.305  74.821  0.00  0.00     0.030 H 
ATOM     80  H28 UNK d   1       6.845  17.027  75.794  0.00  0.00     0.030 H 
ENDBRANCH  45  77
ENDBRANCH  43  45
ENDBRANCH   1  41
BRANCH   1  81
ATOM     81  CB  UNK d   1       6.084  13.291  73.567  0.00  0.00    -0.049 C 
ATOM     82  H21 UNK d   1       6.780  14.079  73.891  0.00  0.00     0.030 H 
ATOM     83  H22 UNK d   1       5.183  13.752  73.137  0.00  0.00     0.030 H 
ATOM     84  H23 UNK d   1       6.571  12.661  72.808  0.00  0.00     0.030 H 
ENDBRANCH   1  81
TORSDOF 24
