REMARK  3 active torsions:
REMARK  status: ('A' for Active; 'I' for Inactive)
REMARK    1  A    between atoms: C5_5  and  S6_6 
REMARK    2  A    between atoms: S6_6  and  C7_7 
REMARK    3  A    between atoms: C11_11  and  C12_12 
ROOT
ATOM      1  C7  52P d   1      43.272  31.088  30.514  0.00  0.00     0.090 A 
ATOM      2  C8  52P d   1      44.563  30.764  30.028  0.00  0.00    -0.047 A 
ATOM      3  C9  52P d   1      45.600  31.634  30.192  0.00  0.00    -0.055 A 
ATOM      4  C10 52P d   1      45.368  32.864  30.856  0.00  0.00     0.053 A 
ATOM      5  C11 52P d   1      46.399  33.815  31.063  0.00  0.00     0.096 A 
ATOM      6  C20 52P d   1      46.039  35.012  31.748  0.00  0.00     0.258 A 
ATOM      7  O21 52P d   1      46.882  35.874  31.962  0.00  0.00    -0.270 OA
ATOM      8  N22 52P d   1      44.777  35.206  32.165  0.00  0.00    -0.206 NA
ATOM      9  C23 52P d   1      43.843  34.320  31.964  0.00  0.00     0.089 A 
ATOM     10  N24 52P d   1      44.097  33.150  31.320  0.00  0.00    -0.252 N 
ATOM     11  N25 52P d   1      43.056  32.230  31.133  0.00  0.00    -0.286 N 
ATOM     12  H3  52P d   1      44.728  29.815  29.521  0.00  0.00     0.087 H 
ATOM     13  H4  52P d   1      46.593  31.387  29.818  0.00  0.00     0.086 H 
ATOM     14  H5  52P d   1      46.171  34.283  30.094  0.00  0.00     0.072 H 
ATOM     15  H9  52P d   1      42.834  34.522  32.321  0.00  0.00     0.146 H 
ATOM     16  H10 52P d   1      42.113  32.450  31.483  0.00  0.00     0.188 HD
ENDROOT
BRANCH   1  17
ATOM     17  S6  52P d   1      41.965  29.915  30.287  0.00  0.00    -0.068 SA
BRANCH  17  18
ATOM     18  C5  52P d   1      40.431  30.720  30.580  0.00  0.00     0.045 A 
ATOM     19  C4  52P d   1      39.691  30.389  31.715  0.00  0.00    -0.060 A 
ATOM     20  C3  52P d   1      38.475  31.011  31.950  0.00  0.00    -0.044 A 
ATOM     21  H2  52P d   1      40.066  29.648  32.411  0.00  0.00     0.085 H 
ATOM     22  C2  52P d   1      38.021  31.952  31.038  0.00  0.00     0.119 A 
ATOM     23  H1  52P d   1      37.890  30.767  32.829  0.00  0.00     0.088 H 
ATOM     24  F1  52P d   1      36.851  32.567  31.245  0.00  0.00    -0.206 F 
ATOM     25  C28 52P d   1      38.749  32.285  29.903  0.00  0.00    -0.007 A 
ATOM     26  C26 52P d   1      39.957  31.664  29.669  0.00  0.00     0.136 A 
ATOM     27  H11 52P d   1      38.371  33.026  29.208  0.00  0.00     0.093 H 
ATOM     28  F27 52P d   1      40.667  31.975  28.568  0.00  0.00    -0.205 F 
ENDBRANCH  17  18
ENDBRANCH   1  17
BRANCH   5  29
ATOM     29  C12 52P d   1      47.801  33.594  30.613  0.00  0.00     0.004 A 
ATOM     30  C13 52P d   1      48.695  32.801  31.355  0.00  0.00     0.043 A 
ATOM     31 CL14 52P d   1      48.215  32.025  32.830  0.00  0.00    -0.084 Cl
ATOM     32  C15 52P d   1      49.998  32.610  30.909  0.00  0.00    -0.061 A 
ATOM     33  C16 52P d   1      50.430  33.210  29.739  0.00  0.00    -0.080 A 
ATOM     34  H6  52P d   1      50.678  31.989  31.480  0.00  0.00     0.086 H 
ATOM     35  C17 52P d   1      49.564  34.003  29.003  0.00  0.00    -0.061 A 
ATOM     36  H7  52P d   1      51.448  33.059  29.398  0.00  0.00     0.083 H 
ATOM     37  C18 52P d   1      48.262  34.194  29.435  0.00  0.00     0.043 A 
ATOM     38  H8  52P d   1      49.906  34.474  28.088  0.00  0.00     0.086 H 
ATOM     39 CL19 52P d   1      47.187  35.185  28.496  0.00  0.00    -0.084 Cl
ENDBRANCH   5  29
TORSDOF 3
