REMARK  15 active torsions:
REMARK  status: ('A' for Active; 'I' for Inactive)
REMARK    1  A    between atoms: C16_10  and  O37_25 
REMARK    2  A    between atoms: C39_23  and  C17_11 
REMARK    3  A    between atoms: C21_13  and  C31_16 
REMARK    4  A    between atoms: N22_14  and  C36_21 
REMARK    5  A    between atoms: C31_16  and  C32_17 
REMARK    6  A    between atoms: C33_18  and  C34_19 
REMARK    7  A    between atoms: C33_18  and  C35_20 
REMARK    8  A    between atoms: N23_31  and  C33_18 
REMARK    9  A    between atoms: O37_25  and  C38_22 
REMARK       I    between atoms: N41_37  and  C39_23 
REMARK   10  A    between atoms: C14_26  and  N19_27 
REMARK   11  A    between atoms: N19_27  and  C26_28 
REMARK   12  A    between atoms: C9_38  and  N41_37 
REMARK   13  A    between atoms: C10_39  and  N3_40 
REMARK   14  A    between atoms: N4_41  and  C42_42 
REMARK   15  A    between atoms: C42_42  and  C43_43 
ROOT
ATOM      1  C15 IBI d   1      47.231  -9.355   7.919  0.00  0.00    -0.065 A 
ATOM      2  C16 IBI d   1      47.687 -11.432   6.153  0.00  0.00     0.096 A 
ATOM      3  C17 IBI d   1      48.274  -9.229   6.984  0.00  0.00     0.034 A 
ATOM      4  C18 IBI d   1      48.480 -10.281   6.099  0.00  0.00    -0.033 A 
ATOM      5  C14 IBI d   1      46.652 -11.544   7.078  0.00  0.00     0.082 A 
ATOM      6  C13 IBI d   1      46.427 -10.498   7.966  0.00  0.00    -0.053 A 
ATOM      7  H17 IBI d   1      47.046  -8.548   8.619  0.00  0.00     0.085 H 
ATOM      8  H18 IBI d   1      49.266 -10.208   5.356  0.00  0.00     0.089 H 
ATOM      9  H40 IBI d   1      45.628 -10.569   8.695  0.00  0.00     0.087 H 
ENDROOT
BRANCH   3  10
ATOM     10  C39 IBI d   1      49.159  -7.989   6.935  0.00  0.00     0.252 C 
ATOM     11  O40 IBI d   1      49.665  -7.703   5.887  0.00  0.00    -0.268 OA
ATOM     12  N41 IBI d   1      49.411  -7.188   8.060  0.00  0.00    -0.352 N 
ATOM     13  H41 IBI d   1      48.988  -7.503   8.909  0.00  0.00     0.163 HD
BRANCH  12  14
ATOM     14  C9  IBI d   1      50.219  -5.932   8.179  0.00  0.00     0.012 C 
ATOM     15  C7  IBI d   1      49.304  -4.803   8.651  0.00  0.00    -0.044 C 
ATOM     16  C8  IBI d   1      50.026  -3.445   8.830  0.00  0.00    -0.036 C 
ATOM     17  H9  IBI d   1      48.502  -4.674   7.909  0.00  0.00     0.036 H 
ATOM     18  H10 IBI d   1      48.866  -5.093   9.618  0.00  0.00     0.036 H 
ATOM     19  C10 IBI d   1      51.285  -3.452   9.748  0.00  0.00     0.104 C 
ATOM     20  H11 IBI d   1      49.303  -2.734   9.257  0.00  0.00     0.036 H 
ATOM     21  H12 IBI d   1      50.338  -3.097   7.834  0.00  0.00     0.036 H 
ATOM     22  C12 IBI d   1      52.133  -4.706   9.400  0.00  0.00    -0.036 C 
ATOM     23  H43 IBI d   1      50.958  -3.521  10.796  0.00  0.00     0.084 H 
ATOM     24  C11 IBI d   1      51.323  -6.023   9.235  0.00  0.00    -0.044 C 
ATOM     25  H15 IBI d   1      52.661  -4.509   8.455  0.00  0.00     0.036 H 
ATOM     26  H16 IBI d   1      52.867  -4.856  10.206  0.00  0.00     0.036 H 
ATOM     27  H13 IBI d   1      50.861  -6.271  10.202  0.00  0.00     0.036 H 
ATOM     28  H14 IBI d   1      52.017  -6.825   8.944  0.00  0.00     0.036 H 
ATOM     29  H42 IBI d   1      50.659  -5.693   7.200  0.00  0.00     0.072 H 
BRANCH  19  30
ATOM     30  N3  IBI d   1      52.103  -2.195   9.591  0.00  0.00    -0.064 N 
ATOM     31  C1  IBI d   1      51.334  -0.914   9.563  0.00  0.00     0.106 C 
ATOM     32  C2  IBI d   1      52.240   0.295   9.236  0.00  0.00     0.106 C 
ATOM     33  H1  IBI d   1      50.548  -0.988   8.796  0.00  0.00     0.078 H 
ATOM     34  H2  IBI d   1      50.871  -0.755  10.548  0.00  0.00     0.078 H 
ATOM     35  N4  IBI d   1      53.361   0.436  10.191  0.00  0.00    -0.068 N 
ATOM     36  H3  IBI d   1      51.632   1.211   9.268  0.00  0.00     0.078 H 
ATOM     37  H4  IBI d   1      52.652   0.164   8.225  0.00  0.00     0.078 H 
ATOM     38  C6  IBI d   1      54.106  -0.836  10.310  0.00  0.00     0.106 C 
ATOM     39  H45 IBI d   1      52.955   0.627  11.094  0.00  0.00     0.280 HD
ATOM     40  C5  IBI d   1      53.176  -2.035  10.617  0.00  0.00     0.106 C 
ATOM     41  H7  IBI d   1      54.630  -1.029   9.363  0.00  0.00     0.078 H 
ATOM     42  H8  IBI d   1      54.841  -0.741  11.123  0.00  0.00     0.078 H 
ATOM     43  H5  IBI d   1      52.706  -1.876  11.599  0.00  0.00     0.078 H 
ATOM     44  H6  IBI d   1      53.780  -2.954  10.644  0.00  0.00     0.078 H 
ATOM     45  H44 IBI d   1      52.558  -2.281   8.696  0.00  0.00     0.280 HD
BRANCH  35  46
ATOM     46  C42 IBI d   1      54.247   1.572   9.880  0.00  0.00     0.087 C 
ATOM     47  H46 IBI d   1      54.282   1.692   8.787  0.00  0.00     0.076 H 
ATOM     48  H47 IBI d   1      55.254   1.336  10.255  0.00  0.00     0.076 H 
BRANCH  46  49
ATOM     49  C43 IBI d   1      53.804   2.914  10.499  0.00  0.00    -0.031 A 
ATOM     50  C45 IBI d   1      54.086   4.297   9.952  0.00  0.00    -0.060 A 
ATOM     51  C44 IBI d   1      52.732   3.713   9.713  0.00  0.00    -0.060 A 
ATOM     52  H49 IBI d   1      54.783   4.417   9.110  0.00  0.00     0.033 H 
ATOM     53  H50 IBI d   1      54.199   5.144  10.645  0.00  0.00     0.033 H 
ATOM     54  H51 IBI d   1      51.855   4.122  10.237  0.00  0.00     0.033 H 
ATOM     55  H52 IBI d   1      52.440   3.395   8.701  0.00  0.00     0.033 H 
ATOM     56  H48 IBI d   1      53.740   2.794  11.591  0.00  0.00     0.042 H 
ENDBRANCH  46  49
ENDBRANCH  35  46
ENDBRANCH  19  30
ENDBRANCH  12  14
ENDBRANCH   3  10
BRANCH   2  57
ATOM     57  O37 IBI d   1      47.862 -12.498   5.305  0.00  0.00    -0.354 OA
BRANCH  57  58
ATOM     58  C38 IBI d   1      49.096 -12.817   4.680  0.00  0.00     0.010 C 
ATOM     59  H35 IBI d   1      48.969 -13.712   4.054  0.00  0.00     0.066 H 
ATOM     60  H36 IBI d   1      49.857 -13.013   5.450  0.00  0.00     0.066 H 
ATOM     61  H37 IBI d   1      49.418 -11.973   4.052  0.00  0.00     0.066 H 
ENDBRANCH  57  58
ENDBRANCH   2  57
BRANCH   5  62
ATOM     62  N19 IBI d   1      45.958 -12.792   7.055  0.00  0.00    -0.185 N 
ATOM     63  H38 IBI d   1      46.172 -13.394   6.247  0.00  0.00     0.184 HD
BRANCH  62  64
ATOM     64  C26 IBI d   1      45.019 -13.331   7.974  0.00  0.00     0.728 A 
ATOM     65  N27 IBI d   1      44.688 -12.651   9.133  0.00  0.00    -0.043 NA
ATOM     66  C25 IBI d   1      43.744 -13.126  10.022  0.00  0.00     0.174 A 
ATOM     67  C24 IBI d   1      43.122 -14.345   9.730  0.00  0.00     0.102 A 
ATOM     68  N23 IBI d   1      43.395 -12.396  11.213  0.00  0.00    -0.346 N 
ATOM     69  N22 IBI d   1      42.124 -14.897  10.601  0.00  0.00    -0.316 N 
ATOM     70  C29 IBI d   1      43.468 -15.022   8.570  0.00  0.00     0.051 A 
ATOM     71  C20 IBI d   1      41.755 -14.236  11.770  0.00  0.00     0.247 A 
ATOM     72  C21 IBI d   1      42.442 -12.970  12.185  0.00  0.00     0.091 A 
ATOM     73  O30 IBI d   1      40.928 -14.691  12.539  0.00  0.00    -0.271 OA
ATOM     74  H19 IBI d   1      41.710 -12.207  12.486  0.00  0.00     0.087 H 
ATOM     75  N28 IBI d   1      44.408 -14.528   7.692  0.00  0.00    -0.073 NA
ATOM     76  H39 IBI d   1      42.985 -15.967   8.348  0.00  0.00     0.119 H 
BRANCH  69  77
ATOM     77  C36 IBI d   1      41.442 -16.175  10.294  0.00  0.00    -0.011 C 
ATOM     78  H32 IBI d   1      41.831 -16.581   9.349  0.00  0.00     0.057 H 
ATOM     79  H33 IBI d   1      40.360 -16.000  10.200  0.00  0.00     0.057 H 
ATOM     80  H34 IBI d   1      41.628 -16.894  11.105  0.00  0.00     0.057 H 
ENDBRANCH  69  77
BRANCH  72  81
ATOM     81  C31 IBI d   1      43.306 -13.493  13.375  0.00  0.00    -0.041 C 
ATOM     82  H20 IBI d   1      42.680 -14.161  13.985  0.00  0.00     0.036 H 
ATOM     83  H21 IBI d   1      43.616 -12.628  13.979  0.00  0.00     0.036 H 
BRANCH  81  84
ATOM     84  C32 IBI d   1      44.582 -14.273  12.959  0.00  0.00    -0.074 C 
ATOM     85  H22 IBI d   1      45.122 -14.599  13.860  0.00  0.00     0.027 H 
ATOM     86  H23 IBI d   1      45.232 -13.620  12.358  0.00  0.00     0.027 H 
ATOM     87  H24 IBI d   1      44.296 -15.153  12.364  0.00  0.00     0.027 H 
ENDBRANCH  81  84
ENDBRANCH  72  81
BRANCH  68  88
ATOM     88  C33 IBI d   1      43.963 -11.127  11.792  0.00  0.00     0.007 C 
ATOM     89  H25 IBI d   1      44.060 -11.323  12.870  0.00  0.00     0.071 H 
BRANCH  88  90
ATOM     90  C34 IBI d   1      45.372 -10.825  11.299  0.00  0.00    -0.057 C 
ATOM     91  H26 IBI d   1      45.728  -9.890  11.757  0.00  0.00     0.030 H 
ATOM     92  H27 IBI d   1      45.362 -10.717  10.204  0.00  0.00     0.030 H 
ATOM     93  H28 IBI d   1      46.044 -11.650  11.580  0.00  0.00     0.030 H 
ENDBRANCH  88  90
BRANCH  88  94
ATOM     94  C35 IBI d   1      43.043  -9.893  11.682  0.00  0.00    -0.057 C 
ATOM     95  H29 IBI d   1      42.038 -10.151  12.047  0.00  0.00     0.030 H 
ATOM     96  H30 IBI d   1      42.981  -9.574  10.631  0.00  0.00     0.030 H 
ATOM     97  H31 IBI d   1      43.454  -9.074  12.290  0.00  0.00     0.030 H 
ENDBRANCH  88  94
ENDBRANCH  68  88
ENDBRANCH  62  64
ENDBRANCH   5  62
TORSDOF 15
