REMARK  7 active torsions:
REMARK  status: ('A' for Active; 'I' for Inactive)
REMARK    1  A    between atoms: CAY_8  and  CAW_9 
REMARK    2  A    between atoms: CAX_16  and  CAR_17 
REMARK       I    between atoms: CAR_17  and  NAO_19 
REMARK    3  A    between atoms: NAO_19  and  CAM_20 
REMARK    4  A    between atoms: CAM_20  and  CAN_21 
REMARK    5  A    between atoms: CAN_21  and  CAQ_22 
REMARK    6  A    between atoms: CAQ_22  and  OAP_24 
REMARK    7  A    between atoms: OAP_24  and  CAA_25 
ROOT
ATOM      1  CAW IFA d   1      21.133  -0.030  -6.363  0.00  0.00    -0.024 A 
ATOM      2  CAL IFA d   1      20.165   0.654  -5.610  0.00  0.00    -0.072 A 
ATOM      3  CAK IFA d   1      22.061  -0.733  -5.565  0.00  0.00    -0.053 A 
ATOM      4  CAU IFA d   1      22.100  -0.798  -4.112  0.00  0.00     0.054 A 
ATOM      5  IAG IFA d   1      23.632  -1.941  -3.210  0.00  0.00    -0.041 I 
ATOM      6  CAV IFA d   1      21.214  -0.097  -3.199  0.00  0.00     0.182 A 
ATOM      7  OAD IFA d   1      21.066  -0.059  -1.972  0.00  0.00    -0.291 OA
ATOM      8  CAX IFA d   1      20.173   0.625  -4.150  0.00  0.00     0.103 A 
ATOM      9  H4  IFA d   1      19.391   1.219  -6.127  0.00  0.00     0.080 H 
ATOM     10  H5  IFA d   1      22.833  -1.288  -6.096  0.00  0.00     0.086 H 
ATOM     11  H6  IFA d   1      19.580  -0.301  -4.147  0.00  0.00     0.073 H 
ENDROOT
BRANCH   8  12
ATOM     12  CAR IFA d   1      18.960   1.468  -3.613  0.00  0.00     0.233 C 
ATOM     13  OAC IFA d   1      18.081   2.032  -4.306  0.00  0.00    -0.272 OA
ATOM     14  NAO IFA d   1      18.854   1.508  -2.275  0.00  0.00    -0.360 N 
ATOM     15  H7  IFA d   1      19.584   1.030  -1.786  0.00  0.00     0.162 HD
BRANCH  14  16
ATOM     16  CAM IFA d   1      17.847   2.135  -1.409  0.00  0.00     0.004 C 
ATOM     17  H8  IFA d   1      17.576   3.132  -1.786  0.00  0.00     0.064 H 
ATOM     18  H9  IFA d   1      18.220   2.222  -0.378  0.00  0.00     0.064 H 
BRANCH  16  19
ATOM     19  CAN IFA d   1      16.648   1.186  -1.474  0.00  0.00     0.030 C 
ATOM     20  H10 IFA d   1      17.003   0.207  -1.828  0.00  0.00     0.050 H 
ATOM     21  H11 IFA d   1      15.924   1.596  -2.193  0.00  0.00     0.050 H 
BRANCH  19  22
ATOM     22  CAQ IFA d   1      15.940   0.983  -0.153  0.00  0.00     0.259 C 
ATOM     23  OAB IFA d   1      16.084   1.774   0.770  0.00  0.00    -0.265 OA
BRANCH  22  24
ATOM     24  OAP IFA d   1      15.068  -0.170   0.036  0.00  0.00    -0.326 OA
BRANCH  24  25
ATOM     25  CAA IFA d   1      13.988  -0.125   0.974  0.00  0.00     0.013 C 
ATOM     26  H12 IFA d   1      13.455  -1.087   0.966  0.00  0.00     0.067 H 
ATOM     27  H13 IFA d   1      13.293   0.681   0.695  0.00  0.00     0.067 H 
ATOM     28  H14 IFA d   1      14.385   0.066   1.982  0.00  0.00     0.067 H 
ENDBRANCH  24  25
ENDBRANCH  22  24
ENDBRANCH  19  22
ENDBRANCH  16  19
ENDBRANCH  14  16
ENDBRANCH   8  12
BRANCH   1  29
ATOM     29  CAY IFA d   1      21.121   0.013  -7.799  0.00  0.00     0.013 A 
ATOM     30  CAT IFA d   1      21.181  -1.160  -8.563  0.00  0.00     0.130 A 
ATOM     31  FAF IFA d   1      21.220  -2.356  -7.965  0.00  0.00    -0.205 F 
ATOM     32  CAJ IFA d   1      21.200  -1.149  -9.959  0.00  0.00    -0.008 A 
ATOM     33  CAS IFA d   1      21.151   0.047 -10.653  0.00  0.00     0.119 A 
ATOM     34  H1  IFA d   1      21.254  -2.085 -10.503  0.00  0.00     0.093 H 
ATOM     35  FAE IFA d   1      21.169   0.043 -12.002  0.00  0.00    -0.206 F 
ATOM     36  CAH IFA d   1      21.097   1.240  -9.927  0.00  0.00    -0.045 A 
ATOM     37  CAI IFA d   1      21.098   1.221  -8.521  0.00  0.00    -0.066 A 
ATOM     38  H2  IFA d   1      21.054   2.187 -10.452  0.00  0.00     0.088 H 
ATOM     39  H3  IFA d   1      21.081   2.160  -7.980  0.00  0.00     0.085 H 
ENDBRANCH   1  29
TORSDOF 7
