REMARK  6 active torsions:
REMARK  status: ('A' for Active; 'I' for Inactive)
REMARK    1  A    between atoms: CAQ_2  and  CAN_4 
REMARK    2  A    between atoms: CAN_4  and  CAM_5 
REMARK    3  A    between atoms: CAM_5  and  NAO_6 
REMARK       I    between atoms: NAO_6  and  CAR_7 
REMARK    4  A    between atoms: CAR_7  and  CAX_9 
REMARK    5  A    between atoms: CAV_11  and  OAD_12 
REMARK    6  A    between atoms: CAW_16  and  CAY_17 
ROOT
ATOM      1  CAX IFB d   1      20.603   0.877  -4.477  0.00  0.00     0.067 A 
ATOM      2  CAL IFB d   1      20.634   0.831  -5.865  0.00  0.00    -0.054 A 
ATOM      3  CAV IFB d   1      21.515   0.032  -3.736  0.00  0.00     0.098 A 
ATOM      4  CAU IFB d   1      22.434  -0.816  -4.408  0.00  0.00     0.041 A 
ATOM      5  IAG IFB d   1      23.832  -2.095  -3.305  0.00  0.00    -0.042 I 
ATOM      6  CAK IFB d   1      22.410  -0.795  -5.809  0.00  0.00    -0.053 A 
ATOM      7  CAW IFB d   1      21.521   0.016  -6.565  0.00  0.00    -0.021 A 
ATOM      8  H6  IFB d   1      19.943   1.452  -6.424  0.00  0.00     0.086 H 
ATOM      9  H8  IFB d   1      23.106  -1.431  -6.344  0.00  0.00     0.086 H 
ENDROOT
BRANCH   1  10
ATOM     10  CAR IFB d   1      19.582   1.791  -3.728  0.00  0.00     0.254 C 
ATOM     11  NAO IFB d   1      19.791   2.001  -2.478  0.00  0.00    -0.356 N 
ATOM     12  H5  IFB d   1      20.610   1.579  -2.088  0.00  0.00     0.162 HD
ATOM     13  OAC IFB d   1      18.546   2.261  -4.302  0.00  0.00    -0.268 OA
BRANCH  11  14
ATOM     14  CAM IFB d   1      18.931   2.822  -1.520  0.00  0.00     0.004 C 
ATOM     15  H3  IFB d   1      19.369   2.792  -0.511  0.00  0.00     0.064 H 
ATOM     16  H4  IFB d   1      18.881   3.864  -1.868  0.00  0.00     0.064 H 
BRANCH  14  17
ATOM     17  CAN IFB d   1      17.481   2.204  -1.487  0.00  0.00     0.030 C 
ATOM     18  H1  IFB d   1      16.813   2.903  -0.962  0.00  0.00     0.051 H 
ATOM     19  H2  IFB d   1      17.132   2.070  -2.522  0.00  0.00     0.051 H 
BRANCH  17  20
ATOM     20  CAQ IFB d   1      17.432   0.858  -0.778  0.00  0.00     0.174 C 
ATOM     21  OAP IFB d   1      16.377   0.272  -0.745  0.00  0.00    -0.648 OA
ATOM     22  OAB IFB d   1      18.470   0.383  -0.240  0.00  0.00    -0.648 OA
ENDBRANCH  17  20
ENDBRANCH  14  17
ENDBRANCH  11  14
ENDBRANCH   1  10
BRANCH   3  23
ATOM     23  OAD IFB d   1      21.519   0.028  -2.416  0.00  0.00    -0.358 OA
ATOM     24  H7  IFB d   1      22.177  -0.582  -2.104  0.00  0.00     0.217 HD
ENDBRANCH   3  23
BRANCH   7  25
ATOM     25  CAY IFB d   1      21.522   0.014  -7.998  0.00  0.00     0.013 A 
ATOM     26  CAT IFB d   1      21.541  -1.222  -8.762  0.00  0.00     0.130 A 
ATOM     27  FAF IFB d   1      21.579  -2.400  -8.189  0.00  0.00    -0.205 F 
ATOM     28  CAJ IFB d   1      21.547  -1.224 -10.136  0.00  0.00    -0.008 A 
ATOM     29  CAS IFB d   1      21.522   0.014 -10.816  0.00  0.00     0.119 A 
ATOM     30  H11 IFB d   1      21.570  -2.157 -10.687  0.00  0.00     0.093 H 
ATOM     31  CAH IFB d   1      21.490   1.263 -10.116  0.00  0.00    -0.045 A 
ATOM     32  FAE IFB d   1      21.524   0.004 -12.169  0.00  0.00    -0.206 F 
ATOM     33  CAI IFB d   1      21.498   1.260  -8.723  0.00  0.00    -0.066 A 
ATOM     34  H10 IFB d   1      21.460   2.198 -10.663  0.00  0.00     0.088 H 
ATOM     35  H9  IFB d   1      21.486   2.199  -8.181  0.00  0.00     0.085 H 
ENDBRANCH   7  25
TORSDOF 6
