REMARK  8 active torsions:
REMARK  status: ('A' for Active; 'I' for Inactive)
REMARK    1  A    between atoms: C38_2  and  C5_4 
REMARK    2  A    between atoms: C3_8  and  C17_10 
REMARK    3  A    between atoms: N18_11  and  O21_12 
REMARK    4  A    between atoms: O21_12  and  C22_13 
REMARK    5  A    between atoms: C22_13  and  C23_14 
REMARK    6  A    between atoms: C23_14  and  O27_15 
REMARK    7  A    between atoms: O27_15  and  N31_16 
REMARK    8  A    between atoms: C30_17  and  C16_18 
ROOT
ATOM      1  C22 FCF d   1     -13.468   1.045  -1.790  0.00  0.00     0.070 C 
ATOM      2  H6  FCF d   1     -13.164   1.201  -2.836  0.00  0.00     0.081 H 
ATOM      3  H7  FCF d   1     -12.949   1.769  -1.145  0.00  0.00     0.081 H 
ENDROOT
BRANCH   1   4
ATOM      4  O21 FCF d   1     -13.121  -0.282  -1.388  0.00  0.00    -0.255 OA
BRANCH   4   5
ATOM      5  N18 FCF d   1     -13.200  -1.308  -2.273  0.00  0.00    -0.146 NA
ATOM      6  C17 FCF d   1     -12.857  -2.472  -1.926  0.00  0.00     0.038 C 
ATOM      7  H5  FCF d   1     -12.495  -2.640  -0.913  0.00  0.00     0.119 H 
BRANCH   6   8
ATOM      8  C3  FCF d   1     -12.936  -3.616  -2.866  0.00  0.00    -0.015 A 
ATOM      9  C4  FCF d   1     -12.652  -4.901  -2.402  0.00  0.00    -0.055 A 
ATOM     10  C5  FCF d   1     -12.720  -5.992  -3.272  0.00  0.00     0.041 A 
ATOM     11  H3  FCF d   1     -12.378  -5.053  -1.364  0.00  0.00     0.086 H 
ATOM     12  C6  FCF d   1     -13.078  -5.790  -4.608  0.00  0.00    -0.066 A 
ATOM     13  C1  FCF d   1     -13.365  -4.507  -5.076  0.00  0.00    -0.081 A 
ATOM     14  H1  FCF d   1     -13.133  -6.635  -5.285  0.00  0.00     0.085 H 
ATOM     15  C2  FCF d   1     -13.293  -3.422  -4.204  0.00  0.00    -0.071 A 
ATOM     16  H2  FCF d   1     -13.643  -4.355  -6.113  0.00  0.00     0.083 H 
ATOM     17  H4  FCF d   1     -13.515  -2.424  -4.564  0.00  0.00     0.084 H 
BRANCH  10  18
ATOM     18  C38 FCF d   1     -12.415  -7.375  -2.766  0.00  0.00     0.209 C 
ATOM     19  O40 FCF d   1     -11.894  -7.536  -1.442  0.00  0.00    -0.644 OA
ATOM     20  O39 FCF d   1     -12.631  -8.361  -3.507  0.00  0.00    -0.644 OA
ENDBRANCH  10  18
ENDBRANCH   6   8
ENDBRANCH   4   5
ENDBRANCH   1   4
BRANCH   1  21
ATOM     21  C23 FCF d   1     -14.977   1.246  -1.666  0.00  0.00     0.070 C 
ATOM     22  H8  FCF d   1     -15.474   0.265  -1.677  0.00  0.00     0.081 H 
ATOM     23  H9  FCF d   1     -15.332   1.846  -2.517  0.00  0.00     0.081 H 
BRANCH  21  24
ATOM     24  O27 FCF d   1     -15.301   1.922  -0.447  0.00  0.00    -0.255 OA
BRANCH  24  25
ATOM     25  N31 FCF d   1     -15.116   1.303   0.747  0.00  0.00    -0.144 NA
ATOM     26  C30 FCF d   1     -15.818   1.590   1.755  0.00  0.00     0.053 C 
ATOM     27  H10 FCF d   1     -16.597   2.349   1.690  0.00  0.00     0.121 H 
BRANCH  26  28
ATOM     28  C16 FCF d   1     -15.566   0.879   3.027  0.00  0.00     0.068 A 
ATOM     29  N11 FCF d   1     -14.997  -0.337   2.996  0.00  0.00    -0.197 NA
ATOM     30  C12 FCF d   1     -14.748  -1.013   4.127  0.00  0.00     0.348 A 
ATOM     31  N13 FCF d   1     -15.070  -0.487   5.319  0.00  0.00    -0.277 N 
ATOM     32  O34 FCF d   1     -14.213  -2.141   4.070  0.00  0.00    -0.245 OA
ATOM     33  C14 FCF d   1     -15.641   0.725   5.409  0.00  0.00     0.231 A 
ATOM     34  H13 FCF d   1     -14.882  -1.006   6.153  0.00  0.00     0.173 HD
ATOM     35  C15 FCF d   1     -15.908   1.451   4.249  0.00  0.00     0.051 A 
ATOM     36  O33 FCF d   1     -15.925   1.192   6.532  0.00  0.00    -0.273 OA
ATOM     37  H11 FCF d   1     -16.990   1.646   4.227  0.00  0.00     0.056 H 
ATOM     38  H12 FCF d   1     -15.365   2.404   4.327  0.00  0.00     0.056 H 
ENDBRANCH  26  28
ENDBRANCH  24  25
ENDBRANCH  21  24
ENDBRANCH   1  21
TORSDOF 8
