REMARK  9 active torsions:
REMARK  status: ('A' for Active; 'I' for Inactive)
REMARK    1  A    between atoms: C3_3  and  C9_10 
REMARK    2  A    between atoms: C5_5  and  C38_8 
REMARK    3  A    between atoms: N18_11  and  O1_12 
REMARK    4  A    between atoms: O1_12  and  C22_13 
REMARK    5  A    between atoms: C22_13  and  C23_14 
REMARK    6  A    between atoms: C23_14  and  C8_15 
REMARK    7  A    between atoms: C8_15  and  N31_16 
REMARK    8  A    between atoms: N31_16  and  C30_17 
REMARK    9  A    between atoms: C30_17  and  C16_18 
ROOT
ATOM      1  C23 3FI d   1     -12.903   2.073  -1.486  0.00  0.00    -0.020 C 
ATOM      2  H8  3FI d   1     -12.477   2.907  -2.064  0.00  0.00     0.038 H 
ATOM      3  H9  3FI d   1     -12.170   1.731  -0.741  0.00  0.00     0.038 H 
ENDROOT
BRANCH   1   4
ATOM      4  C22 3FI d   1     -13.250   0.944  -2.409  0.00  0.00     0.049 C 
ATOM      5  H6  3FI d   1     -14.294   1.041  -2.743  0.00  0.00     0.078 H 
ATOM      6  H7  3FI d   1     -12.583   0.957  -3.283  0.00  0.00     0.078 H 
BRANCH   4   7
ATOM      7  O1  3FI d   1     -13.085  -0.256  -1.700  0.00  0.00    -0.257 OA
BRANCH   7   8
ATOM      8  N18 3FI d   1     -12.552  -1.267  -2.512  0.00  0.00    -0.146 NA
ATOM      9  C9  3FI d   1     -13.060  -2.486  -2.667  0.00  0.00     0.038 C 
ATOM     10  H5  3FI d   1     -13.947  -2.557  -2.038  0.00  0.00     0.119 H 
BRANCH   9  11
ATOM     11  C3  3FI d   1     -12.891  -3.811  -3.372  0.00  0.00    -0.015 A 
ATOM     12  C2  3FI d   1     -13.081  -3.693  -4.750  0.00  0.00    -0.071 A 
ATOM     13  C1  3FI d   1     -12.975  -4.802  -5.591  0.00  0.00    -0.081 A 
ATOM     14  H2  3FI d   1     -13.315  -2.723  -5.174  0.00  0.00     0.084 H 
ATOM     15  C6  3FI d   1     -12.685  -6.043  -5.017  0.00  0.00    -0.066 A 
ATOM     16  H1  3FI d   1     -13.114  -4.703  -6.662  0.00  0.00     0.083 H 
ATOM     17  C5  3FI d   1     -12.498  -6.153  -3.616  0.00  0.00     0.041 A 
ATOM     18  H4  3FI d   1     -12.603  -6.923  -5.644  0.00  0.00     0.085 H 
ATOM     19  C4  3FI d   1     -12.596  -5.020  -2.745  0.00  0.00    -0.055 A 
ATOM     20  H3  3FI d   1     -12.451  -5.098  -1.674  0.00  0.00     0.086 H 
BRANCH  17  21
ATOM     21  C38 3FI d   1     -12.195  -7.549  -3.139  0.00  0.00     0.209 C 
ATOM     22  O40 3FI d   1     -11.631  -7.760  -2.098  0.00  0.00    -0.644 OA
ATOM     23  O39 3FI d   1     -12.636  -8.558  -4.002  0.00  0.00    -0.644 OA
ENDBRANCH  17  21
ENDBRANCH   9  11
ENDBRANCH   7   8
ENDBRANCH   4   7
ENDBRANCH   1   4
BRANCH   1  24
ATOM     24  C8  3FI d   1     -14.191   2.538  -0.773  0.00  0.00     0.084 C 
ATOM     25  H10 3FI d   1     -15.053   2.319  -1.421  0.00  0.00     0.075 H 
ATOM     26  H11 3FI d   1     -14.128   3.623  -0.601  0.00  0.00     0.075 H 
BRANCH  24  27
ATOM     27  N31 3FI d   1     -14.387   1.870   0.511  0.00  0.00    -0.070 N 
ATOM     28  H12 3FI d   1     -13.780   2.339   1.165  0.00  0.00     0.277 HD
ATOM     29  H13 3FI d   1     -14.073   0.921   0.382  0.00  0.00     0.277 HD
BRANCH  27  30
ATOM     30  C30 3FI d   1     -15.708   1.778   1.173  0.00  0.00     0.118 C 
ATOM     31  H14 3FI d   1     -16.394   1.201   0.536  0.00  0.00     0.085 H 
ATOM     32  H15 3FI d   1     -16.111   2.791   1.323  0.00  0.00     0.085 H 
BRANCH  30  33
ATOM     33  C16 3FI d   1     -15.571   1.075   2.544  0.00  0.00     0.051 A 
ATOM     34  N11 3FI d   1     -15.892   1.600   3.794  0.00  0.00    -0.201 NA
ATOM     35  C12 3FI d   1     -15.674   0.790   4.899  0.00  0.00     0.347 A 
ATOM     36  N13 3FI d   1     -15.160  -0.479   4.747  0.00  0.00    -0.288 N 
ATOM     37  O34 3FI d   1     -15.919   1.178   6.055  0.00  0.00    -0.245 OA
ATOM     38  C14 3FI d   1     -14.868  -0.886   3.514  0.00  0.00     0.164 A 
ATOM     39  H18 3FI d   1     -15.011  -1.074   5.537  0.00  0.00     0.172 HD
ATOM     40  C15 3FI d   1     -15.035  -0.215   2.320  0.00  0.00     0.035 A 
ATOM     41  O33 3FI d   1     -14.375  -2.098   3.424  0.00  0.00    -0.177 OA
ATOM     42  H16 3FI d   1     -14.060  -0.119   1.820  0.00  0.00     0.054 H 
ATOM     43  H17 3FI d   1     -15.722  -0.785   1.678  0.00  0.00     0.054 H 
ENDBRANCH  30  33
ENDBRANCH  27  30
ENDBRANCH  24  27
ENDBRANCH   1  24
TORSDOF 9
