REMARK  9 active torsions:
REMARK  status: ('A' for Active; 'I' for Inactive)
REMARK    1  A    between atoms: C17_11  and  C3_3 
REMARK    2  A    between atoms: C5_5  and  C38_9 
REMARK    3  A    between atoms: N18_12  and  C7_7 
REMARK    4  A    between atoms: C7_7  and  C22_13 
REMARK    5  A    between atoms: C17_11  and  N18_12 
REMARK    6  A    between atoms: C22_13  and  C23_14 
REMARK    7  A    between atoms: C23_14  and  O27_15 
REMARK    8  A    between atoms: O27_15  and  N31_16 
REMARK    9  A    between atoms: C30_17  and  C16_18 
ROOT
ATOM      1  C7  FCK d   1     -16.839   0.365   4.053  0.00  0.00     0.084 C 
ATOM      2  H5  FCK d   1     -15.757   0.484   4.210  0.00  0.00     0.075 H 
ATOM      3  H6  FCK d   1     -17.288   1.345   3.833  0.00  0.00     0.075 H 
ENDROOT
BRANCH   1   4
ATOM      4  N18 FCK d   1     -17.437  -0.161   5.281  0.00  0.00    -0.071 N 
ATOM      5  H9  FCK d   1     -18.308  -0.606   5.038  0.00  0.00     0.277 HD
ATOM      6  H10 FCK d   1     -17.618   0.616   5.897  0.00  0.00     0.277 HD
BRANCH   4   7
ATOM      7  C17 FCK d   1     -16.619  -1.133   6.006  0.00  0.00     0.105 C 
ATOM      8  H7  FCK d   1     -16.175  -1.837   5.287  0.00  0.00     0.083 H 
ATOM      9  H8  FCK d   1     -15.818  -0.602   6.541  0.00  0.00     0.083 H 
BRANCH   7  10
ATOM     10  C3  FCK d   1     -17.450  -1.899   6.997  0.00  0.00    -0.032 A 
ATOM     11  C2  FCK d   1     -17.312  -1.700   8.368  0.00  0.00    -0.075 A 
ATOM     12  C1  FCK d   1     -18.092  -2.420   9.267  0.00  0.00    -0.081 A 
ATOM     13  H2  FCK d   1     -16.592  -0.979   8.738  0.00  0.00     0.084 H 
ATOM     14  C6  FCK d   1     -19.017  -3.345   8.798  0.00  0.00    -0.066 A 
ATOM     15  H1  FCK d   1     -17.978  -2.260  10.333  0.00  0.00     0.083 H 
ATOM     16  C5  FCK d   1     -19.163  -3.550   7.428  0.00  0.00     0.041 A 
ATOM     17  H4  FCK d   1     -19.625  -3.907   9.498  0.00  0.00     0.085 H 
ATOM     18  C4  FCK d   1     -18.379  -2.825   6.537  0.00  0.00    -0.059 A 
ATOM     19  H3  FCK d   1     -18.494  -2.984   5.471  0.00  0.00     0.086 H 
BRANCH  16  20
ATOM     20  C38 FCK d   1     -20.132  -4.521   6.909  0.00  0.00     0.209 C 
ATOM     21  O39 FCK d   1     -20.245  -4.707   5.737  0.00  0.00    -0.644 OA
ATOM     22  O40 FCK d   1     -20.866  -5.169   7.829  0.00  0.00    -0.644 OA
ENDBRANCH  16  20
ENDBRANCH   7  10
ENDBRANCH   4   7
ENDBRANCH   1   4
BRANCH   1  23
ATOM     23  C22 FCK d   1     -17.063  -0.560   2.850  0.00  0.00    -0.020 C 
ATOM     24  H11 FCK d   1     -18.145  -0.710   2.718  0.00  0.00     0.038 H 
ATOM     25  H12 FCK d   1     -16.581  -1.527   3.055  0.00  0.00     0.038 H 
BRANCH  23  26
ATOM     26  C23 FCK d   1     -16.486   0.010   1.552  0.00  0.00     0.049 C 
ATOM     27  H13 FCK d   1     -15.400   0.145   1.659  0.00  0.00     0.078 H 
ATOM     28  H14 FCK d   1     -16.956   0.980   1.334  0.00  0.00     0.078 H 
BRANCH  26  29
ATOM     29  O27 FCK d   1     -16.749  -0.890   0.500  0.00  0.00    -0.257 OA
BRANCH  29  30
ATOM     30  N31 FCK d   1     -15.862  -0.843  -0.762  0.00  0.00    -0.144 NA
ATOM     31  C30 FCK d   1     -16.423  -1.044  -1.873  0.00  0.00     0.053 C 
ATOM     32  H15 FCK d   1     -17.351  -1.613  -1.909  0.00  0.00     0.121 H 
BRANCH  31  33
ATOM     33  C16 FCK d   1     -15.840  -0.519  -3.133  0.00  0.00     0.068 A 
ATOM     34  N11 FCK d   1     -15.142   0.632  -3.146  0.00  0.00    -0.197 NA
ATOM     35  C12 FCK d   1     -14.621   1.098  -4.298  0.00  0.00     0.348 A 
ATOM     36  N13 FCK d   1     -14.785   0.438  -5.455  0.00  0.00    -0.277 N 
ATOM     37  O34 FCK d   1     -13.974   2.164  -4.306  0.00  0.00    -0.245 OA
ATOM     38  C14 FCK d   1     -15.474  -0.711  -5.496  0.00  0.00     0.231 A 
ATOM     39  H18 FCK d   1     -14.389   0.807  -6.296  0.00  0.00     0.173 HD
ATOM     40  C15 FCK d   1     -16.023  -1.221  -4.323  0.00  0.00     0.051 A 
ATOM     41  O33 FCK d   1     -15.618  -1.314  -6.580  0.00  0.00    -0.273 OA
ATOM     42  H16 FCK d   1     -17.108  -1.306  -4.484  0.00  0.00     0.056 H 
ATOM     43  H17 FCK d   1     -15.595  -2.224  -4.176  0.00  0.00     0.056 H 
ENDBRANCH  31  33
ENDBRANCH  29  30
ENDBRANCH  26  29
ENDBRANCH  23  26
ENDBRANCH   1  23
TORSDOF 9
