REMARK  10 active torsions:
REMARK  status: ('A' for Active; 'I' for Inactive)
REMARK    1  A    between atoms: C23_15  and  C8_1 
REMARK    2  A    between atoms: C8_1  and  N31_16 
REMARK    3  A    between atoms: C5_2  and  C38_7 
REMARK    4  A    between atoms: C17_11  and  C3_10 
REMARK    5  A    between atoms: N18_12  and  C17_11 
REMARK    6  A    between atoms: C7_13  and  N18_12 
REMARK    7  A    between atoms: C22_14  and  C7_13 
REMARK    8  A    between atoms: C22_14  and  C23_15 
REMARK    9  A    between atoms: N31_16  and  C30_17 
REMARK   10  A    between atoms: C30_17  and  C16_18 
ROOT
ATOM      1  C22 3FL d   1      36.025   2.382  18.522  0.00  0.00    -0.041 C 
ATOM      2  H13 3FL d   1      36.452   1.503  19.027  0.00  0.00     0.035 H 
ATOM      3  H14 3FL d   1      35.001   2.153  18.191  0.00  0.00     0.035 H 
ENDROOT
BRANCH   1   4
ATOM      4  C7  3FL d   1      36.875   2.714  17.304  0.00  0.00     0.082 C 
ATOM      5  H11 3FL d   1      36.507   3.648  16.854  0.00  0.00     0.075 H 
ATOM      6  H12 3FL d   1      37.920   2.847  17.621  0.00  0.00     0.075 H 
BRANCH   4   7
ATOM      7  N18 3FL d   1      36.812   1.657  16.317  0.00  0.00    -0.071 N 
ATOM      8  H9  3FL d   1      37.374   0.899  16.672  0.00  0.00     0.277 HD
ATOM      9  H10 3FL d   1      35.848   1.367  16.268  0.00  0.00     0.277 HD
BRANCH   7  10
ATOM     10  C17 3FL d   1      37.244   1.888  14.951  0.00  0.00     0.105 C 
ATOM     11  H7  3FL d   1      36.939   1.040  14.321  0.00  0.00     0.083 H 
ATOM     12  H8  3FL d   1      36.783   2.812  14.571  0.00  0.00     0.083 H 
BRANCH  10  13
ATOM     13  C3  3FL d   1      38.748   2.025  14.918  0.00  0.00    -0.032 A 
ATOM     14  C2  3FL d   1      39.314   3.292  14.807  0.00  0.00    -0.075 A 
ATOM     15  C1  3FL d   1      40.701   3.435  14.783  0.00  0.00    -0.081 A 
ATOM     16  H4  3FL d   1      38.677   4.167  14.739  0.00  0.00     0.084 H 
ATOM     17  C6  3FL d   1      41.520   2.312  14.869  0.00  0.00    -0.066 A 
ATOM     18  H6  3FL d   1      41.142   4.421  14.697  0.00  0.00     0.083 H 
ATOM     19  C5  3FL d   1      40.953   1.047  14.985  0.00  0.00     0.041 A 
ATOM     20  H3  3FL d   1      42.598   2.423  14.846  0.00  0.00     0.085 H 
ATOM     21  C4  3FL d   1      39.567   0.896  15.006  0.00  0.00    -0.059 A 
ATOM     22  H5  3FL d   1      39.127  -0.091  15.090  0.00  0.00     0.086 H 
BRANCH  19  23
ATOM     23  C38 3FL d   1      41.859  -0.146  15.062  0.00  0.00     0.209 C 
ATOM     24  O40 3FL d   1      41.878  -0.837  16.043  0.00  0.00    -0.644 OA
ATOM     25  O39 3FL d   1      42.628  -0.397  14.010  0.00  0.00    -0.644 OA
ENDBRANCH  19  23
ENDBRANCH  10  13
ENDBRANCH   7  10
ENDBRANCH   4   7
ENDBRANCH   1   4
BRANCH   1  26
ATOM     26  C23 3FL d   1      35.979   3.542  19.504  0.00  0.00    -0.041 C 
ATOM     27  H15 3FL d   1      35.636   3.177  20.483  0.00  0.00     0.035 H 
ATOM     28  H16 3FL d   1      36.986   3.974  19.605  0.00  0.00     0.035 H 
BRANCH  26  29
ATOM     29  C8  3FL d   1      35.019   4.612  19.000  0.00  0.00     0.082 C 
ATOM     30  H1  3FL d   1      34.791   4.412  17.942  0.00  0.00     0.075 H 
ATOM     31  H2  3FL d   1      35.506   5.594  19.091  0.00  0.00     0.075 H 
BRANCH  29  32
ATOM     32  N31 3FL d   1      33.804   4.637  19.730  0.00  0.00    -0.070 N 
ATOM     33  H17 3FL d   1      33.995   4.635  20.720  0.00  0.00     0.277 HD
ATOM     34  H18 3FL d   1      33.243   3.833  19.495  0.00  0.00     0.277 HD
BRANCH  32  35
ATOM     35  C30 3FL d   1      33.123   5.827  19.369  0.00  0.00     0.118 C 
ATOM     36  H19 3FL d   1      33.777   6.448  18.740  0.00  0.00     0.085 H 
ATOM     37  H20 3FL d   1      32.851   6.384  20.277  0.00  0.00     0.085 H 
BRANCH  35  38
ATOM     38  C16 3FL d   1      31.871   5.474  18.600  0.00  0.00     0.052 A 
ATOM     39  N11 3FL d   1      31.966   4.873  17.399  0.00  0.00    -0.201 NA
ATOM     40  C12 3FL d   1      30.864   4.556  16.702  0.00  0.00     0.348 A 
ATOM     41  N13 3FL d   1      29.649   4.834  17.197  0.00  0.00    -0.277 N 
ATOM     42  O34 3FL d   1      30.964   3.990  15.592  0.00  0.00    -0.245 OA
ATOM     43  C14 3FL d   1      29.503   5.437  18.391  0.00  0.00     0.231 A 
ATOM     44  H23 3FL d   1      28.836   4.588  16.669  0.00  0.00     0.173 HD
ATOM     45  C15 3FL d   1      30.626   5.774  19.136  0.00  0.00     0.048 A 
ATOM     46  O33 3FL d   1      28.362   5.683  18.829  0.00  0.00    -0.273 OA
ATOM     47  H21 3FL d   1      30.594   6.861  19.305  0.00  0.00     0.056 H 
ATOM     48  H22 3FL d   1      30.549   5.251  20.101  0.00  0.00     0.056 H 
ENDBRANCH  35  38
ENDBRANCH  32  35
ENDBRANCH  29  32
ENDBRANCH  26  29
ENDBRANCH   1  26
TORSDOF 10
