REMARK WARNING: 32 MAX_TORS EXCEEDED!!!
REMARK  60 active torsions:
REMARK  status: ('A' for Active; 'I' for Inactive)
REMARK    1  A    between atoms: CB_2  and  N_1 
REMARK    2  A    between atoms: C_7  and  CA_6 
REMARK       I    between atoms: N_9  and  C_7 
REMARK    3  A    between atoms: CA_10  and  N_9 
REMARK    4  A    between atoms: C_11  and  CA_10 
REMARK    5  A    between atoms: CA_10  and  CB_13 
REMARK       I    between atoms: N_14  and  C_11 
REMARK    6  A    between atoms: CB_15  and  N_14 
REMARK    7  A    between atoms: C_20  and  CA_19 
REMARK       I    between atoms: N_22  and  C_20 
REMARK    8  A    between atoms: CA_23  and  N_22 
REMARK    9  A    between atoms: C_24  and  CA_23 
REMARK   10  A    between atoms: CA_23  and  CB_26 
REMARK       I    between atoms: N_33  and  C_24 
REMARK   11  A    between atoms: CB_26  and  CG_27 
REMARK   12  A    between atoms: CG_27  and  CD_28 
REMARK   13  A    between atoms: CD_28  and  NE_29 
REMARK       I    between atoms: NE_29  and  CZ_30 
REMARK       I    between atoms: CZ_30  and  NH1_31 
REMARK       I    between atoms: CZ_30  and  NH2_32 
REMARK   14  A    between atoms: CB_34  and  N_33 
REMARK   15  A    between atoms: C_39  and  CA_38 
REMARK       I    between atoms: N_41  and  C_39 
REMARK   16  A    between atoms: CA_42  and  N_41 
REMARK   17  A    between atoms: C_43  and  CA_42 
REMARK   18  A    between atoms: CA_42  and  CB_45 
REMARK       I    between atoms: N_49  and  C_43 
REMARK   19  A    between atoms: CB_45  and  CG_46 
REMARK   20  A    between atoms: CG_46  and  CD1_47 
REMARK   21  A    between atoms: CG_46  and  CD2_48 
REMARK   22  A    between atoms: CB_50  and  N_49 
REMARK   23  A    between atoms: C_55  and  CA_54 
REMARK       I    between atoms: N_57  and  C_55 
REMARK   24  A    between atoms: CA_58  and  N_57 
REMARK   25  A    between atoms: C_59  and  CA_58 
REMARK   26  A    between atoms: CA_58  and  CB_61 
REMARK       I    between atoms: N_70  and  C_59 
REMARK   27  A    between atoms: CB_61  and  CG_62 
REMARK   28  A    between atoms: CG_62  and  CD_63 
REMARK   29  A    between atoms: CD_63  and  CE_64 
REMARK   30  A    between atoms: CE_64  and  NZ_65 
REMARK   31  A    between atoms: CA_68  and  C_67 
REMARK       I    between atoms: C_67  and  N_75 
REMARK   32  A    between atoms: CB_69  and  CA_68 
REMARK   33  A    between atoms: CB_69  and  N_70 
REMARK   34  A    between atoms: CB_69  and  CG_71 
REMARK   35  A    between atoms: CG_71  and  CD_72 
REMARK   36  A    between atoms: CD_72  and  CE2_73 
REMARK   37  A    between atoms: CD_72  and  CE1_74 
REMARK   38  A    between atoms: N_75  and  CA_76 
REMARK   39  A    between atoms: CA_76  and  C_77 
REMARK       I    between atoms: C_77  and  N_79 
REMARK   40  A    between atoms: N_79  and  CA_80 
REMARK   41  A    between atoms: CA_80  and  C_81 
REMARK   42  A    between atoms: CA_80  and  CB_83 
REMARK       I    between atoms: C_81  and  N_87 
REMARK   43  A    between atoms: CB_83  and  CG_84 
REMARK   44  A    between atoms: N_87  and  CA_88 
REMARK   45  A    between atoms: CA_88  and  C_89 
REMARK   46  A    between atoms: CA_88  and  CB_91 
REMARK       I    between atoms: C_89  and  N_92 
REMARK   47  A    between atoms: N_92  and  CA_93 
REMARK   48  A    between atoms: CA_93  and  C_94 
REMARK   49  A    between atoms: CA_93  and  CB_96 
REMARK       I    between atoms: C_94  and  N_103 
REMARK   50  A    between atoms: CB_96  and  CG_97 
REMARK   51  A    between atoms: N_103  and  CA_104 
REMARK   52  A    between atoms: CA_104  and  C_105 
REMARK   53  A    between atoms: CA_104  and  CB_107 
REMARK       I    between atoms: C_105  and  N_111 
REMARK   54  A    between atoms: CB_107  and  CG_108 
REMARK       I    between atoms: CG_108  and  ND2_110 
REMARK   55  A    between atoms: N_111  and  CA_112 
REMARK   56  A    between atoms: CA_112  and  C_113 
REMARK   57  A    between atoms: CA_112  and  CB_115 
REMARK       I    between atoms: C_113  and  N_122 
REMARK   58  A    between atoms: CB_115  and  CG_116 
REMARK   59  A    between atoms: CG_116  and  CD_117 
REMARK   60  A    between atoms: CD_117  and  NE_118 
REMARK       I    between atoms: NE_118  and  CZ_119 
REMARK       I    between atoms: CZ_119  and  NH1_120 
ROOT
ATOM      1  CA  LYS d   1      -4.295  17.013  17.792  0.00  0.00     0.089 C 
ATOM      2  H69 LYS d   1      -5.268  17.375  17.428  0.00  0.00     0.087 H 
ENDROOT
BRANCH   1   3
ATOM      3  N   LYS d   1      -3.495  16.738  16.596  0.00  0.00    -0.347 N 
ATOM      4  C   XCP d   1      -3.455  17.606  15.585  0.00  0.00     0.224 C 
ATOM      5  O   XCP d   1      -3.938  18.753  15.645  0.00  0.00    -0.273 OA
ATOM      6  H68 LYS d   1      -2.972  15.888  16.537  0.00  0.00     0.163 HD
BRANCH   4   7
ATOM      7  CA  XCP d   1      -2.762  17.128  14.314  0.00  0.00     0.043 C 
ATOM      8  CB  XCP d   1      -1.755  18.096  13.691  0.00  0.00     0.024 C 
ATOM      9  CG  XCP d   1      -1.752  17.690  12.209  0.00  0.00    -0.045 C 
ATOM     10  H60 XCP d   1      -2.074  19.140  13.829  0.00  0.00     0.073 H 
ATOM     11  CD  XCP d   1      -3.094  17.070  11.891  0.00  0.00    -0.062 C 
ATOM     12  H61 XCP d   1      -0.950  16.960  12.024  0.00  0.00     0.036 H 
ATOM     13  H62 XCP d   1      -1.592  18.578  11.579  0.00  0.00     0.036 H 
ATOM     14  CE  XCP d   1      -3.771  16.762  13.225  0.00  0.00    -0.052 C 
ATOM     15  H63 XCP d   1      -2.955  16.143  11.315  0.00  0.00     0.033 H 
ATOM     16  H64 XCP d   1      -3.707  17.774  11.310  0.00  0.00     0.033 H 
ATOM     17  H65 XCP d   1      -4.025  15.694  13.285  0.00  0.00     0.034 H 
ATOM     18  H66 XCP d   1      -4.685  17.363  13.336  0.00  0.00     0.034 H 
ATOM     19  H67 XCP d   1      -2.210  16.217  14.587  0.00  0.00     0.057 H 
BRANCH   8  20
ATOM     20  N   XCP d   1      -0.406  17.912  14.221  0.00  0.00    -0.354 N 
ATOM     21  C   LEU d   1       0.063  18.954  14.910  0.00  0.00     0.240 C 
ATOM     22  O   LEU d   1      -0.557  20.024  15.109  0.00  0.00    -0.271 OA
ATOM     23  H59 XCP d   1       0.122  17.075  14.079  0.00  0.00     0.162 HD
BRANCH  21  24
ATOM     24  CA  LEU d   1       1.487  18.782  15.371  0.00  0.00     0.089 C 
ATOM     25  H49 LEU d   1       1.735  19.552  16.116  0.00  0.00     0.087 H 
BRANCH  24  26
ATOM     26  N   LEU d   1       1.623  17.439  15.982  0.00  0.00    -0.347 N 
ATOM     27  C   XCP d   1       0.894  17.024  17.020  0.00  0.00     0.224 C 
ATOM     28  O   XCP d   1       0.010  17.695  17.513  0.00  0.00    -0.273 OA
ATOM     29  H48 LEU d   1       2.297  16.810  15.596  0.00  0.00     0.163 HD
BRANCH  27  30
ATOM     30  CA  XCP d   1       1.244  15.628  17.576  0.00  0.00     0.043 C 
ATOM     31  CB  XCP d   1       0.242  14.458  17.346  0.00  0.00     0.024 C 
ATOM     32  CG  XCP d   1       0.625  13.446  18.436  0.00  0.00    -0.045 C 
ATOM     33  H40 XCP d   1      -0.783  14.821  17.513  0.00  0.00     0.073 H 
ATOM     34  CD  XCP d   1       1.270  14.241  19.583  0.00  0.00    -0.062 C 
ATOM     35  H41 XCP d   1       1.341  12.713  18.036  0.00  0.00     0.036 H 
ATOM     36  H42 XCP d   1      -0.273  12.923  18.797  0.00  0.00     0.036 H 
ATOM     37  CE  XCP d   1       1.660  15.630  19.050  0.00  0.00    -0.052 C 
ATOM     38  H43 XCP d   1       2.167  13.715  19.941  0.00  0.00     0.033 H 
ATOM     39  H44 XCP d   1       0.553  14.348  20.410  0.00  0.00     0.033 H 
ATOM     40  H45 XCP d   1       2.744  15.788  19.144  0.00  0.00     0.034 H 
ATOM     41  H46 XCP d   1       1.125  16.418  19.600  0.00  0.00     0.034 H 
ATOM     42  H47 XCP d   1       2.144  15.341  17.013  0.00  0.00     0.057 H 
BRANCH  31  43
ATOM     43  N   XCP d   1       0.288  13.840  15.982  0.00  0.00    -0.354 N 
ATOM     44  C   ARG d   1      -0.962  13.785  15.502  0.00  0.00     0.240 C 
ATOM     45  O   ARG d   1      -1.932  14.191  16.094  0.00  0.00    -0.271 OA
ATOM     46  H39 XCP d   1       1.111  13.523  15.510  0.00  0.00     0.162 HD
BRANCH  44  47
ATOM     47  CA  ARG d   1      -1.130  13.109  14.125  0.00  0.00     0.089 C 
ATOM     48  H27 ARG d   1      -1.908  13.678  13.594  0.00  0.00     0.087 H 
BRANCH  47  49
ATOM     49  N   ARG d   1       0.089  13.225  13.341  0.00  0.00    -0.347 N 
ATOM     50  C   XCP d   1       0.652  14.418  13.148  0.00  0.00     0.224 C 
ATOM     51  O   XCP d   1       0.239  15.455  13.667  0.00  0.00    -0.273 OA
ATOM     52  H26 ARG d   1       0.507  12.407  12.945  0.00  0.00     0.163 HD
BRANCH  50  53
ATOM     53  CA  XCP d   1       1.829  14.442  12.208  0.00  0.00     0.043 C 
ATOM     54  CB  XCP d   1       3.065  15.114  12.785  0.00  0.00     0.024 C 
ATOM     55  CG  XCP d   1       3.720  15.725  11.527  0.00  0.00    -0.045 C 
ATOM     56  H18 XCP d   1       2.763  15.918  13.473  0.00  0.00     0.073 H 
ATOM     57  CD  XCP d   1       2.541  16.143  10.648  0.00  0.00    -0.062 C 
ATOM     58  H19 XCP d   1       4.344  14.980  11.012  0.00  0.00     0.036 H 
ATOM     59  H20 XCP d   1       4.335  16.597  11.793  0.00  0.00     0.036 H 
ATOM     60  CE  XCP d   1       1.396  15.192  10.960  0.00  0.00    -0.052 C 
ATOM     61  H21 XCP d   1       2.816  16.067   9.586  0.00  0.00     0.033 H 
ATOM     62  H22 XCP d   1       2.246  17.177  10.878  0.00  0.00     0.033 H 
ATOM     63  H23 XCP d   1       1.237  14.493  10.126  0.00  0.00     0.034 H 
ATOM     64  H24 XCP d   1       0.469  15.753  11.150  0.00  0.00     0.034 H 
ATOM     65  H25 XCP d   1       2.090  13.406  11.945  0.00  0.00     0.057 H 
BRANCH  54  66
ATOM     66  N   XCP d   1       3.948  14.201  13.535  0.00  0.00    -0.354 N 
ATOM     67  C   ALA d   1       4.229  14.806  14.688  0.00  0.00     0.240 C 
ATOM     68  O   ALA d   1       3.878  15.959  14.978  0.00  0.00    -0.271 OA
ATOM     69  H17 XCP d   1       4.272  13.303  13.236  0.00  0.00     0.162 HD
BRANCH  67  70
ATOM     70  CA  ALA d   1       5.060  13.934  15.669  0.00  0.00     0.086 C 
ATOM     71  H13 ALA d   1       4.578  14.005  16.655  0.00  0.00     0.086 H 
BRANCH  70  72
ATOM     72  N   ALA d   1       5.022  12.521  15.255  0.00  0.00    -0.348 N 
ATOM     73  C   XPC d   1       3.909  11.784  15.358  0.00  0.00     0.226 C 
ATOM     74  O   XPC d   1       2.823  12.252  15.762  0.00  0.00    -0.273 OA
ATOM     75  H12 ALA d   1       5.851  12.100  14.887  0.00  0.00     0.163 HD
BRANCH  73  76
ATOM     76  CA  XPC d   1       4.037  10.298  14.947  0.00  0.00     0.075 C 
ATOM     77  CB  XPC d   1       2.717   9.544  14.985  0.00  0.00     0.136 C 
ATOM     78  CG  XPC d   1       2.462   9.263  16.449  0.00  0.00     0.108 C 
ATOM     79  H4  XPC d   1       1.912  10.123  14.509  0.00  0.00     0.087 H 
ATOM     80  ND  XPC d   1       3.825   9.223  17.048  0.00  0.00    -0.072 N 
ATOM     81  H5  XPC d   1       1.949   8.299  16.579  0.00  0.00     0.079 H 
ATOM     82  H6  XPC d   1       1.859  10.063  16.902  0.00  0.00     0.079 H 
ATOM     83  CE  XPC d   1       4.838   9.600  16.023  0.00  0.00     0.095 C 
ATOM     84  H7  XPC d   1       4.017   8.291  17.381  0.00  0.00     0.277 HD
ATOM     85  H8  XPC d   1       3.871   9.871  17.818  0.00  0.00     0.277 HD
ATOM     86  H9  XPC d   1       5.336   8.706  15.620  0.00  0.00     0.077 H 
ATOM     87  H10 XPC d   1       5.591  10.278  16.450  0.00  0.00     0.077 H 
ATOM     88  H11 XPC d   1       4.509  10.219  13.957  0.00  0.00     0.060 H 
BRANCH  77  89
ATOM     89  N   XPC d   1       2.838   8.206  14.406  0.00  0.00    -0.073 N 
ATOM     90  H1  XPC d   1       1.946   7.739  14.449  0.00  0.00     0.274 HD
ATOM     91  H2  XPC d   1       3.520   7.676  14.925  0.00  0.00     0.274 HD
ATOM     92  H3  XPC d   1       3.132   8.281  13.445  0.00  0.00     0.274 HD
ENDBRANCH  77  89
ENDBRANCH  73  76
ENDBRANCH  70  72
BRANCH  70  93
ATOM     93  CB  ALA d   1       6.519  14.426  15.841  0.00  0.00    -0.049 C 
ATOM     94  H14 ALA d   1       6.516  15.482  16.150  0.00  0.00     0.030 H 
ATOM     95  H15 ALA d   1       7.055  14.325  14.886  0.00  0.00     0.030 H 
ATOM     96  H16 ALA d   1       7.022  13.821  16.610  0.00  0.00     0.030 H 
ENDBRANCH  70  93
ENDBRANCH  67  70
ENDBRANCH  54  66
ENDBRANCH  50  53
ENDBRANCH  47  49
BRANCH  47  97
ATOM     97  CB  ARG d   1      -1.629  11.648  14.184  0.00  0.00    -0.036 C 
ATOM     98  H28 ARG d   1      -2.432  11.589  14.933  0.00  0.00     0.036 H 
ATOM     99  H29 ARG d   1      -0.789  11.010  14.496  0.00  0.00     0.036 H 
BRANCH  97 100
ATOM    100  CG  ARG d   1      -2.186  11.097  12.821  0.00  0.00    -0.048 C 
ATOM    101  H30 ARG d   1      -2.925  10.314  13.049  0.00  0.00     0.035 H 
ATOM    102  H31 ARG d   1      -1.345  10.657  12.265  0.00  0.00     0.035 H 
BRANCH 100 103
ATOM    103  CD  ARG d   1      -2.883  12.165  11.883  0.00  0.00     0.009 C 
ATOM    104  H32 ARG d   1      -3.029  11.721  10.887  0.00  0.00     0.064 H 
ATOM    105  H33 ARG d   1      -2.228  13.045  11.800  0.00  0.00     0.064 H 
BRANCH 103 106
ATOM    106  NE  ARG d   1      -4.189  12.593  12.407  0.00  0.00    -0.227 N 
ATOM    107  CZ  ARG d   1      -4.995  13.502  11.846  0.00  0.00     0.665 C 
ATOM    108  NH1 ARG d   1      -6.173  13.799  12.403  0.00  0.00    -0.235 N 
ATOM    109  NH2 ARG d   1      -4.651  14.099  10.700  0.00  0.00    -0.235 N 
ATOM    110  H35 ARG d   1      -6.788  14.500  11.965  0.00  0.00     0.174 HD
ATOM    111  H36 ARG d   1      -6.466  13.327  13.270  0.00  0.00     0.174 HD
ATOM    112  H37 ARG d   1      -3.747  13.882  10.257  0.00  0.00     0.174 HD
ATOM    113  H38 ARG d   1      -5.290  14.776  10.260  0.00  0.00     0.174 HD
ATOM    114  H34 ARG d   1      -4.511  12.155  13.282  0.00  0.00     0.177 HD
ENDBRANCH 103 106
ENDBRANCH 100 103
ENDBRANCH  97 100
ENDBRANCH  47  97
ENDBRANCH  44  47
ENDBRANCH  31  43
ENDBRANCH  27  30
ENDBRANCH  24  26
BRANCH  24 115
ATOM    115  CB  LEU d   1       2.421  18.922  14.161  0.00  0.00    -0.035 C 
ATOM    116  H50 LEU d   1       2.227  18.076  13.485  0.00  0.00     0.037 H 
ATOM    117  H51 LEU d   1       3.457  18.869  14.526  0.00  0.00     0.037 H 
BRANCH 115 118
ATOM    118  CG  LEU d   1       2.271  20.228  13.344  0.00  0.00    -0.059 C 
ATOM    119  H52 LEU d   1       1.198  20.430  13.213  0.00  0.00     0.038 H 
BRANCH 118 120
ATOM    120  CD1 LEU d   1       2.908  21.420  14.115  0.00  0.00    -0.073 C 
ATOM    121  H53 LEU d   1       2.795  22.341  13.524  0.00  0.00     0.028 H 
ATOM    122  H54 LEU d   1       3.977  21.220  14.281  0.00  0.00     0.028 H 
ATOM    123  H55 LEU d   1       2.403  21.542  15.084  0.00  0.00     0.028 H 
ENDBRANCH 118 120
BRANCH 118 124
ATOM    124  CD2 LEU d   1       2.907  20.099  11.957  0.00  0.00    -0.073 C 
ATOM    125  H56 LEU d   1       2.450  19.254  11.421  0.00  0.00     0.028 H 
ATOM    126  H57 LEU d   1       3.988  19.924  12.064  0.00  0.00     0.028 H 
ATOM    127  H58 LEU d   1       2.740  21.026  11.389  0.00  0.00     0.028 H 
ENDBRANCH 118 124
ENDBRANCH 115 118
ENDBRANCH  24 115
ENDBRANCH  21  24
ENDBRANCH   8  20
ENDBRANCH   4   7
ENDBRANCH   1   3
BRANCH   1 128
ATOM    128  C   LYS d   1      -3.706  18.140  18.624  0.00  0.00     0.240 C 
ATOM    129  O   LYS d   1      -4.446  18.840  19.331  0.00  0.00    -0.271 OA
ATOM    130  N   B3L d   1      -2.384  18.277  18.573  0.00  0.00    -0.354 N 
ATOM    131  H84 B3L d   1      -1.762  17.768  17.977  0.00  0.00     0.162 HD
BRANCH 130 132
ATOM    132  CB  B3L d   1      -1.994  19.318  19.557  0.00  0.00     0.020 C 
ATOM    133  H83 B3L d   1      -2.889  19.653  20.102  0.00  0.00     0.073 H 
BRANCH 132 134
ATOM    134  CA  B3L d   1      -1.316  20.516  18.879  0.00  0.00     0.028 C 
ATOM    135  H81 B3L d   1      -0.815  21.126  19.645  0.00  0.00     0.050 H 
ATOM    136  H82 B3L d   1      -0.571  20.147  18.158  0.00  0.00     0.050 H 
BRANCH 134 137
ATOM    137  C   B3L d   1      -2.336  21.377  18.145  0.00  0.00     0.220 C 
ATOM    138  O   B3L d   1      -3.104  22.090  18.784  0.00  0.00    -0.274 OA
ATOM    139  N   GLY d   1      -2.351  21.355  16.813  0.00  0.00    -0.352 N 
ATOM    140  H94 GLY d   1      -1.792  20.690  16.318  0.00  0.00     0.162 HD
BRANCH 139 141
ATOM    141  CA  GLY d   1      -3.199  22.320  16.061  0.00  0.00     0.069 C 
ATOM    142  H95 GLY d   1      -3.171  22.049  14.995  0.00  0.00     0.078 H 
ATOM    143  H96 GLY d   1      -2.779  23.328  16.194  0.00  0.00     0.078 H 
BRANCH 141 144
ATOM    144  C   GLY d   1      -4.656  22.343  16.513  0.00  0.00     0.236 C 
ATOM    145  O   GLY d   1      -5.188  23.394  16.845  0.00  0.00    -0.272 OA
ATOM    146  N   ASP d   1      -5.307  21.176  16.556  0.00  0.00    -0.346 N 
ATOM    147  H97 ASP d   1      -4.815  20.342  16.307  0.00  0.00     0.163 HD
BRANCH 146 148
ATOM    148  CA  ASP d   1      -6.715  21.071  16.954  0.00  0.00     0.098 C 
ATOM    149  H98 ASP d   1      -7.286  21.710  16.265  0.00  0.00     0.088 H 
BRANCH 148 150
ATOM    150  C   ASP d   1      -6.968  21.594  18.345  0.00  0.00     0.241 C 
ATOM    151  O   ASP d   1      -7.938  22.360  18.564  0.00  0.00    -0.271 OA
ATOM    152  N   ALA d   1      -6.102  21.229  19.286  0.00  0.00    -0.346 N 
ATOM    153 1H10 ALA d   1      -5.339  20.626  19.055  0.00  0.00     0.163 HD
BRANCH 152 154
ATOM    154  CA  ALA d   1      -6.263  21.705  20.647  0.00  0.00     0.086 C 
ATOM    155 2H10 ALA d   1      -7.260  21.400  20.999  0.00  0.00     0.086 H 
BRANCH 154 156
ATOM    156  C   ALA d   1      -6.178  23.232  20.708  0.00  0.00     0.240 C 
ATOM    157  O   ALA d   1      -6.736  23.847  21.607  0.00  0.00    -0.271 OA
ATOM    158  N   PHE d   1      -5.485  23.837  19.742  0.00  0.00    -0.346 N 
ATOM    159 6H10 PHE d   1      -5.087  23.286  19.009  0.00  0.00     0.163 HD
BRANCH 158 160
ATOM    160  CA  PHE d   1      -5.293  25.293  19.729  0.00  0.00     0.093 C 
ATOM    161 7H10 PHE d   1      -5.362  25.640  20.771  0.00  0.00     0.088 H 
BRANCH 160 162
ATOM    162  C   PHE d   1      -6.309  26.058  18.926  0.00  0.00     0.241 C 
ATOM    163  O   PHE d   1      -6.201  27.284  18.811  0.00  0.00    -0.271 OA
ATOM    164  N   ASN d   1      -7.275  25.352  18.355  0.00  0.00    -0.346 N 
ATOM    165 5H11 ASN d   1      -7.279  24.359  18.476  0.00  0.00     0.163 HD
BRANCH 164 166
ATOM    166  CA  ASN d   1      -8.330  25.961  17.560  0.00  0.00     0.097 C 
ATOM    167 6H11 ASN d   1      -7.860  26.660  16.852  0.00  0.00     0.088 H 
BRANCH 166 168
ATOM    168  C   ASN d   1      -9.380  26.725  18.359  0.00  0.00     0.241 C 
ATOM    169  O   ASN d   1      -9.997  26.154  19.227  0.00  0.00    -0.271 OA
ATOM    170  N   ARG d   1      -9.622  27.997  18.032  0.00  0.00    -0.346 N 
ATOM    171 1H12 ARG d   1      -9.148  28.398  17.248  0.00  0.00     0.163 HD
BRANCH 170 172
ATOM    172  CA  ARG d   1     -10.561  28.817  18.791  0.00  0.00     0.089 C 
ATOM    173 2H12 ARG d   1     -10.878  28.251  19.679  0.00  0.00     0.087 H 
BRANCH 172 174
ATOM    174  C   ARG d   1     -11.793  29.136  17.960  0.00  0.00     0.238 C 
ATOM    175  O   ARG d   1     -11.823  28.769  16.772  0.00  0.00    -0.271 OA
ATOM    176  N   NH2 d   1     -12.757  29.743  19.046  0.00  0.00    -0.368 N 
ATOM    177 4H13 NH2 d   1     -13.671  30.053  18.786  0.00  0.00     0.159 HD
ATOM    178 5H13 NH2 d   1     -12.455  29.819  19.996  0.00  0.00     0.159 HD
ENDBRANCH 172 174
BRANCH 172 179
ATOM    179  CB  ARG d   1      -9.885  30.098  19.251  0.00  0.00    -0.036 C 
ATOM    180 3H12 ARG d   1     -10.643  30.763  19.691  0.00  0.00     0.036 H 
ATOM    181 4H12 ARG d   1      -9.425  30.591  18.381  0.00  0.00     0.036 H 
BRANCH 179 182
ATOM    182  CG  ARG d   1      -8.829  29.829  20.268  0.00  0.00    -0.048 C 
ATOM    183 5H12 ARG d   1      -8.122  29.093  19.858  0.00  0.00     0.035 H 
ATOM    184 6H12 ARG d   1      -9.304  29.417  21.171  0.00  0.00     0.035 H 
BRANCH 182 185
ATOM    185  CD  ARG d   1      -8.074  31.062  20.643  0.00  0.00     0.009 C 
ATOM    186 7H12 ARG d   1      -8.736  31.748  21.192  0.00  0.00     0.064 H 
ATOM    187 8H12 ARG d   1      -7.703  31.559  19.734  0.00  0.00     0.064 H 
BRANCH 185 188
ATOM    188  NE  ARG d   1      -6.946  30.686  21.491  0.00  0.00    -0.227 N 
ATOM    189  CZ  ARG d   1      -5.999  31.521  21.912  0.00  0.00     0.665 C 
ATOM    190  NH1 ARG d   1      -6.033  32.801  21.524  0.00  0.00    -0.235 N 
ATOM    191  NH2 ARG d   1      -5.009  31.070  22.703  0.00  0.00    -0.235 N 
ATOM    192 0H13 ARG d   1      -5.305  33.456  21.844  0.00  0.00     0.174 HD
ATOM    193 1H13 ARG d   1      -6.787  33.132  20.905  0.00  0.00     0.174 HD
ATOM    194 2H13 ARG d   1      -4.993  30.083  22.996  0.00  0.00     0.174 HD
ATOM    195 3H13 ARG d   1      -4.267  31.712  23.016  0.00  0.00     0.174 HD
ATOM    196 9H12 ARG d   1      -6.878  29.701  21.785  0.00  0.00     0.177 HD
ENDBRANCH 185 188
ENDBRANCH 182 185
ENDBRANCH 179 182
ENDBRANCH 172 179
ENDBRANCH 170 172
ENDBRANCH 166 168
BRANCH 166 197
ATOM    197  CB  ASN d   1      -9.064  24.861  16.783  0.00  0.00     0.036 C 
ATOM    198 7H11 ASN d   1      -9.570  24.198  17.500  0.00  0.00     0.051 H 
ATOM    199 8H11 ASN d   1      -8.327  24.283  16.206  0.00  0.00     0.051 H 
BRANCH 197 200
ATOM    200  CG  ASN d   1     -10.071  25.413  15.853  0.00  0.00     0.217 C 
ATOM    201  OD1 ASN d   1      -9.829  26.436  15.256  0.00  0.00    -0.274 OA
ATOM    202  ND2 ASN d   1     -11.217  24.751  15.719  0.00  0.00    -0.370 N 
ATOM    203 9H11 ASN d   1     -11.923  25.094  15.099  0.00  0.00     0.159 HD
ATOM    204 0H12 ASN d   1     -11.373  23.911  16.238  0.00  0.00     0.159 HD
ENDBRANCH 197 200
ENDBRANCH 166 197
ENDBRANCH 164 166
ENDBRANCH 160 162
BRANCH 160 205
ATOM    205  CB  PHE d   1      -3.905  25.641  19.191  0.00  0.00    -0.014 C 
ATOM    206 8H10 PHE d   1      -3.951  25.654  18.092  0.00  0.00     0.043 H 
ATOM    207 9H10 PHE d   1      -3.199  24.864  19.520  0.00  0.00     0.043 H 
BRANCH 205 208
ATOM    208  CG  PHE d   1      -3.400  26.964  19.657  0.00  0.00    -0.056 A 
ATOM    209  CD1 PHE d   1      -3.229  27.211  21.024  0.00  0.00    -0.077 A 
ATOM    210  CE1 PHE d   1      -2.754  28.447  21.474  0.00  0.00    -0.082 A 
ATOM    211 0H11 PHE d   1      -3.468  26.435  21.742  0.00  0.00     0.084 H 
ATOM    212  CZ  PHE d   1      -2.452  29.449  20.547  0.00  0.00    -0.083 A 
ATOM    213 2H11 PHE d   1      -2.621  28.627  22.535  0.00  0.00     0.083 H 
ATOM    214  CE2 PHE d   1      -2.618  29.227  19.188  0.00  0.00    -0.082 A 
ATOM    215 4H11 PHE d   1      -2.085  30.408  20.893  0.00  0.00     0.083 H 
ATOM    216  CD2 PHE d   1      -3.099  27.984  18.739  0.00  0.00    -0.077 A 
ATOM    217 3H11 PHE d   1      -2.378  30.008  18.475  0.00  0.00     0.083 H 
ATOM    218 1H11 PHE d   1      -3.238  27.812  17.678  0.00  0.00     0.084 H 
ENDBRANCH 205 208
ENDBRANCH 160 205
ENDBRANCH 158 160
ENDBRANCH 154 156
BRANCH 154 219
ATOM    219  CB  ALA d   1      -5.200  21.077  21.593  0.00  0.00    -0.049 C 
ATOM    220 3H10 ALA d   1      -5.348  21.457  22.615  0.00  0.00     0.030 H 
ATOM    221 4H10 ALA d   1      -4.193  21.348  21.244  0.00  0.00     0.030 H 
ATOM    222 5H10 ALA d   1      -5.307  19.982  21.590  0.00  0.00     0.030 H 
ENDBRANCH 154 219
ENDBRANCH 152 154
ENDBRANCH 148 150
BRANCH 148 223
ATOM    223  CB  ASP d   1      -7.263  19.617  16.787  0.00  0.00     0.043 C 
ATOM    224  H99 ASP d   1      -8.249  19.553  17.270  0.00  0.00     0.052 H 
ATOM    225 0H10 ASP d   1      -6.569  18.919  17.277  0.00  0.00     0.052 H 
BRANCH 223 226
ATOM    226  CG  ASP d   1      -7.406  19.221  15.330  0.00  0.00     0.175 C 
ATOM    227  OD1 ASP d   1      -7.452  20.143  14.473  0.00  0.00    -0.648 OA
ATOM    228  OD2 ASP d   1      -7.443  18.011  15.015  0.00  0.00    -0.648 OA
ENDBRANCH 223 226
ENDBRANCH 148 223
ENDBRANCH 146 148
ENDBRANCH 141 144
ENDBRANCH 139 141
ENDBRANCH 134 137
ENDBRANCH 132 134
BRANCH 132 229
ATOM    229  CG  B3L d   1      -0.958  18.747  20.535  0.00  0.00    -0.043 C 
ATOM    230  H85 B3L d   1      -0.604  19.556  21.190  0.00  0.00     0.036 H 
ATOM    231  H86 B3L d   1      -0.111  18.344  19.960  0.00  0.00     0.036 H 
BRANCH 229 232
ATOM    232  CD  B3L d   1      -1.546  17.626  21.405  0.00  0.00    -0.059 C 
ATOM    233  H87 B3L d   1      -1.897  16.832  20.730  0.00  0.00     0.038 H 
BRANCH 232 234
ATOM    234  CE2 B3L d   1      -0.486  17.034  22.318  0.00  0.00    -0.073 C 
ATOM    235  H88 B3L d   1      -0.932  16.235  22.929  0.00  0.00     0.028 H 
ATOM    236  H89 B3L d   1      -0.089  17.820  22.977  0.00  0.00     0.028 H 
ATOM    237  H90 B3L d   1       0.331  16.617  21.710  0.00  0.00     0.028 H 
ENDBRANCH 232 234
BRANCH 232 238
ATOM    238  CE1 B3L d   1      -2.732  18.093  22.227  0.00  0.00    -0.073 C 
ATOM    239  H91 B3L d   1      -3.495  18.520  21.560  0.00  0.00     0.028 H 
ATOM    240  H92 B3L d   1      -2.402  18.859  22.945  0.00  0.00     0.028 H 
ATOM    241  H93 B3L d   1      -3.159  17.239  22.773  0.00  0.00     0.028 H 
ENDBRANCH 232 238
ENDBRANCH 229 232
ENDBRANCH 132 229
ENDBRANCH 130 132
ENDBRANCH   1 128
BRANCH   1 242
ATOM    242  CB  LYS d   1      -4.603  15.749  18.644  0.00  0.00    -0.038 C 
ATOM    243  H70 LYS d   1      -5.165  15.051  18.006  0.00  0.00     0.036 H 
ATOM    244  H71 LYS d   1      -5.236  16.066  19.486  0.00  0.00     0.036 H 
BRANCH 242 245
ATOM    245  CG  LYS d   1      -3.407  14.975  19.232  0.00  0.00    -0.061 C 
ATOM    246  H72 LYS d   1      -2.606  15.678  19.502  0.00  0.00     0.033 H 
ATOM    247  H73 LYS d   1      -3.029  14.256  18.491  0.00  0.00     0.033 H 
BRANCH 245 248
ATOM    248  CD  LYS d   1      -3.880  14.233  20.474  0.00  0.00    -0.043 C 
ATOM    249  H74 LYS d   1      -4.878  13.821  20.267  0.00  0.00     0.035 H 
ATOM    250  H75 LYS d   1      -3.946  14.956  21.300  0.00  0.00     0.035 H 
BRANCH 248 251
ATOM    251  CE  LYS d   1      -2.977  13.087  20.919  0.00  0.00     0.080 C 
ATOM    252  H76 LYS d   1      -2.134  13.488  21.501  0.00  0.00     0.075 H 
ATOM    253  H77 LYS d   1      -2.593  12.557  20.035  0.00  0.00     0.075 H 
BRANCH 251 254
ATOM    254  NZ  LYS d   1      -3.763  12.140  21.766  0.00  0.00    -0.079 N 
ATOM    255  H78 LYS d   1      -3.169  11.381  22.062  0.00  0.00     0.274 HD
ATOM    256  H79 LYS d   1      -4.535  11.773  21.232  0.00  0.00     0.274 HD
ATOM    257  H80 LYS d   1      -4.115  12.626  22.576  0.00  0.00     0.274 HD
ENDBRANCH 251 254
ENDBRANCH 248 251
ENDBRANCH 245 248
ENDBRANCH 242 245
ENDBRANCH   1 242
TORSDOF 60
