REMARK WARNING: 32 MAX_TORS EXCEEDED!!!
REMARK  47 active torsions:
REMARK  status: ('A' for Active; 'I' for Inactive)
REMARK    1  A    between atoms: N_1  and  CA_2 
REMARK    2  A    between atoms: CA_2  and  C_3 
REMARK    3  A    between atoms: CA_2  and  CB_5 
REMARK       I    between atoms: C_3  and  N_6 
REMARK    4  A    between atoms: N_6  and  CA_7 
REMARK    5  A    between atoms: CA_7  and  C_8 
REMARK    6  A    between atoms: CA_7  and  CB_10 
REMARK       I    between atoms: C_8  and  N_17 
REMARK    7  A    between atoms: CB_10  and  CG_11 
REMARK    8  A    between atoms: CG_11  and  CD_12 
REMARK    9  A    between atoms: CD_12  and  NE_13 
REMARK       I    between atoms: NE_13  and  CZ_14 
REMARK       I    between atoms: CZ_14  and  NH1_15 
REMARK   10  A    between atoms: N_17  and  CA_18 
REMARK   11  A    between atoms: CA_18  and  C_19 
REMARK   12  A    between atoms: CA_18  and  CB_21 
REMARK       I    between atoms: C_19  and  N_24 
REMARK   13  A    between atoms: CB_21  and  OG1_22 
REMARK   14  A    between atoms: CB_21  and  CG2_23 
REMARK   15  A    between atoms: N_24  and  CA_25 
REMARK   16  A    between atoms: CA_25  and  C_26 
REMARK   17  A    between atoms: CA_25  and  CB_28 
REMARK       I    between atoms: C_26  and  N_29 
REMARK   18  A    between atoms: N_29  and  CA_30 
REMARK   19  A    between atoms: CA_30  and  C_31 
REMARK   20  A    between atoms: CA_30  and  CB_33 
REMARK       I    between atoms: C_31  and  N_38 
REMARK   21  A    between atoms: CB_33  and  CG_34 
REMARK   22  A    between atoms: CG_34  and  CD_35 
REMARK       I    between atoms: CD_35  and  NE2_37 
REMARK   23  A    between atoms: N_38  and  CA_39 
REMARK   24  A    between atoms: CA_39  and  C_40 
REMARK   25  A    between atoms: CA_39  and  CB_42 
REMARK       I    between atoms: C_40  and  N_45 
REMARK   26  A    between atoms: CB_42  and  OG1_43 
REMARK   27  A    between atoms: CB_42  and  CG2_44 
REMARK   28  A    between atoms: N_45  and  CA_46 
REMARK   29  A    between atoms: CA_46  and  C_47 
REMARK   30  A    between atoms: CA_46  and  CB_49 
REMARK       I    between atoms: C_47  and  N_50 
REMARK   31  A    between atoms: N_50  and  CA_51 
REMARK   32  A    between atoms: CA_51  and  C_52 
REMARK   33  A    between atoms: CA_51  and  CB_54 
REMARK       I    between atoms: C_52  and  N_55 
REMARK   34  A    between atoms: N_55  and  CA_56 
REMARK   35  A    between atoms: CA_56  and  CB_57 
REMARK   36  A    between atoms: CA_56  and  C_62 
REMARK   37  A    between atoms: CB_57  and  CG_58 
REMARK   38  A    between atoms: CG_58  and  CD_59 
REMARK   39  A    between atoms: CD_59  and  CE_60 
REMARK   40  A    between atoms: CE_60  and  NZ_61 
REMARK   41  A    between atoms: NZ_61  and  CM1_64 
REMARK   42  A    between atoms: NZ_61  and  CM2_65 
REMARK   43  A    between atoms: NZ_61  and  CM3_66 
REMARK       I    between atoms: C_62  and  N_67 
REMARK   44  A    between atoms: N_67  and  CA_68 
REMARK   45  A    between atoms: CA_68  and  C_69 
REMARK   46  A    between atoms: CA_68  and  CB_71 
REMARK   47  A    between atoms: CB_71  and  OG_72 
ROOT
ATOM      1  N   THR d   1      11.095  22.215  16.130  0.00  0.00    -0.344 N 
ATOM      2  H   THR d   1      11.303  21.225  16.259  0.00  0.00     0.163 HD
ATOM      3  C   GLN d   1      10.103  22.788  16.841  0.00  0.00     0.241 C 
ATOM      4  O   GLN d   1       9.802  23.963  16.722  0.00  0.00    -0.271 OA
ENDROOT
BRANCH   3   5
ATOM      5  CA  GLN d   1       9.337  21.927  17.864  0.00  0.00     0.090 C 
ATOM      6  H   GLN d   1       9.604  20.875  17.768  0.00  0.00     0.087 H 
BRANCH   5   7
ATOM      7  N   GLN d   1       9.692  22.470  19.175  0.00  0.00    -0.346 N 
ATOM      8  C   LYS d   1      10.775  22.052  19.817  0.00  0.00     0.240 C 
ATOM      9  O   LYS d   1      11.495  21.136  19.377  0.00  0.00    -0.271 OA
ATOM     10  H   GLN d   1       9.098  23.181  19.602  0.00  0.00     0.163 HD
BRANCH   8  11
ATOM     11  CA  LYS d   1      11.075  22.719  21.163  0.00  0.00     0.086 C 
ATOM     12  H   LYS d   1      10.151  23.043  21.642  0.00  0.00     0.086 H 
BRANCH  11  13
ATOM     13  N   LYS d   1      11.751  21.742  22.009  0.00  0.00    -0.346 N 
ATOM     14  C   THR d   1      11.441  21.550  23.288  0.00  0.00     0.243 C 
ATOM     15  O   THR d   1      10.697  22.289  23.895  0.00  0.00    -0.271 OA
ATOM     16  H   LYS d   1      12.497  21.179  21.600  0.00  0.00     0.163 HD
BRANCH  14  17
ATOM     17  CA  THR d   1      12.059  20.350  23.986  0.00  0.00     0.113 C 
ATOM     18  H   THR d   1      13.101  20.195  23.704  0.00  0.00     0.091 H 
BRANCH  17  19
ATOM     19  N   THR d   1      12.005  20.573  25.439  0.00  0.00    -0.344 N 
ATOM     20  C   ARG d   1      12.981  21.226  26.066  0.00  0.00     0.241 C 
ATOM     21  O   ARG d   1      13.906  21.736  25.446  0.00  0.00    -0.271 OA
ATOM     22  H   THR d   1      11.210  20.223  25.973  0.00  0.00     0.163 HD
BRANCH  20  23
ATOM     23  CA  ARG d   1      12.938  21.355  27.617  0.00  0.00     0.089 C 
ATOM     24  H   ARG d   1      12.272  20.579  27.996  0.00  0.00     0.087 H 
BRANCH  23  25
ATOM     25  N   ARG d   1      14.299  21.237  28.141  0.00  0.00    -0.346 N 
ATOM     26  C   ALA d   1      15.028  20.146  27.958  0.00  0.00     0.248 C 
ATOM     27  O   ALA d   1      14.572  19.085  27.550  0.00  0.00    -0.271 OA
ATOM     28  H   ARG d   1      14.698  22.017  28.662  0.00  0.00     0.163 HD
BRANCH  26  29
ATOM     29  CA  ALA d   1      16.496  20.247  28.310  0.00  0.00     0.172 C 
ATOM     30  H   ALA d   1      17.049  19.894  27.439  0.00  0.00     0.098 H 
BRANCH  29  31
ATOM     31  N   ALA d   1      16.942  21.650  28.543  0.00  0.00    -0.067 N 
ATOM     32  H   ALA d   1      16.692  22.223  27.737  0.00  0.00     0.275 HD
ATOM     33  H   ALA d   1      16.484  22.017  29.377  0.00  0.00     0.275 HD
ATOM     34  H   ALA d   1      17.953  21.667  28.674  0.00  0.00     0.275 HD
ENDBRANCH  29  31
BRANCH  29  35
ATOM     35  CB  ALA d   1      16.836  19.368  29.457  0.00  0.00    -0.042 C 
ATOM     36  H   ALA d   1      16.249  19.664  30.326  0.00  0.00     0.030 H 
ATOM     37  H   ALA d   1      16.610  18.333  29.199  0.00  0.00     0.030 H 
ATOM     38  H   ALA d   1      17.898  19.464  29.684  0.00  0.00     0.030 H 
ENDBRANCH  29  35
ENDBRANCH  26  29
ENDBRANCH  23  25
BRANCH  23  39
ATOM     39  CB  ARG d   1      12.453  22.730  28.034  0.00  0.00    -0.036 C 
ATOM     40  H   ARG d   1      13.287  23.401  27.828  0.00  0.00     0.036 H 
ATOM     41  H   ARG d   1      12.122  22.615  29.066  0.00  0.00     0.036 H 
BRANCH  39  42
ATOM     42  CG  ARG d   1      11.281  23.324  27.309  0.00  0.00    -0.048 C 
ATOM     43  H   ARG d   1      10.435  22.639  27.364  0.00  0.00     0.035 H 
ATOM     44  H   ARG d   1      11.546  23.491  26.265  0.00  0.00     0.035 H 
BRANCH  42  45
ATOM     45  CD  ARG d   1      10.892  24.689  27.974  0.00  0.00     0.009 C 
ATOM     46  H   ARG d   1      10.605  24.486  29.006  0.00  0.00     0.064 H 
ATOM     47  H   ARG d   1      10.085  25.127  27.386  0.00  0.00     0.064 H 
BRANCH  45  48
ATOM     48  NE  ARG d   1      11.987  25.639  27.999  0.00  0.00    -0.227 N 
ATOM     49  CZ  ARG d   1      12.465  26.312  29.043  0.00  0.00     0.665 C 
ATOM     50  NH1 ARG d   1      11.984  26.181  30.248  0.00  0.00    -0.235 N 
ATOM     51  NH2 ARG d   1      13.477  27.141  28.858  0.00  0.00    -0.235 N 
ATOM     52  H   ARG d   1      11.209  25.541  30.421  0.00  0.00     0.174 HD
ATOM     53  H   ARG d   1      12.383  26.718  31.018  0.00  0.00     0.174 HD
ATOM     54  H   ARG d   1      13.878  27.256  27.927  0.00  0.00     0.174 HD
ATOM     55  H   ARG d   1      13.857  27.666  29.646  0.00  0.00     0.174 HD
ATOM     56  H   ARG d   1      12.448  25.813  27.106  0.00  0.00     0.177 HD
ENDBRANCH  45  48
ENDBRANCH  42  45
ENDBRANCH  39  42
ENDBRANCH  23  39
ENDBRANCH  20  23
ENDBRANCH  17  19
BRANCH  17  57
ATOM     57  CB  THR d   1      11.230  19.153  23.595  0.00  0.00     0.060 C 
ATOM     58  H   THR d   1      11.234  19.064  22.509  0.00  0.00     0.086 H 
BRANCH  57  59
ATOM     59  OG1 THR d   1       9.915  19.343  24.119  0.00  0.00    -0.393 OA
ATOM     60  H   THR d   1       9.538  20.145  23.750  0.00  0.00     0.210 HD
ENDBRANCH  57  59
BRANCH  57  61
ATOM     61  CG2 THR d   1      11.795  17.856  24.197  0.00  0.00    -0.050 C 
ATOM     62  H   THR d   1      12.813  17.704  23.838  0.00  0.00     0.031 H 
ATOM     63  H   THR d   1      11.799  17.933  25.284  0.00  0.00     0.031 H 
ATOM     64  H   THR d   1      11.172  17.015  23.894  0.00  0.00     0.031 H 
ENDBRANCH  57  61
ENDBRANCH  17  57
ENDBRANCH  14  17
ENDBRANCH  11  13
BRANCH  11  65
ATOM     65  CB  LYS d   1      11.944  23.962  20.958  0.00  0.00    -0.049 C 
ATOM     66  H   LYS d   1      12.153  24.421  21.924  0.00  0.00     0.030 H 
ATOM     67  H   LYS d   1      12.881  23.674  20.481  0.00  0.00     0.030 H 
ATOM     68  H   LYS d   1      11.415  24.673  20.324  0.00  0.00     0.030 H 
ENDBRANCH  11  65
ENDBRANCH   8  11
ENDBRANCH   5   7
BRANCH   5  69
ATOM     69  CB  GLN d   1       7.828  22.004  17.645  0.00  0.00    -0.030 C 
ATOM     70  H   GLN d   1       7.620  21.543  16.679  0.00  0.00     0.037 H 
ATOM     71  H   GLN d   1       7.547  23.055  17.709  0.00  0.00     0.037 H 
BRANCH  69  72
ATOM     72  CG  GLN d   1       7.005  21.255  18.687  0.00  0.00     0.011 C 
ATOM     73  H   GLN d   1       5.950  21.442  18.486  0.00  0.00     0.047 H 
ATOM     74  H   GLN d   1       7.304  21.608  19.674  0.00  0.00     0.047 H 
BRANCH  72  75
ATOM     75  CD  GLN d   1       7.238  19.760  18.630  0.00  0.00     0.215 C 
ATOM     76  OE1 GLN d   1       7.754  19.133  19.589  0.00  0.00    -0.274 OA
ATOM     77  NE2 GLN d   1       6.893  19.170  17.500  0.00  0.00    -0.370 N 
ATOM     78  H   GLN d   1       7.043  18.168  17.381  0.00  0.00     0.159 HD
ATOM     79  H   GLN d   1       6.477  19.716  16.746  0.00  0.00     0.159 HD
ENDBRANCH  72  75
ENDBRANCH  69  72
ENDBRANCH   5  69
ENDBRANCH   3   5
BRANCH   1  80
ATOM     80  CA  THR d   1      11.883  23.010  15.166  0.00  0.00     0.113 C 
ATOM     81  H   THR d   1      11.318  23.936  15.063  0.00  0.00     0.091 H 
BRANCH  80  82
ATOM     82  C   THR d   1      12.028  22.334  13.800  0.00  0.00     0.243 C 
ATOM     83  O   THR d   1      11.717  21.163  13.626  0.00  0.00    -0.271 OA
ATOM     84  N   ALA d   1      12.547  23.088  12.840  0.00  0.00    -0.346 N 
ATOM     85  H   ALA d   1      12.713  24.079  13.018  0.00  0.00     0.163 HD
BRANCH  84  86
ATOM     86  CA  ALA d   1      12.888  22.527  11.528  0.00  0.00     0.086 C 
ATOM     87  H   ALA d   1      13.232  21.498  11.634  0.00  0.00     0.086 H 
BRANCH  86  88
ATOM     88  C   ALA d   1      13.981  23.391  10.914  0.00  0.00     0.240 C 
ATOM     89  O   ALA d   1      14.052  24.573  11.221  0.00  0.00    -0.271 OA
ATOM     90  N   ARG d   1      14.812  22.807  10.047  0.00  0.00    -0.346 N 
ATOM     91  H   ARG d   1      14.788  21.792   9.952  0.00  0.00     0.163 HD
BRANCH  90  92
ATOM     92  CA  ARG d   1      15.764  23.575   9.221  0.00  0.00     0.086 C 
ATOM     93  H   ARG d   1      16.166  24.389   9.825  0.00  0.00     0.086 H 
BRANCH  92  94
ATOM     94  C   ARG d   1      15.030  24.075   7.992  0.00  0.00     0.240 C 
ATOM     95  O   ARG d   1      14.264  23.337   7.377  0.00  0.00    -0.271 OA
ATOM     96  N   M3L d   1      15.255  25.317   7.624  0.00  0.00    -0.346 N 
ATOM     97  H   M3L d   1      15.894  25.896   8.169  0.00  0.00     0.163 HD
BRANCH  96  98
ATOM     98  CA  M3L d   1      14.616  25.867   6.470  0.00  0.00     0.089 C 
ATOM     99  H   M3L d   1      13.697  25.377   6.148  0.00  0.00     0.087 H 
BRANCH  98 100
ATOM    100  CB  M3L d   1      14.452  27.276   6.923  0.00  0.00    -0.038 C 
ATOM    101  H   M3L d   1      15.454  27.704   6.934  0.00  0.00     0.036 H 
ATOM    102  H   M3L d   1      13.927  27.223   7.877  0.00  0.00     0.036 H 
BRANCH 100 103
ATOM    103  CG  M3L d   1      13.632  28.176   6.054  0.00  0.00    -0.061 C 
ATOM    104  H   M3L d   1      12.965  27.660   5.363  0.00  0.00     0.033 H 
ATOM    105  H   M3L d   1      14.205  28.767   5.339  0.00  0.00     0.033 H 
BRANCH 103 106
ATOM    106  CD  M3L d   1      12.926  28.990   7.137  0.00  0.00    -0.042 C 
ATOM    107  H   M3L d   1      13.548  29.070   8.028  0.00  0.00     0.035 H 
ATOM    108  H   M3L d   1      11.998  28.506   7.442  0.00  0.00     0.035 H 
BRANCH 106 109
ATOM    109  CE  M3L d   1      12.654  30.344   6.555  0.00  0.00     0.084 C 
ATOM    110  H   M3L d   1      11.900  30.202   5.781  0.00  0.00     0.076 H 
ATOM    111  H   M3L d   1      13.614  30.732   6.214  0.00  0.00     0.076 H 
BRANCH 109 112
ATOM    112  NZ  M3L d   1      12.112  31.336   7.485  0.00  0.00    -0.079 N 
BRANCH 112 113
ATOM    113  CM1 M3L d   1      10.981  31.930   6.786  0.00  0.00     0.067 C 
ATOM    114  H   M3L d   1      11.329  32.392   5.862  0.00  0.00     0.068 H 
ATOM    115  H   M3L d   1      10.251  31.154   6.554  0.00  0.00     0.068 H 
ATOM    116  H   M3L d   1      10.520  32.687   7.421  0.00  0.00     0.068 H 
ENDBRANCH 112 113
BRANCH 112 117
ATOM    117  CM2 M3L d   1      13.140  32.336   7.710  0.00  0.00     0.067 C 
ATOM    118  H   M3L d   1      14.023  31.858   8.135  0.00  0.00     0.068 H 
ATOM    119  H   M3L d   1      13.401  32.806   6.762  0.00  0.00     0.068 H 
ATOM    120  H   M3L d   1      12.765  33.091   8.401  0.00  0.00     0.068 H 
ENDBRANCH 112 117
BRANCH 112 121
ATOM    121  CM3 M3L d   1      11.665  30.860   8.785  0.00  0.00     0.067 C 
ATOM    122  H   M3L d   1      10.871  30.126   8.648  0.00  0.00     0.068 H 
ATOM    123  H   M3L d   1      12.502  30.398   9.309  0.00  0.00     0.068 H 
ATOM    124  H   M3L d   1      11.289  31.700   9.368  0.00  0.00     0.068 H 
ENDBRANCH 112 121
ENDBRANCH 109 112
ENDBRANCH 106 109
ENDBRANCH 103 106
ENDBRANCH 100 103
ENDBRANCH  98 100
BRANCH  98 125
ATOM    125  C   M3L d   1      15.575  25.804   5.310  0.00  0.00     0.241 C 
ATOM    126  O   M3L d   1      16.695  26.230   5.452  0.00  0.00    -0.271 OA
ATOM    127  N   SER d   1      15.154  25.271   4.170  0.00  0.00    -0.343 N 
ATOM    128  H   SER d   1      14.165  25.041   4.070  0.00  0.00     0.163 HD
BRANCH 127 129
ATOM    129  CA  SER d   1      16.068  24.999   3.040  0.00  0.00     0.116 C 
ATOM    130  H   SER d   1      16.815  24.296   3.408  0.00  0.00     0.093 H 
BRANCH 129 131
ATOM    131  C   SER d   1      16.812  26.253   2.548  0.00  0.00     0.198 C 
ATOM    132  O   SER d   1      16.207  27.346   2.484  0.00  0.00    -0.646 OA
ATOM    133  O1  SER d   1      18.024  26.179   2.212  0.00  0.00    -0.646 OA
ENDBRANCH 129 131
BRANCH 129 134
ATOM    134  CB  SER d   1      15.282  24.406   1.872  0.00  0.00     0.045 C 
ATOM    135  H   SER d   1      15.908  24.438   0.980  0.00  0.00     0.077 H 
ATOM    136  H   SER d   1      14.370  24.988   1.736  0.00  0.00     0.077 H 
BRANCH 134 137
ATOM    137  OG  SER d   1      14.925  23.061   2.125  0.00  0.00    -0.398 OA
ATOM    138  H   SER d   1      14.380  23.019   2.914  0.00  0.00     0.209 HD
ENDBRANCH 134 137
ENDBRANCH 129 134
ENDBRANCH 127 129
ENDBRANCH  98 125
ENDBRANCH  96  98
ENDBRANCH  92  94
BRANCH  92 139
ATOM    139  CB  ARG d   1      16.914  22.685   8.729  0.00  0.00    -0.049 C 
ATOM    140  H   ARG d   1      17.448  22.276   9.587  0.00  0.00     0.030 H 
ATOM    141  H   ARG d   1      16.510  21.870   8.129  0.00  0.00     0.030 H 
ATOM    142  H   ARG d   1      17.598  23.279   8.123  0.00  0.00     0.030 H 
ENDBRANCH  92 139
ENDBRANCH  90  92
ENDBRANCH  86  88
BRANCH  86 143
ATOM    143  CB  ALA d   1      11.648  22.544  10.621  0.00  0.00    -0.049 C 
ATOM    144  H   ALA d   1      10.858  21.947  11.076  0.00  0.00     0.030 H 
ATOM    145  H   ALA d   1      11.304  23.571  10.498  0.00  0.00     0.030 H 
ATOM    146  H   ALA d   1      11.906  22.127   9.648  0.00  0.00     0.030 H 
ENDBRANCH  86 143
ENDBRANCH  84  86
ENDBRANCH  80  82
BRANCH  80 147
ATOM    147  CB  THR d   1      13.320  23.288  15.676  0.00  0.00     0.060 C 
ATOM    148  H   THR d   1      13.848  23.899  14.944  0.00  0.00     0.086 H 
BRANCH 147 149
ATOM    149  OG1 THR d   1      13.949  22.030  15.882  0.00  0.00    -0.393 OA
ATOM    150  H   THR d   1      14.844  22.169  16.199  0.00  0.00     0.210 HD
ENDBRANCH 147 149
BRANCH 147 151
ATOM    151  CG2 THR d   1      13.304  24.039  17.010  0.00  0.00    -0.050 C 
ATOM    152  H   THR d   1      12.791  24.992  16.883  0.00  0.00     0.031 H 
ATOM    153  H   THR d   1      12.781  23.441  17.756  0.00  0.00     0.031 H 
ATOM    154  H   THR d   1      14.328  24.217  17.338  0.00  0.00     0.031 H 
ENDBRANCH 147 151
ENDBRANCH  80 147
ENDBRANCH   1  80
TORSDOF 47
