REMARK WARNING: 32 MAX_TORS EXCEEDED!!!
REMARK  38 active torsions:
REMARK  status: ('A' for Active; 'I' for Inactive)
REMARK    1  A    between atoms: C_1  and  CH3_3 
REMARK       I    between atoms: N_4  and  C_1 
REMARK    2  A    between atoms: CA_5  and  N_4 
REMARK    3  A    between atoms: C_6  and  CA_5 
REMARK    4  A    between atoms: CA_5  and  CB_8 
REMARK       I    between atoms: N_15  and  C_6 
REMARK    5  A    between atoms: CB_8  and  CG_9 
REMARK    6  A    between atoms: CA_16  and  N_15 
REMARK    7  A    between atoms: C_17  and  CA_16 
REMARK    8  A    between atoms: CA_16  and  CB_19 
REMARK       I    between atoms: N_23  and  C_17 
REMARK    9  A    between atoms: CB_19  and  CG_20 
REMARK   10  A    between atoms: CG_20  and  SD_21 
REMARK   11  A    between atoms: SD_21  and  CE_22 
REMARK   12  A    between atoms: CA_24  and  N_23 
REMARK   13  A    between atoms: C_25  and  CA_24 
REMARK   14  A    between atoms: CA_24  and  CB1_27 
REMARK   15  A    between atoms: CA_24  and  CB2_28 
REMARK       I    between atoms: N_29  and  C_25 
REMARK   16  A    between atoms: CA_30  and  N_29 
REMARK   17  A    between atoms: CA_30  and  CB_31 
REMARK   18  A    between atoms: C_43  and  CA_30 
REMARK   19  A    between atoms: CB_31  and  CG_32 
REMARK   20  A    between atoms: CZ_37  and  CH4_38 
REMARK   21  A    between atoms: CH4_38  and  P_39 
REMARK       I    between atoms: N_45  and  C_43 
REMARK   22  A    between atoms: CA_46  and  N_45 
REMARK   23  A    between atoms: C_47  and  CA_46 
REMARK   24  A    between atoms: CA_46  and  CB_49 
REMARK       I    between atoms: N_59  and  C_47 
REMARK   25  A    between atoms: CB_49  and  CG_50 
REMARK   26  A    between atoms: CA_60  and  N_59 
REMARK   27  A    between atoms: C_61  and  CA_60 
REMARK   28  A    between atoms: CA_60  and  CB_63 
REMARK       I    between atoms: N_73  and  C_61 
REMARK   29  A    between atoms: CB_63  and  CG_64 
REMARK   30  A    between atoms: CG_64  and  CD_65 
REMARK   31  A    between atoms: CA_70  and  C_71 
REMARK   32  A    between atoms: CA_70  and  N_73 
REMARK       I    between atoms: C_71  and  N_74 
REMARK   33  A    between atoms: N_74  and  CA_75 
REMARK   34  A    between atoms: CA_75  and  C_76 
REMARK   35  A    between atoms: CA_75  and  CB_78 
REMARK       I    between atoms: C_76  and  N_82 
REMARK   36  A    between atoms: CB_78  and  CG_79 
REMARK   37  A    between atoms: CG_79  and  CD1_80 
REMARK   38  A    between atoms: CG_79  and  CD2_81 
ROOT
ATOM      1  CA  PM3 d   1      18.390  21.389   6.114  0.00  0.00     0.093 C 
ATOM      2  H30 PM3 d   1      19.065  21.782   6.888  0.00  0.00     0.088 H 
ENDROOT
BRANCH   1   3
ATOM      3  N   PM3 d   1      18.037  22.469   5.203  0.00  0.00    -0.345 N 
ATOM      4  C   AIB d   1      19.025  23.236   4.675  0.00  0.00     0.246 C 
ATOM      5  O   AIB d   1      20.229  23.024   4.982  0.00  0.00    -0.271 OA
ATOM      6  H29 PM3 d   1      17.080  22.643   4.970  0.00  0.00     0.163 HD
BRANCH   4   7
ATOM      7  CA  AIB d   1      18.609  24.330   3.691  0.00  0.00     0.106 C 
BRANCH   7   8
ATOM      8  N   AIB d   1      17.609  23.756   2.778  0.00  0.00    -0.342 N 
ATOM      9  C   MET d   1      17.822  22.675   2.068  0.00  0.00     0.241 C 
ATOM     10  O   MET d   1      18.924  22.084   2.129  0.00  0.00    -0.271 OA
ATOM     11  H22 AIB d   1      16.723  24.213   2.695  0.00  0.00     0.163 HD
BRANCH   9  12
ATOM     12  CA  MET d   1      16.760  22.119   1.183  0.00  0.00     0.090 C 
ATOM     13  H14 MET d   1      16.980  21.055   1.014  0.00  0.00     0.087 H 
BRANCH  12  14
ATOM     14  N   MET d   1      15.429  22.247   1.769  0.00  0.00    -0.346 N 
ATOM     15  C   PHE d   1      15.165  21.570   2.879  0.00  0.00     0.241 C 
ATOM     16  O   PHE d   1      16.018  20.867   3.442  0.00  0.00    -0.271 OA
ATOM     17  H13 MET d   1      14.735  22.829   1.345  0.00  0.00     0.163 HD
BRANCH  15  18
ATOM     18  CA  PHE d   1      13.777  21.679   3.441  0.00  0.00     0.093 C 
ATOM     19  H5  PHE d   1      13.806  21.230   4.445  0.00  0.00     0.088 H 
BRANCH  18  20
ATOM     20  N   PHE d   1      13.281  23.053   3.613  0.00  0.00    -0.348 N 
ATOM     21  C   ACE d   1      13.962  23.929   4.363  0.00  0.00     0.214 C 
ATOM     22  O   ACE d   1      15.033  23.668   4.880  0.00  0.00    -0.274 OA
ATOM     23  H4  PHE d   1      12.431  23.334   3.168  0.00  0.00     0.163 HD
BRANCH  21  24
ATOM     24  CH3 ACE d   1      13.315  25.282   4.459  0.00  0.00    -0.003 C 
ATOM     25  H1  ACE d   1      12.359  25.271   3.914  0.00  0.00     0.040 H 
ATOM     26  H2  ACE d   1      13.980  26.039   4.017  0.00  0.00     0.040 H 
ATOM     27  H3  ACE d   1      13.132  25.527   5.516  0.00  0.00     0.040 H 
ENDBRANCH  21  24
ENDBRANCH  18  20
BRANCH  18  28
ATOM     28  CB  PHE d   1      12.790  20.831   2.573  0.00  0.00    -0.014 C 
ATOM     29  H6  PHE d   1      12.629  21.331   1.607  0.00  0.00     0.043 H 
ATOM     30  H7  PHE d   1      11.829  20.733   3.100  0.00  0.00     0.043 H 
BRANCH  28  31
ATOM     31  CG  PHE d   1      13.379  19.454   2.337  0.00  0.00    -0.056 A 
ATOM     32  CD1 PHE d   1      13.433  18.483   3.327  0.00  0.00    -0.077 A 
ATOM     33  CE1 PHE d   1      14.026  17.243   3.065  0.00  0.00    -0.082 A 
ATOM     34  H8  PHE d   1      13.014  18.686   4.306  0.00  0.00     0.084 H 
ATOM     35  CZ  PHE d   1      14.550  16.932   1.813  0.00  0.00    -0.083 A 
ATOM     36  H10 PHE d   1      14.079  16.505   3.857  0.00  0.00     0.083 H 
ATOM     37  CE2 PHE d   1      14.511  17.903   0.807  0.00  0.00    -0.082 A 
ATOM     38  H12 PHE d   1      14.980  15.956   1.621  0.00  0.00     0.083 H 
ATOM     39  CD2 PHE d   1      13.926  19.132   1.084  0.00  0.00    -0.077 A 
ATOM     40  H11 PHE d   1      14.930  17.700  -0.172  0.00  0.00     0.083 H 
ATOM     41  H9  PHE d   1      13.890  19.877   0.297  0.00  0.00     0.084 H 
ENDBRANCH  28  31
ENDBRANCH  18  28
ENDBRANCH  15  18
ENDBRANCH  12  14
BRANCH  12  42
ATOM     42  CB  MET d   1      16.702  22.834  -0.151  0.00  0.00    -0.030 C 
ATOM     43  H15 MET d   1      16.693  23.919   0.031  0.00  0.00     0.037 H 
ATOM     44  H16 MET d   1      15.776  22.541  -0.667  0.00  0.00     0.037 H 
BRANCH  42  45
ATOM     45  CG  MET d   1      17.898  22.498  -1.058  0.00  0.00    -0.021 C 
ATOM     46  H17 MET d   1      18.795  22.931  -0.592  0.00  0.00     0.049 H 
ATOM     47  H18 MET d   1      17.719  22.982  -2.030  0.00  0.00     0.049 H 
BRANCH  45  48
ATOM     48  SD  MET d   1      18.242  20.771  -1.376  0.00  0.00    -0.173 SA
BRANCH  48  49
ATOM     49  CE  MET d   1      16.827  19.895  -1.777  0.00  0.00    -0.035 C 
ATOM     50  H19 MET d   1      17.088  18.843  -1.963  0.00  0.00     0.041 H 
ATOM     51  H20 MET d   1      16.373  20.326  -2.682  0.00  0.00     0.041 H 
ATOM     52  H21 MET d   1      16.111  19.954  -0.944  0.00  0.00     0.041 H 
ENDBRANCH  48  49
ENDBRANCH  45  48
ENDBRANCH  42  45
ENDBRANCH  12  42
ENDBRANCH   9  12
ENDBRANCH   7   8
BRANCH   7  53
ATOM     53  CB1 AIB d   1      17.925  25.418   4.486  0.00  0.00    -0.045 C 
ATOM     54  H23 AIB d   1      18.646  25.872   5.182  0.00  0.00     0.031 H 
ATOM     55  H24 AIB d   1      17.088  24.986   5.054  0.00  0.00     0.031 H 
ATOM     56  H25 AIB d   1      17.543  26.189   3.800  0.00  0.00     0.031 H 
ENDBRANCH   7  53
BRANCH   7  57
ATOM     57  CB2 AIB d   1      19.825  24.881   2.922  0.00  0.00    -0.045 C 
ATOM     58  H26 AIB d   1      20.550  25.301   3.635  0.00  0.00     0.031 H 
ATOM     59  H27 AIB d   1      19.494  25.668   2.228  0.00  0.00     0.031 H 
ATOM     60  H28 AIB d   1      20.299  24.067   2.354  0.00  0.00     0.031 H 
ENDBRANCH   7  57
ENDBRANCH   4   7
ENDBRANCH   1   3
BRANCH   1  61
ATOM     61  CB  PM3 d   1      17.115  20.823   6.764  0.00  0.00    -0.014 C 
ATOM     62  H31 PM3 d   1      17.379  19.844   7.191  0.00  0.00     0.043 H 
ATOM     63  H32 PM3 d   1      16.377  20.686   5.960  0.00  0.00     0.043 H 
BRANCH  61  64
ATOM     64  CG  PM3 d   1      16.432  21.617   7.862  0.00  0.00    -0.056 A 
ATOM     65  CD1 PM3 d   1      15.116  22.072   7.656  0.00  0.00    -0.076 A 
ATOM     66  CE1 PM3 d   1      14.439  22.782   8.662  0.00  0.00    -0.076 A 
ATOM     67  H33 PM3 d   1      14.620  21.873   6.713  0.00  0.00     0.084 H 
ATOM     68  CZ  PM3 d   1      15.116  23.033   9.853  0.00  0.00    -0.045 A 
ATOM     69  H34 PM3 d   1      13.421  23.124   8.516  0.00  0.00     0.084 H 
ATOM     70  CE2 PM3 d   1      16.414  22.581  10.070  0.00  0.00    -0.076 A 
ATOM     71  CD2 PM3 d   1      17.100  21.862   9.065  0.00  0.00    -0.076 A 
ATOM     72  H36 PM3 d   1      16.902  22.782  11.017  0.00  0.00     0.084 H 
ATOM     73  H35 PM3 d   1      18.113  21.511   9.223  0.00  0.00     0.084 H 
BRANCH  68  74
ATOM     74  CH4 PM3 d   1      14.426  23.809  10.973  0.00  0.00     0.063 C 
ATOM     75  H37 PM3 d   1      14.801  23.440  11.939  0.00  0.00     0.061 H 
ATOM     76  H38 PM3 d   1      13.342  23.631  10.908  0.00  0.00     0.061 H 
BRANCH  74  77
ATOM     77  P   PM3 d   1      14.728  25.606  10.878  0.00  0.00     0.263 P 
ATOM     78  O1  PM3 d   1      16.163  25.753  11.328  0.00  0.00    -0.639 OA
ATOM     79  O2  PM3 d   1      14.469  26.071   9.465  0.00  0.00    -0.639 OA
ATOM     80  O3  PM3 d   1      13.750  26.281  11.836  0.00  0.00    -0.639 OA
ENDBRANCH  74  77
ENDBRANCH  68  74
ENDBRANCH  61  64
ENDBRANCH   1  61
BRANCH   1  81
ATOM     81  C   PM3 d   1      19.051  20.246   5.406  0.00  0.00     0.241 C 
ATOM     82  O   PM3 d   1      20.088  19.728   5.850  0.00  0.00    -0.271 OA
ATOM     83  N   TRP d   1      18.480  19.793   4.274  0.00  0.00    -0.346 N 
ATOM     84  H39 TRP d   1      17.666  20.248   3.912  0.00  0.00     0.163 HD
BRANCH  83  85
ATOM     85  CA  TRP d   1      19.041  18.641   3.570  0.00  0.00     0.093 C 
ATOM     86  H40 TRP d   1      19.014  17.775   4.248  0.00  0.00     0.088 H 
BRANCH  85  87
ATOM     87  C   TRP d   1      20.467  18.817   3.119  0.00  0.00     0.241 C 
ATOM     88  O   TRP d   1      21.279  17.899   3.301  0.00  0.00    -0.271 OA
ATOM     89  N   GLU d   1      20.740  19.975   2.526  0.00  0.00    -0.346 N 
ATOM     90  H49 GLU d   1      20.036  20.677   2.417  0.00  0.00     0.163 HD
BRANCH  89  91
ATOM     91  CA  GLU d   1      22.114  20.192   2.034  0.00  0.00     0.090 C 
ATOM     92  H50 GLU d   1      22.387  19.334   1.402  0.00  0.00     0.087 H 
BRANCH  91  93
ATOM     93  C   GLU d   1      23.129  20.316   3.145  0.00  0.00     0.241 C 
ATOM     94  O   GLU d   1      24.338  20.282   2.857  0.00  0.00    -0.271 OA
ATOM     95  N   1AC d   1      22.657  20.450   4.389  0.00  0.00    -0.341 N 
ATOM     96  H59 1AC d   1      21.668  20.493   4.529  0.00  0.00     0.163 HD
BRANCH  95  97
ATOM     97  CA  1AC d   1      23.540  20.536   5.553  0.00  0.00     0.114 A 
ATOM     98  CB  1AC d   1      24.491  21.735   5.662  0.00  0.00    -0.030 A 
ATOM     99  CG  1AC d   1      23.293  21.643   6.580  0.00  0.00    -0.030 A 
ATOM    100  H55 1AC d   1      25.505  21.597   6.066  0.00  0.00     0.037 H 
ATOM    101  H56 1AC d   1      24.515  22.492   4.864  0.00  0.00     0.037 H 
ATOM    102  H57 1AC d   1      22.447  22.334   6.449  0.00  0.00     0.037 H 
ATOM    103  H58 1AC d   1      23.437  21.439   7.651  0.00  0.00     0.037 H 
BRANCH  97 104
ATOM    104  C   1AC d   1      23.946  19.210   6.087  0.00  0.00     0.246 C 
ATOM    105  O   1AC d   1      24.766  19.133   7.035  0.00  0.00    -0.271 OA
ATOM    106  N   LEU d   1      23.468  18.100   5.554  0.00  0.00    -0.346 N 
ATOM    107  H60 LEU d   1      22.823  18.162   4.792  0.00  0.00     0.163 HD
BRANCH 106 108
ATOM    108  CA  LEU d   1      23.863  16.778   6.055  0.00  0.00     0.089 C 
ATOM    109  H61 LEU d   1      23.691  16.750   7.141  0.00  0.00     0.087 H 
BRANCH 108 110
ATOM    110  C   LEU d   1      25.329  16.516   5.794  0.00  0.00     0.238 C 
ATOM    111  O   LEU d   1      25.870  16.862   4.750  0.00  0.00    -0.271 OA
ATOM    112  N   NH2 d   1      26.027  15.913   6.745  0.00  0.00    -0.368 N 
ATOM    113  H71 NH2 d   1      26.999  15.723   6.608  0.00  0.00     0.159 HD
ATOM    114  H72 NH2 d   1      25.582  15.648   7.600  0.00  0.00     0.159 HD
ENDBRANCH 108 110
BRANCH 108 115
ATOM    115  CB  LEU d   1      22.998  15.674   5.384  0.00  0.00    -0.035 C 
ATOM    116  H62 LEU d   1      23.477  14.699   5.558  0.00  0.00     0.037 H 
ATOM    117  H63 LEU d   1      22.953  15.872   4.303  0.00  0.00     0.037 H 
BRANCH 115 118
ATOM    118  CG  LEU d   1      21.566  15.621   5.932  0.00  0.00    -0.059 C 
ATOM    119  H64 LEU d   1      21.151  16.639   5.950  0.00  0.00     0.038 H 
BRANCH 118 120
ATOM    120  CD1 LEU d   1      20.694  14.731   5.033  0.00  0.00    -0.073 C 
ATOM    121  H65 LEU d   1      19.670  14.698   5.432  0.00  0.00     0.028 H 
ATOM    122  H66 LEU d   1      21.111  13.713   5.009  0.00  0.00     0.028 H 
ATOM    123  H67 LEU d   1      20.677  15.144   4.014  0.00  0.00     0.028 H 
ENDBRANCH 118 120
BRANCH 118 124
ATOM    124  CD2 LEU d   1      21.559  15.046   7.355  0.00  0.00    -0.073 C 
ATOM    125  H68 LEU d   1      22.181  15.676   8.008  0.00  0.00     0.028 H 
ATOM    126  H69 LEU d   1      21.963  14.023   7.339  0.00  0.00     0.028 H 
ATOM    127  H70 LEU d   1      20.528  15.027   7.738  0.00  0.00     0.028 H 
ENDBRANCH 118 124
ENDBRANCH 115 118
ENDBRANCH 108 115
ENDBRANCH 106 108
ENDBRANCH  97 104
ENDBRANCH  95  97
ENDBRANCH  91  93
BRANCH  91 128
ATOM    128  CB  GLU d   1      22.197  21.479   1.199  0.00  0.00    -0.029 C 
ATOM    129  H51 GLU d   1      23.261  21.611   0.951  0.00  0.00     0.037 H 
ATOM    130  H52 GLU d   1      21.872  22.293   1.864  0.00  0.00     0.037 H 
BRANCH 128 131
ATOM    131  CG  GLU d   1      21.428  21.676  -0.117  0.00  0.00     0.018 C 
ATOM    132  H53 GLU d   1      20.359  21.479   0.053  0.00  0.00     0.049 H 
ATOM    133  H54 GLU d   1      21.814  20.976  -0.873  0.00  0.00     0.049 H 
BRANCH 131 134
ATOM    134  CD  GLU d   1      21.608  23.135  -0.627  0.00  0.00     0.172 C 
ATOM    135  OE1 GLU d   1      22.079  24.048   0.104  0.00  0.00    -0.648 OA
ATOM    136  OE2 GLU d   1      21.258  23.430  -1.790  0.00  0.00    -0.648 OA
ENDBRANCH 131 134
ENDBRANCH 128 131
ENDBRANCH  91 128
ENDBRANCH  89  91
ENDBRANCH  85  87
BRANCH  85 137
ATOM    137  CB  TRP d   1      18.093  18.363   2.345  0.00  0.00    -0.012 C 
ATOM    138  H41 TRP d   1      18.167  19.186   1.619  0.00  0.00     0.044 H 
ATOM    139  H42 TRP d   1      17.053  18.270   2.690  0.00  0.00     0.044 H 
BRANCH 137 140
ATOM    140  CG  TRP d   1      18.533  17.088   1.712  0.00  0.00    -0.028 A 
ATOM    141  CD1 TRP d   1      19.395  16.960   0.624  0.00  0.00    -0.015 A 
ATOM    142  NE1 TRP d   1      19.615  15.633   0.343  0.00  0.00    -0.365 N 
ATOM    143  H43 TRP d   1      19.832  17.793   0.075  0.00  0.00     0.112 H 
ATOM    144  CE2 TRP d   1      18.916  14.883   1.232  0.00  0.00     0.042 A 
ATOM    145  H44 TRP d   1      20.210  15.269  -0.415  0.00  0.00     0.165 HD
ATOM    146  CD2 TRP d   1      18.212  15.719   2.117  0.00  0.00    -0.002 A 
ATOM    147  CZ2 TRP d   1      18.791  13.512   1.359  0.00  0.00    -0.056 A 
ATOM    148  CE3 TRP d   1      17.404  15.216   3.148  0.00  0.00    -0.070 A 
ATOM    149  CZ3 TRP d   1      17.286  13.834   3.245  0.00  0.00    -0.082 A 
ATOM    150  H45 TRP d   1      16.893  15.877   3.839  0.00  0.00     0.084 H 
ATOM    151  CH2 TRP d   1      17.978  13.006   2.376  0.00  0.00    -0.081 A 
ATOM    152  H47 TRP d   1      16.648  13.401   4.006  0.00  0.00     0.083 H 
ATOM    153  H48 TRP d   1      17.886  11.932   2.489  0.00  0.00     0.083 H 
ATOM    154  H46 TRP d   1      19.313  12.844   0.684  0.00  0.00     0.086 H 
ENDBRANCH 137 140
ENDBRANCH  85 137
ENDBRANCH  83  85
ENDBRANCH   1  81
TORSDOF 38
