REMARK WARNING: 32 MAX_TORS EXCEEDED!!!
REMARK  38 active torsions:
REMARK  status: ('A' for Active; 'I' for Inactive)
REMARK    1  A    between atoms: C_1  and  CH3_3 
REMARK       I    between atoms: N_4  and  C_1 
REMARK    2  A    between atoms: CA_5  and  N_4 
REMARK    3  A    between atoms: C_6  and  CA_5 
REMARK    4  A    between atoms: CA_5  and  CB_8 
REMARK       I    between atoms: N_15  and  C_6 
REMARK    5  A    between atoms: CB_8  and  CG_9 
REMARK    6  A    between atoms: CA_16  and  N_15 
REMARK    7  A    between atoms: C_17  and  CA_16 
REMARK    8  A    between atoms: CA_16  and  CB_19 
REMARK       I    between atoms: N_23  and  C_17 
REMARK    9  A    between atoms: CB_19  and  CG_20 
REMARK   10  A    between atoms: CG_20  and  SD_21 
REMARK   11  A    between atoms: SD_21  and  CE_22 
REMARK   12  A    between atoms: CA_24  and  N_23 
REMARK   13  A    between atoms: C_25  and  CA_24 
REMARK   14  A    between atoms: CA_24  and  CB1_27 
REMARK   15  A    between atoms: CA_24  and  CB2_28 
REMARK       I    between atoms: N_29  and  C_25 
REMARK   16  A    between atoms: CA_30  and  N_29 
REMARK   17  A    between atoms: CA_30  and  CB_31 
REMARK   18  A    between atoms: C_43  and  CA_30 
REMARK   19  A    between atoms: CB_31  and  CG_32 
REMARK   20  A    between atoms: CZ_37  and  CH4_38 
REMARK   21  A    between atoms: CH4_38  and  P_39 
REMARK       I    between atoms: N_45  and  C_43 
REMARK   22  A    between atoms: CA_46  and  N_45 
REMARK   23  A    between atoms: CA_46  and  CB_47 
REMARK   24  A    between atoms: C_58  and  CA_46 
REMARK   25  A    between atoms: CB_47  and  CG_48 
REMARK       I    between atoms: N_60  and  C_58 
REMARK   26  A    between atoms: CA_61  and  N_60 
REMARK   27  A    between atoms: C_62  and  CA_61 
REMARK   28  A    between atoms: CA_61  and  CB_64 
REMARK       I    between atoms: N_74  and  C_62 
REMARK   29  A    between atoms: CB_64  and  CG_65 
REMARK   30  A    between atoms: CG_65  and  CD_66 
REMARK   31  A    between atoms: CA_71  and  C_72 
REMARK   32  A    between atoms: CA_71  and  N_74 
REMARK       I    between atoms: C_72  and  N_75 
REMARK   33  A    between atoms: N_75  and  CA_76 
REMARK   34  A    between atoms: CA_76  and  C_77 
REMARK   35  A    between atoms: CA_76  and  CB_79 
REMARK       I    between atoms: C_77  and  N_83 
REMARK   36  A    between atoms: CB_79  and  CG_80 
REMARK   37  A    between atoms: CG_80  and  CD1_81 
REMARK   38  A    between atoms: CG_80  and  CD2_82 
ROOT
ATOM      1  CA  PM3 d   1      17.131  21.586   6.677  0.00  0.00     0.093 C 
ATOM      2  H30 PM3 d   1      17.795  21.861   7.510  0.00  0.00     0.088 H 
ENDROOT
BRANCH   1   3
ATOM      3  N   PM3 d   1      16.849  22.777   5.919  0.00  0.00    -0.345 N 
ATOM      4  C   AIB d   1      17.857  23.563   5.478  0.00  0.00     0.246 C 
ATOM      5  O   AIB d   1      19.024  23.275   5.748  0.00  0.00    -0.271 OA
ATOM      6  H29 PM3 d   1      15.901  23.025   5.717  0.00  0.00     0.163 HD
BRANCH   4   7
ATOM      7  CA  AIB d   1      17.515  24.805   4.679  0.00  0.00     0.106 C 
BRANCH   7   8
ATOM      8  N   AIB d   1      16.502  24.426   3.691  0.00  0.00    -0.342 N 
ATOM      9  C   MET d   1      16.690  23.435   2.811  0.00  0.00     0.241 C 
ATOM     10  O   MET d   1      17.720  22.752   2.767  0.00  0.00    -0.271 OA
ATOM     11  H22 AIB d   1      15.637  24.927   3.673  0.00  0.00     0.163 HD
BRANCH   9  12
ATOM     12  CA  MET d   1      15.596  23.108   1.837  0.00  0.00     0.090 C 
ATOM     13  H14 MET d   1      15.800  22.121   1.397  0.00  0.00     0.087 H 
BRANCH  12  14
ATOM     14  N   MET d   1      14.258  23.106   2.440  0.00  0.00    -0.346 N 
ATOM     15  C   PHE d   1      14.002  22.259   3.434  0.00  0.00     0.241 C 
ATOM     16  O   PHE d   1      14.843  21.485   3.907  0.00  0.00    -0.271 OA
ATOM     17  H13 MET d   1      13.550  23.731   2.110  0.00  0.00     0.163 HD
BRANCH  15  18
ATOM     18  CA  PHE d   1      12.593  22.224   3.977  0.00  0.00     0.093 C 
ATOM     19  H5  PHE d   1      12.624  21.642   4.910  0.00  0.00     0.088 H 
BRANCH  18  20
ATOM     20  N   PHE d   1      12.073  23.549   4.321  0.00  0.00    -0.348 N 
ATOM     21  C   ACE d   1      12.741  24.373   5.155  0.00  0.00     0.214 C 
ATOM     22  O   ACE d   1      13.822  24.117   5.665  0.00  0.00    -0.274 OA
ATOM     23  H4  PHE d   1      11.204  23.850   3.929  0.00  0.00     0.163 HD
BRANCH  21  24
ATOM     24  CH3 ACE d   1      12.072  25.692   5.476  0.00  0.00    -0.003 C 
ATOM     25  H1  ACE d   1      11.115  25.759   4.937  0.00  0.00     0.040 H 
ATOM     26  H2  ACE d   1      12.726  26.520   5.166  0.00  0.00     0.040 H 
ATOM     27  H3  ACE d   1      11.888  25.756   6.559  0.00  0.00     0.040 H 
ENDBRANCH  21  24
ENDBRANCH  18  20
BRANCH  18  28
ATOM     28  CB  PHE d   1      11.638  21.480   2.998  0.00  0.00    -0.014 C 
ATOM     29  H6  PHE d   1      11.460  22.109   2.113  0.00  0.00     0.043 H 
ATOM     30  H7  PHE d   1      10.682  21.279   3.503  0.00  0.00     0.043 H 
BRANCH  28  31
ATOM     31  CG  PHE d   1      12.271  20.152   2.559  0.00  0.00    -0.056 A 
ATOM     32  CD1 PHE d   1      12.251  19.060   3.426  0.00  0.00    -0.077 A 
ATOM     33  CE1 PHE d   1      12.824  17.841   3.054  0.00  0.00    -0.082 A 
ATOM     34  H8  PHE d   1      11.786  19.158   4.400  0.00  0.00     0.084 H 
ATOM     35  CZ  PHE d   1      13.460  17.689   1.808  0.00  0.00    -0.083 A 
ATOM     36  H10 PHE d   1      12.778  17.000   3.736  0.00  0.00     0.083 H 
ATOM     37  CE2 PHE d   1      13.478  18.786   0.949  0.00  0.00    -0.082 A 
ATOM     38  H12 PHE d   1      13.921  16.749   1.526  0.00  0.00     0.083 H 
ATOM     39  CD2 PHE d   1      12.892  20.009   1.314  0.00  0.00    -0.077 A 
ATOM     40  H11 PHE d   1      13.954  18.694  -0.021  0.00  0.00     0.083 H 
ATOM     41  H9  PHE d   1      12.921  20.847   0.627  0.00  0.00     0.084 H 
ENDBRANCH  28  31
ENDBRANCH  18  28
ENDBRANCH  15  18
ENDBRANCH  12  14
BRANCH  12  42
ATOM     42  CB  MET d   1      15.550  24.183   0.736  0.00  0.00    -0.030 C 
ATOM     43  H15 MET d   1      15.884  25.139   1.166  0.00  0.00     0.037 H 
ATOM     44  H16 MET d   1      14.512  24.281   0.387  0.00  0.00     0.037 H 
BRANCH  42  45
ATOM     45  CG  MET d   1      16.450  23.850  -0.482  0.00  0.00    -0.021 C 
ATOM     46  H17 MET d   1      16.860  22.835  -0.374  0.00  0.00     0.049 H 
ATOM     47  H18 MET d   1      17.275  24.575  -0.543  0.00  0.00     0.049 H 
BRANCH  45  48
ATOM     48  SD  MET d   1      15.434  23.946  -1.991  0.00  0.00    -0.173 SA
BRANCH  48  49
ATOM     49  CE  MET d   1      14.914  25.695  -1.965  0.00  0.00    -0.035 C 
ATOM     50  H19 MET d   1      14.279  25.902  -2.839  0.00  0.00     0.041 H 
ATOM     51  H20 MET d   1      15.803  26.342  -1.996  0.00  0.00     0.041 H 
ATOM     52  H21 MET d   1      14.347  25.895  -1.044  0.00  0.00     0.041 H 
ENDBRANCH  48  49
ENDBRANCH  45  48
ENDBRANCH  42  45
ENDBRANCH  12  42
ENDBRANCH   9  12
ENDBRANCH   7   8
BRANCH   7  53
ATOM     53  CB1 AIB d   1      16.859  25.802   5.656  0.00  0.00    -0.045 C 
ATOM     54  H23 AIB d   1      17.594  26.109   6.415  0.00  0.00     0.031 H 
ATOM     55  H24 AIB d   1      16.002  25.321   6.150  0.00  0.00     0.031 H 
ATOM     56  H25 AIB d   1      16.514  26.686   5.101  0.00  0.00     0.031 H 
ENDBRANCH   7  53
BRANCH   7  57
ATOM     57  CB2 AIB d   1      18.776  25.392   3.956  0.00  0.00    -0.045 C 
ATOM     58  H26 AIB d   1      19.530  25.674   4.705  0.00  0.00     0.031 H 
ATOM     59  H27 AIB d   1      18.486  26.281   3.376  0.00  0.00     0.031 H 
ATOM     60  H28 AIB d   1      19.197  24.634   3.279  0.00  0.00     0.031 H 
ENDBRANCH   7  57
ENDBRANCH   4   7
ENDBRANCH   1   3
BRANCH   1  61
ATOM     61  CB  PM3 d   1      15.829  20.966   7.252  0.00  0.00    -0.014 C 
ATOM     62  H31 PM3 d   1      16.058  19.943   7.586  0.00  0.00     0.043 H 
ATOM     63  H32 PM3 d   1      15.084  20.929   6.444  0.00  0.00     0.043 H 
BRANCH  61  64
ATOM     64  CG  PM3 d   1      15.216  21.715   8.421  0.00  0.00    -0.056 A 
ATOM     65  CD1 PM3 d   1      13.945  22.272   8.230  0.00  0.00    -0.076 A 
ATOM     66  CE1 PM3 d   1      13.310  22.953   9.287  0.00  0.00    -0.076 A 
ATOM     67  H33 PM3 d   1      13.451  22.179   7.270  0.00  0.00     0.084 H 
ATOM     68  CZ  PM3 d   1      13.957  23.040  10.526  0.00  0.00    -0.045 A 
ATOM     69  H34 PM3 d   1      12.335  23.403   9.143  0.00  0.00     0.084 H 
ATOM     70  CE2 PM3 d   1      15.210  22.436  10.733  0.00  0.00    -0.076 A 
ATOM     71  CD2 PM3 d   1      15.854  21.769   9.667  0.00  0.00    -0.076 A 
ATOM     72  H36 PM3 d   1      15.681  22.482  11.708  0.00  0.00     0.084 H 
ATOM     73  H35 PM3 d   1      16.824  21.307   9.811  0.00  0.00     0.084 H 
BRANCH  68  74
ATOM     74  CH4 PM3 d   1      13.256  23.749  11.704  0.00  0.00     0.063 C 
ATOM     75  H37 PM3 d   1      13.537  23.249  12.643  0.00  0.00     0.061 H 
ATOM     76  H38 PM3 d   1      12.167  23.684  11.566  0.00  0.00     0.061 H 
BRANCH  74  77
ATOM     77  P   PM3 d   1      13.733  25.473  11.794  0.00  0.00     0.263 P 
ATOM     78  O1  PM3 d   1      15.190  25.678  12.013  0.00  0.00    -0.639 OA
ATOM     79  O2  PM3 d   1      13.131  26.112  10.457  0.00  0.00    -0.639 OA
ATOM     80  O3  PM3 d   1      12.822  26.061  12.986  0.00  0.00    -0.639 OA
ENDBRANCH  74  77
ENDBRANCH  68  74
ENDBRANCH  61  64
ENDBRANCH   1  61
BRANCH   1  81
ATOM     81  C   PM3 d   1      17.815  20.517   5.840  0.00  0.00     0.241 C 
ATOM     82  O   PM3 d   1      18.801  19.917   6.270  0.00  0.00    -0.271 OA
ATOM     83  N   6CW d   1      17.306  20.250   4.616  0.00  0.00    -0.346 N 
ATOM     84  H39 6CW d   1      16.535  20.786   4.272  0.00  0.00     0.163 HD
BRANCH  83  85
ATOM     85  CA  6CW d   1      17.874  19.184   3.792  0.00  0.00     0.093 C 
ATOM     86  H40 6CW d   1      17.791  18.244   4.356  0.00  0.00     0.088 H 
BRANCH  85  87
ATOM     87  CB  6CW d   1      17.042  19.040   2.470  0.00  0.00    -0.012 C 
ATOM     88  H41 6CW d   1      17.206  19.927   1.841  0.00  0.00     0.044 H 
ATOM     89  H42 6CW d   1      15.974  18.961   2.721  0.00  0.00     0.044 H 
BRANCH  87  90
ATOM     90  CG  6CW d   1      17.459  17.825   1.720  0.00  0.00    -0.028 A 
ATOM     91  CD2 6CW d   1      17.032  16.457   2.067  0.00  0.00    -0.002 A 
ATOM     92  CE3 6CW d   1      16.204  15.909   3.035  0.00  0.00    -0.069 A 
ATOM     93  CE2 6CW d   1      17.715  15.649   1.143  0.00  0.00     0.044 A 
ATOM     94  CZ3 6CW d   1      15.989  14.557   3.082  0.00  0.00    -0.061 A 
ATOM     95  H43 6CW d   1      15.723  16.556   3.760  0.00  0.00     0.085 H 
ATOM     96  CH2 6CW d   1      16.683  13.761   2.158  0.00  0.00     0.036 A 
ATOM     97  H47 6CW d   1      15.310  14.119   3.804  0.00  0.00     0.086 H 
ATOM     98  CZ2 6CW d   1      17.541  14.266   1.187  0.00  0.00    -0.035 A 
ATOM     99 CLL  6CW d   1      16.428  12.061   2.209  0.00  0.00    -0.084 Cl
ATOM    100  H46 6CW d   1      18.054  13.611   0.492  0.00  0.00     0.089 H 
ATOM    101  NE1 6CW d   1      18.461  16.447   0.333  0.00  0.00    -0.365 N 
ATOM    102  CD1 6CW d   1      18.328  17.726   0.682  0.00  0.00    -0.015 A 
ATOM    103  H44 6CW d   1      19.048  16.109  -0.443  0.00  0.00     0.165 HD
ATOM    104  H45 6CW d   1      18.838  18.563   0.207  0.00  0.00     0.112 H 
ENDBRANCH  87  90
ENDBRANCH  85  87
BRANCH  85 105
ATOM    105  C   6CW d   1      19.350  19.399   3.469  0.00  0.00     0.241 C 
ATOM    106  O   6CW d   1      20.145  18.443   3.519  0.00  0.00    -0.271 OA
ATOM    107  N   GLU d   1      19.700  20.639   3.159  0.00  0.00    -0.346 N 
ATOM    108  H48 GLU d   1      19.006  21.359   3.158  0.00  0.00     0.163 HD
BRANCH 107 109
ATOM    109  CA  GLU d   1      21.090  20.975   2.817  0.00  0.00     0.090 C 
ATOM    110  H49 GLU d   1      21.418  20.339   1.982  0.00  0.00     0.087 H 
BRANCH 109 111
ATOM    111  C   GLU d   1      21.996  20.729   4.008  0.00  0.00     0.241 C 
ATOM    112  O   GLU d   1      23.204  20.580   3.780  0.00  0.00    -0.271 OA
ATOM    113  N   1AC d   1      21.476  20.683   5.241  0.00  0.00    -0.341 N 
ATOM    114  H58 1AC d   1      20.487  20.802   5.333  0.00  0.00     0.163 HD
BRANCH 113 115
ATOM    115  CA  1AC d   1      22.249  20.472   6.460  0.00  0.00     0.114 A 
ATOM    116  CB  1AC d   1      23.293  21.545   6.834  0.00  0.00    -0.030 A 
ATOM    117  CG  1AC d   1      21.971  21.456   7.613  0.00  0.00    -0.030 A 
ATOM    118  H54 1AC d   1      24.236  21.250   7.316  0.00  0.00     0.037 H 
ATOM    119  H55 1AC d   1      23.477  22.393   6.158  0.00  0.00     0.037 H 
ATOM    120  H56 1AC d   1      21.209  22.241   7.494  0.00  0.00     0.037 H 
ATOM    121  H57 1AC d   1      21.969  21.098   8.653  0.00  0.00     0.037 H 
BRANCH 115 122
ATOM    122  C   1AC d   1      22.518  19.046   6.764  0.00  0.00     0.246 C 
ATOM    123  O   1AC d   1      23.207  18.730   7.745  0.00  0.00    -0.271 OA
ATOM    124  N   LEU d   1      22.029  18.074   6.026  0.00  0.00    -0.346 N 
ATOM    125  H59 LEU d   1      21.485  18.307   5.220  0.00  0.00     0.163 HD
BRANCH 124 126
ATOM    126  CA  LEU d   1      22.252  16.670   6.342  0.00  0.00     0.089 C 
ATOM    127  H60 LEU d   1      21.866  16.481   7.354  0.00  0.00     0.087 H 
BRANCH 126 128
ATOM    128  C   LEU d   1      23.725  16.305   6.321  0.00  0.00     0.238 C 
ATOM    129  O   LEU d   1      24.443  16.620   5.369  0.00  0.00    -0.271 OA
ATOM    130  N   NH2 d   1      24.186  15.585   7.365  0.00  0.00    -0.368 N 
ATOM    131  H70 NH2 d   1      25.149  15.317   7.402  0.00  0.00     0.159 HD
ATOM    132  H71 NH2 d   1      23.565  15.319   8.102  0.00  0.00     0.159 HD
ENDBRANCH 126 128
BRANCH 126 133
ATOM    133  CB  LEU d   1      21.471  15.764   5.331  0.00  0.00    -0.035 C 
ATOM    134  H61 LEU d   1      22.022  14.822   5.193  0.00  0.00     0.037 H 
ATOM    135  H62 LEU d   1      21.392  16.287   4.367  0.00  0.00     0.037 H 
BRANCH 133 136
ATOM    136  CG  LEU d   1      20.049  15.446   5.851  0.00  0.00    -0.059 C 
ATOM    137  H63 LEU d   1      19.599  16.370   6.242  0.00  0.00     0.038 H 
BRANCH 136 138
ATOM    138  CD1 LEU d   1      19.188  14.911   4.674  0.00  0.00    -0.073 C 
ATOM    139  H64 LEU d   1      18.175  14.682   5.035  0.00  0.00     0.028 H 
ATOM    140  H65 LEU d   1      19.648  13.997   4.269  0.00  0.00     0.028 H 
ATOM    141  H66 LEU d   1      19.132  15.674   3.884  0.00  0.00     0.028 H 
ENDBRANCH 136 138
BRANCH 136 142
ATOM    142  CD2 LEU d   1      20.074  14.392   6.972  0.00  0.00    -0.073 C 
ATOM    143  H67 LEU d   1      20.682  14.763   7.810  0.00  0.00     0.028 H 
ATOM    144  H68 LEU d   1      20.510  13.458   6.588  0.00  0.00     0.028 H 
ATOM    145  H69 LEU d   1      19.048  14.202   7.319  0.00  0.00     0.028 H 
ENDBRANCH 136 142
ENDBRANCH 133 136
ENDBRANCH 126 133
ENDBRANCH 124 126
ENDBRANCH 115 122
ENDBRANCH 113 115
ENDBRANCH 109 111
BRANCH 109 146
ATOM    146  CB  GLU d   1      21.172  22.447   2.388  0.00  0.00    -0.029 C 
ATOM    147  H50 GLU d   1      22.230  22.746   2.360  0.00  0.00     0.037 H 
ATOM    148  H51 GLU d   1      20.637  23.059   3.129  0.00  0.00     0.037 H 
BRANCH 146 149
ATOM    149  CG  GLU d   1      20.548  22.703   0.992  0.00  0.00     0.018 C 
ATOM    150  H52 GLU d   1      19.476  22.459   1.030  0.00  0.00     0.049 H 
ATOM    151  H53 GLU d   1      21.046  22.056   0.254  0.00  0.00     0.049 H 
BRANCH 149 152
ATOM    152  CD  GLU d   1      20.709  24.147   0.568  0.00  0.00     0.172 C 
ATOM    153  OE1 GLU d   1      21.153  25.046   1.285  0.00  0.00    -0.648 OA
ATOM    154  OE2 GLU d   1      20.333  24.418  -0.673  0.00  0.00    -0.648 OA
ENDBRANCH 149 152
ENDBRANCH 146 149
ENDBRANCH 109 146
ENDBRANCH 107 109
ENDBRANCH  85 105
ENDBRANCH  83  85
ENDBRANCH   1  81
TORSDOF 38
