REMARK  14 active torsions:
REMARK  status: ('A' for Active; 'I' for Inactive)
REMARK    1  A    between atoms: NBG_2  and  CAC_3 
REMARK    2  A    between atoms: NBG_2  and  CAD_4 
REMARK    3  A    between atoms: CBE_8  and  OAG_9 
REMARK    4  A    between atoms: CBE_8  and  CBD_10 
REMARK    5  A    between atoms: CBC_15  and  CBB_16 
REMARK    6  A    between atoms: CBA_21  and  CAZ_22 
REMARK    7  A    between atoms: CAZ_22  and  CAV_24 
REMARK    8  A    between atoms: CAV_24  and  NBF_25 
REMARK    9  A    between atoms: NBF_25  and  CAA_26 
REMARK   10  A    between atoms: NBF_25  and  CAB_27 
REMARK   11  A    between atoms: NBF_25  and  CAU_28 
REMARK   12  A    between atoms: CAU_28  and  CAS_29 
REMARK   13  A    between atoms: CAS_29  and  OAY_30 
REMARK   14  A    between atoms: OAY_30  and  PBH_31 
ROOT
ATOM      1  CBB HC7 d   1      22.612  59.300   2.494  0.00  0.00    -0.026 A 
ATOM      2  CAM HC7 d   1      22.605  58.025   3.056  0.00  0.00    -0.071 A 
ATOM      3  CAK HC7 d   1      21.638  57.635   4.003  0.00  0.00    -0.069 A 
ATOM      4  CAL HC7 d   1      21.611  60.174   2.892  0.00  0.00    -0.071 A 
ATOM      5  CAJ HC7 d   1      20.641  59.782   3.806  0.00  0.00    -0.069 A 
ATOM      6  CBA HC7 d   1      20.641  58.516   4.376  0.00  0.00     0.011 A 
ATOM      7  H   HC7 d   1      23.369  57.309   2.754  0.00  0.00     0.084 H 
ATOM      8  H   HC7 d   1      21.676  56.638   4.442  0.00  0.00     0.085 H 
ATOM      9  H   HC7 d   1      21.585  61.183   2.482  0.00  0.00     0.084 H 
ATOM     10  H   HC7 d   1      19.858  60.488   4.083  0.00  0.00     0.085 H 
ENDROOT
BRANCH   1  11
ATOM     11  CBC HC7 d   1      23.571  59.722   1.537  0.00  0.00    -0.026 A 
ATOM     12  CAO HC7 d   1      24.063  58.837   0.576  0.00  0.00    -0.071 A 
ATOM     13  CAQ HC7 d   1      24.995  59.271  -0.385  0.00  0.00    -0.071 A 
ATOM     14  H   HC7 d   1      23.723  57.801   0.570  0.00  0.00     0.084 H 
ATOM     15  CBD HC7 d   1      25.433  60.590  -0.385  0.00  0.00     0.005 A 
ATOM     16  H   HC7 d   1      25.374  58.572  -1.130  0.00  0.00     0.084 H 
ATOM     17  CAP HC7 d   1      24.939  61.479   0.558  0.00  0.00    -0.071 A 
ATOM     18  CAN HC7 d   1      24.011  61.045   1.507  0.00  0.00    -0.071 A 
ATOM     19  H   HC7 d   1      25.275  62.516   0.558  0.00  0.00     0.084 H 
ATOM     20  H   HC7 d   1      23.623  61.754   2.238  0.00  0.00     0.084 H 
BRANCH  15  21
ATOM     21  CBE HC7 d   1      26.451  61.084  -1.417  0.00  0.00     0.215 C 
ATOM     22  CAW HC7 d   1      25.766  61.114  -2.783  0.00  0.00     0.140 C 
ATOM     23  NBG HC7 d   1      26.697  61.585  -3.819  0.00  0.00    -0.067 N 
ATOM     24  H   HC7 d   1      25.438  60.106  -3.035  0.00  0.00     0.085 H 
ATOM     25  H   HC7 d   1      24.916  61.794  -2.737  0.00  0.00     0.085 H 
ATOM     26  CAT HC7 d   1      27.284  62.877  -3.440  0.00  0.00     0.104 C 
ATOM     27  CAR HC7 d   1      27.898  62.797  -2.039  0.00  0.00     0.046 C 
ATOM     28  H   HC7 d   1      26.501  63.636  -3.441  0.00  0.00     0.079 H 
ATOM     29  H   HC7 d   1      28.066  63.134  -4.155  0.00  0.00     0.079 H 
ATOM     30  OAX HC7 d   1      26.903  62.408  -1.086  0.00  0.00    -0.348 OA
ATOM     31  H   HC7 d   1      28.292  63.776  -1.765  0.00  0.00     0.077 H 
ATOM     32  H   HC7 d   1      28.699  62.057  -2.042  0.00  0.00     0.077 H 
BRANCH  23  33
ATOM     33  CAC HC7 d   1      27.775  60.593  -4.007  0.00  0.00     0.068 C 
ATOM     34  H   HC7 d   1      28.447  60.934  -4.795  0.00  0.00     0.068 H 
ATOM     35  H   HC7 d   1      28.331  60.482  -3.076  0.00  0.00     0.068 H 
ATOM     36  H   HC7 d   1      27.340  59.634  -4.288  0.00  0.00     0.068 H 
ENDBRANCH  23  33
BRANCH  23  37
ATOM     37  CAD HC7 d   1      25.936  61.760  -5.063  0.00  0.00     0.068 C 
ATOM     38  H   HC7 d   1      25.146  62.494  -4.904  0.00  0.00     0.068 H 
ATOM     39  H   HC7 d   1      26.604  62.109  -5.850  0.00  0.00     0.068 H 
ATOM     40  H   HC7 d   1      25.495  60.807  -5.355  0.00  0.00     0.068 H 
ENDBRANCH  23  37
BRANCH  21  41
ATOM     41  OAG HC7 d   1      27.565  60.194  -1.440  0.00  0.00    -0.360 OA
ATOM     42  H   HC7 d   1      28.197  60.491  -2.099  0.00  0.00     0.213 HD
ENDBRANCH  21  41
ENDBRANCH  15  21
ENDBRANCH   1  11
BRANCH   6  43
ATOM     43  CAZ HC7 d   1      19.569  58.123   5.396  0.00  0.00     0.185 C 
ATOM     44  OAE HC7 d   1      18.624  58.888   5.616  0.00  0.00    -0.290 OA
BRANCH  43  45
ATOM     45  CAV HC7 d   1      19.705  56.804   6.167  0.00  0.00     0.143 C 
ATOM     46  H   HC7 d   1      20.754  56.694   6.442  0.00  0.00     0.088 H 
ATOM     47  H   HC7 d   1      19.336  56.008   5.520  0.00  0.00     0.088 H 
BRANCH  45  48
ATOM     48  NBF HC7 d   1      18.907  56.761   7.426  0.00  0.00    -0.066 N 
BRANCH  48  49
ATOM     49  CAA HC7 d   1      19.235  55.480   8.067  0.00  0.00     0.068 C 
ATOM     50  H   HC7 d   1      18.965  54.662   7.400  0.00  0.00     0.068 H 
ATOM     51  H   HC7 d   1      20.304  55.443   8.275  0.00  0.00     0.068 H 
ATOM     52  H   HC7 d   1      18.678  55.389   9.000  0.00  0.00     0.068 H 
ENDBRANCH  48  49
BRANCH  48  53
ATOM     53  CAB HC7 d   1      17.455  56.779   7.145  0.00  0.00     0.068 C 
ATOM     54  H   HC7 d   1      17.202  57.691   6.605  0.00  0.00     0.068 H 
ATOM     55  H   HC7 d   1      17.193  55.912   6.539  0.00  0.00     0.068 H 
ATOM     56  H   HC7 d   1      16.904  56.747   8.085  0.00  0.00     0.068 H 
ENDBRANCH  48  53
BRANCH  48  57
ATOM     57  CAU HC7 d   1      19.210  57.882   8.341  0.00  0.00     0.105 C 
ATOM     58  H   HC7 d   1      18.452  57.857   9.124  0.00  0.00     0.079 H 
ATOM     59  H   HC7 d   1      19.225  58.785   7.731  0.00  0.00     0.079 H 
BRANCH  57  60
ATOM     60  CAS HC7 d   1      20.563  57.809   9.043  0.00  0.00     0.055 C 
ATOM     61  H   HC7 d   1      20.613  56.891   9.628  0.00  0.00     0.077 H 
ATOM     62  H   HC7 d   1      20.675  58.676   9.694  0.00  0.00     0.077 H 
BRANCH  60  63
ATOM     63  OAY HC7 d   1      21.579  57.808   8.116  0.00  0.00    -0.281 OA
BRANCH  63  64
ATOM     64  PBH HC7 d   1      23.040  57.314   8.523  0.00  0.00     0.422 P 
ATOM     65  OAH HC7 d   1      23.539  58.255   9.670  0.00  0.00    -0.617 OA
ATOM     66  OAI HC7 d   1      23.822  57.584   7.222  0.00  0.00    -0.617 OA
ATOM     67  OAF HC7 d   1      23.046  55.845   8.849  0.00  0.00    -0.617 OA
ENDBRANCH  63  64
ENDBRANCH  60  63
ENDBRANCH  57  60
ENDBRANCH  48  57
ENDBRANCH  45  48
ENDBRANCH  43  45
ENDBRANCH   6  43
TORSDOF 14
