REMARK  11 active torsions:
REMARK  status: ('A' for Active; 'I' for Inactive)
REMARK    1  A    between atoms: C2_2  and  C9_9 
REMARK    2  A    between atoms: C17_17  and  C4_4 
REMARK    3  A    between atoms: C11_11  and  C6_6 
REMARK    4  A    between atoms: C7_7  and  C8_8 
REMARK    5  A    between atoms: C8_8  and  C11_11 
REMARK    6  A    between atoms: C10_10  and  C27_27 
REMARK    7  A    between atoms: C11_11  and  O26_26 
REMARK    8  A    between atoms: O19_19  and  C17_17 
REMARK    9  A    between atoms: C18_18  and  O19_19 
REMARK   10  A    between atoms: O26_26  and  C28_28 
REMARK   11  A    between atoms: C28_28  and  C29_29 
ROOT
ATOM      1  C7  CTM d   1       2.452  27.683  20.459  0.00  0.00    -0.049 A 
ATOM      2  C10 CTM d   1       3.386  28.604  19.971  0.00  0.00    -0.053 A 
ATOM      3  C12 CTM d   1       4.696  28.203  19.742  0.00  0.00    -0.044 A 
ATOM      4  C14 CTM d   1       2.834  26.356  20.678  0.00  0.00    -0.074 A 
ATOM      5  C18 CTM d   1       5.073  26.885  19.986  0.00  0.00     0.069 A 
ATOM      6  C22 CTM d   1       4.144  25.947  20.440  0.00  0.00    -0.050 A 
ATOM      7  H5  CTM d   1       5.425  28.916  19.373  0.00  0.00     0.088 H 
ATOM      8  H6  CTM d   1       2.104  25.639  21.036  0.00  0.00     0.084 H 
ATOM      9  H11 CTM d   1       4.438  24.917  20.605  0.00  0.00     0.087 H 
ENDROOT
BRANCH   5  10
ATOM     10  O19 CTM d   1       6.389  26.554  19.785  0.00  0.00    -0.345 OA
BRANCH  10  11
ATOM     11  C17 CTM d   1       6.703  25.243  19.342  0.00  0.00     0.066 C 
ATOM     12  H9  CTM d   1       7.596  24.881  19.872  0.00  0.00     0.084 H 
ATOM     13  H10 CTM d   1       5.856  24.573  19.550  0.00  0.00     0.084 H 
BRANCH  11  14
ATOM     14  C4  CTM d   1       6.972  25.266  17.868  0.00  0.00     0.066 A 
ATOM     15  N1  CTM d   1       6.733  24.169  17.105  0.00  0.00    -0.243 NA
ATOM     16  C2  CTM d   1       7.012  24.400  15.852  0.00  0.00     0.108 A 
ATOM     17  S3  CTM d   1       7.615  26.003  15.500  0.00  0.00    -0.079 SA
ATOM     18  C5  CTM d   1       7.453  26.344  17.197  0.00  0.00    -0.017 A 
ATOM     19  H1  CTM d   1       7.704  27.297  17.661  0.00  0.00     0.098 H 
BRANCH  16  20
ATOM     20  C9  CTM d   1       6.829  23.412  14.798  0.00  0.00    -0.000 A 
ATOM     21  C15 CTM d   1       7.146  23.711  13.467  0.00  0.00    -0.069 A 
ATOM     22  C23 CTM d   1       6.934  22.773  12.465  0.00  0.00    -0.061 A 
ATOM     23  H7  CTM d   1       7.560  24.681  13.217  0.00  0.00     0.085 H 
ATOM     24  C21 CTM d   1       6.403  21.522  12.785  0.00  0.00     0.034 A 
ATOM     25  H12 CTM d   1       7.180  23.012  11.437  0.00  0.00     0.086 H 
ATOM     26  C24 CTM d   1       6.098  21.207  14.110  0.00  0.00    -0.061 A 
ATOM     27 CL25 CTM d   1       6.108  20.343  11.518  0.00  0.00    -0.084 Cl
ATOM     28  C16 CTM d   1       6.311  22.147  15.108  0.00  0.00    -0.069 A 
ATOM     29  H13 CTM d   1       5.696  20.231  14.358  0.00  0.00     0.086 H 
ATOM     30  H8  CTM d   1       6.075  21.901  16.137  0.00  0.00     0.085 H 
ENDBRANCH  16  20
ENDBRANCH  11  14
ENDBRANCH  10  11
ENDBRANCH   5  10
BRANCH   2  31
ATOM     31  C27 CTM d   1       3.015  30.038  19.716  0.00  0.00    -0.051 C 
ATOM     32  H14 CTM d   1       1.950  30.187  19.945  0.00  0.00     0.033 H 
ATOM     33  H15 CTM d   1       3.201  30.283  18.660  0.00  0.00     0.033 H 
ATOM     34  H16 CTM d   1       3.623  30.694  20.357  0.00  0.00     0.033 H 
ENDBRANCH   2  31
BRANCH   1  35
ATOM     35  C8  CTM d   1       1.052  28.122  20.788  0.00  0.00    -0.007 C 
ATOM     36  H2  CTM d   1       1.087  29.154  21.168  0.00  0.00     0.044 H 
ATOM     37  H3  CTM d   1       0.648  27.458  21.566  0.00  0.00     0.044 H 
BRANCH  35  38
ATOM     38  C11 CTM d   1       0.118  28.078  19.573  0.00  0.00     0.125 C 
ATOM     39  H4  CTM d   1       0.088  27.049  19.186  0.00  0.00     0.101 H 
BRANCH  38  40
ATOM     40  C6  CTM d   1      -1.269  28.477  20.001  0.00  0.00     0.203 C 
ATOM     41  O13 CTM d   1      -1.590  29.703  19.969  0.00  0.00    -0.646 OA
ATOM     42  O20 CTM d   1      -2.047  27.576  20.434  0.00  0.00    -0.646 OA
ENDBRANCH  38  40
BRANCH  38  43
ATOM     43  O26 CTM d   1       0.594  28.938  18.537  0.00  0.00    -0.375 OA
BRANCH  43  44
ATOM     44  C28 CTM d   1       0.163  28.510  17.248  0.00  0.00     0.017 C 
ATOM     45  H17 CTM d   1      -0.936  28.509  17.215  0.00  0.00     0.073 H 
ATOM     46  H18 CTM d   1       0.536  27.493  17.060  0.00  0.00     0.073 H 
BRANCH  44  47
ATOM     47  C29 CTM d   1       0.700  29.452  16.170  0.00  0.00    -0.056 C 
ATOM     48  H19 CTM d   1       0.360  29.110  15.181  0.00  0.00     0.030 H 
ATOM     49  H20 CTM d   1       1.800  29.454  16.199  0.00  0.00     0.030 H 
ATOM     50  H21 CTM d   1       0.327  30.470  16.354  0.00  0.00     0.030 H 
ENDBRANCH  44  47
ENDBRANCH  43  44
ENDBRANCH  38  43
ENDBRANCH  35  38
ENDBRANCH   1  35
TORSDOF 11
