REMARK  3 active torsions:
REMARK  status: ('A' for Active; 'I' for Inactive)
REMARK       I    between atoms: N26_6  and  C26_7 
REMARK    1  A    between atoms: C26_7  and  C25_9 
REMARK    2  A    between atoms: N20_14  and  C20_15 
REMARK       I    between atoms: N15_20  and  C15_21 
REMARK    3  A    between atoms: C15_21  and  C14_23 
ROOT
ATOM      1  C20 RCP d   1       5.290  23.017  24.085  0.00  0.00     0.107 C 
ATOM      2  C19 RCP d   1       3.803  23.189  24.291  0.00  0.00    -0.023 C 
ATOM      3  C18 RCP d   1       3.485  24.623  24.001  0.00  0.00    -0.000 C 
ATOM      4  C17 RCP d   1       5.978  23.767  25.197  0.00  0.00    -0.023 C 
ATOM      5  C16 RCP d   1       5.596  25.228  25.116  0.00  0.00    -0.000 C 
ATOM      6  N15 RCP d   1       4.168  25.426  24.967  0.00  0.00    -0.348 N 
ATOM      7  C15 RCP d   1       3.433  26.333  25.687  0.00  0.00     0.255 C 
ATOM      8  O15 RCP d   1       2.223  26.498  25.636  0.00  0.00    -0.267 OA
ATOM      9  H19 RCP d   1       5.559  23.500  23.134  0.00  0.00     0.084 H 
ATOM     10  H20 RCP d   1       3.534  22.945  25.329  0.00  0.00     0.038 H 
ATOM     11  H21 RCP d   1       3.248  22.533  23.605  0.00  0.00     0.038 H 
ATOM     12  H22 RCP d   1       2.400  24.788  24.077  0.00  0.00     0.064 H 
ATOM     13  H23 RCP d   1       3.826  24.885  22.988  0.00  0.00     0.064 H 
ATOM     14  H24 RCP d   1       7.068  23.665  25.091  0.00  0.00     0.038 H 
ATOM     15  H25 RCP d   1       5.663  23.357  26.168  0.00  0.00     0.038 H 
ATOM     16  H26 RCP d   1       6.106  25.677  24.251  0.00  0.00     0.064 H 
ATOM     17  H27 RCP d   1       5.926  25.730  26.038  0.00  0.00     0.064 H 
ENDROOT
BRANCH   1  18
ATOM     18  N20 RCP d   1       5.712  21.588  23.975  0.00  0.00    -0.066 N 
ATOM     19  C24 RCP d   1       6.232  21.016  25.229  0.00  0.00     0.095 C 
ATOM     20  C25 RCP d   1       6.660  19.568  25.055  0.00  0.00     0.047 C 
ATOM     21  H10 RCP d   1       7.100  21.607  25.557  0.00  0.00     0.077 H 
ATOM     22  H11 RCP d   1       5.445  21.065  25.996  0.00  0.00     0.077 H 
ATOM     23  C23 RCP d   1       5.675  18.696  24.307  0.00  0.00    -0.051 C 
ATOM     24  H9  RCP d   1       6.792  19.143  26.061  0.00  0.00     0.057 H 
ATOM     25  C22 RCP d   1       5.180  19.386  23.075  0.00  0.00    -0.042 C 
ATOM     26  H12 RCP d   1       4.821  18.473  24.963  0.00  0.00     0.034 H 
ATOM     27  H13 RCP d   1       6.171  17.757  24.019  0.00  0.00     0.034 H 
ATOM     28  C21 RCP d   1       4.621  20.717  23.475  0.00  0.00     0.084 C 
ATOM     29  H14 RCP d   1       4.395  18.780  22.599  0.00  0.00     0.035 H 
ATOM     30  H15 RCP d   1       6.011  19.529  22.369  0.00  0.00     0.035 H 
ATOM     31  H16 RCP d   1       3.873  20.576  24.269  0.00  0.00     0.076 H 
ATOM     32  H17 RCP d   1       4.146  21.191  22.604  0.00  0.00     0.076 H 
ATOM     33  H18 RCP d   1       6.460  21.560  23.300  0.00  0.00     0.280 HD
BRANCH  20  34
ATOM     34  C26 RCP d   1       7.970  19.490  24.319  0.00  0.00     0.225 C 
ATOM     35  N26 RCP d   1       8.963  18.902  25.073  0.00  0.00    -0.348 N 
ATOM     36  C29 RCP d   1       8.688  17.850  26.043  0.00  0.00     0.017 C 
ATOM     37  C27 RCP d   1      10.332  19.116  24.687  0.00  0.00     0.017 C 
ATOM     38  C30 RCP d   1       9.603  16.656  25.921  0.00  0.00     0.034 C 
ATOM     39  H1  RCP d   1       8.800  18.271  27.053  0.00  0.00     0.067 H 
ATOM     40  H2  RCP d   1       7.652  17.509  25.901  0.00  0.00     0.067 H 
ATOM     41  O28 RCP d   1      10.930  17.078  25.643  0.00  0.00    -0.388 OA
ATOM     42  H3  RCP d   1       9.249  16.010  25.104  0.00  0.00     0.076 H 
ATOM     43  H4  RCP d   1       9.592  16.092  26.866  0.00  0.00     0.076 H 
ATOM     44  C28 RCP d   1      10.961  17.780  24.412  0.00  0.00     0.034 C 
ATOM     45  H5  RCP d   1      10.387  17.237  23.647  0.00  0.00     0.076 H 
ATOM     46  H6  RCP d   1      11.999  17.908  24.070  0.00  0.00     0.076 H 
ATOM     47  H7  RCP d   1      10.370  19.738  23.781  0.00  0.00     0.067 H 
ATOM     48  H8  RCP d   1      10.873  19.621  25.501  0.00  0.00     0.067 H 
ATOM     49  O26 RCP d   1       8.108  19.900  23.175  0.00  0.00    -0.273 OA
ENDBRANCH  20  34
ENDBRANCH   1  18
BRANCH   7  50
ATOM     50  C14 RCP d   1       4.202  27.170  26.601  0.00  0.00     0.054 A 
ATOM     51  C1  RCP d   1       4.324  26.777  27.924  0.00  0.00    -0.009 A 
ATOM     52  C2  RCP d   1       3.749  25.620  28.414  0.00  0.00    -0.071 A 
ATOM     53  C6  RCP d   1       5.050  27.576  28.773  0.00  0.00    -0.024 A 
ATOM     54  C3  RCP d   1       3.896  25.270  29.733  0.00  0.00    -0.082 A 
ATOM     55  H28 RCP d   1       3.176  24.983  27.750  0.00  0.00     0.084 H 
ATOM     56  C4  RCP d   1       4.622  26.073  30.575  0.00  0.00    -0.082 A 
ATOM     57  H29 RCP d   1       3.439  24.361  30.108  0.00  0.00     0.083 H 
ATOM     58  C5  RCP d   1       5.199  27.224  30.095  0.00  0.00    -0.072 A 
ATOM     59  H30 RCP d   1       4.740  25.800  31.617  0.00  0.00     0.083 H 
ATOM     60  H31 RCP d   1       5.774  27.858  30.761  0.00  0.00     0.084 H 
ATOM     61  C7  RCP d   1       5.629  28.732  28.298  0.00  0.00    -0.061 A 
ATOM     62  C8  RCP d   1       5.494  29.105  26.976  0.00  0.00    -0.024 A 
ATOM     63  H32 RCP d   1       6.200  29.359  28.973  0.00  0.00     0.086 H 
ATOM     64  C13 RCP d   1       4.775  28.323  26.103  0.00  0.00    -0.009 A 
ATOM     65  C9  RCP d   1       6.080  30.266  26.524  0.00  0.00    -0.072 A 
ATOM     66  C12 RCP d   1       4.648  28.712  24.783  0.00  0.00    -0.071 A 
ATOM     67  C11 RCP d   1       5.231  29.875  24.333  0.00  0.00    -0.082 A 
ATOM     68  H33 RCP d   1       4.083  28.094  24.094  0.00  0.00     0.084 H 
ATOM     69  C10 RCP d   1       5.949  30.651  25.208  0.00  0.00    -0.082 A 
ATOM     70  H34 RCP d   1       5.124  30.175  23.297  0.00  0.00     0.083 H 
ATOM     71  H35 RCP d   1       6.413  31.568  24.863  0.00  0.00     0.083 H 
ATOM     72  H36 RCP d   1       6.649  30.883  27.210  0.00  0.00     0.084 H 
ENDBRANCH   7  50
TORSDOF 3
