REMARK  10 active torsions:
REMARK  status: ('A' for Active; 'I' for Inactive)
REMARK    1  A    between atoms: PG_1  and  O3B_5 
REMARK    2  A    between atoms: O3B_5  and  PB_6 
REMARK    3  A    between atoms: PB_6  and  O3A_9 
REMARK    4  A    between atoms: O3A_9  and  PA_10 
REMARK    5  A    between atoms: PA_10  and  O5'_13 
REMARK    6  A    between atoms: O5'_13  and  C5'_14 
REMARK    7  A    between atoms: C5'_14  and  C4'_15 
REMARK    8  A    between atoms: C3'_17  and  O3'_18 
REMARK    9  A    between atoms: C2'_19  and  O2'_20 
REMARK   10  A    between atoms: C1'_21  and  N9_22 
ROOT
ATOM      1  C4' GTP d   1      24.340  -9.203 -12.559  0.00  0.00     0.089 C 
ATOM      2  O4' GTP d   1      23.316  -9.990 -11.948  0.00  0.00    -0.353 OA
ATOM      3  C3' GTP d   1      25.676  -9.806 -12.174  0.00  0.00     0.091 C 
ATOM      4  C2' GTP d   1      25.301 -10.998 -11.318  0.00  0.00     0.105 C 
ATOM      5  C1' GTP d   1      23.872 -10.739 -10.878  0.00  0.00     0.139 C 
ATOM      6  H3  GTP d   1      24.280  -8.198 -12.116  0.00  0.00     0.090 H 
ATOM      7  H4  GTP d   1      26.250 -10.124 -13.057  0.00  0.00     0.091 H 
ATOM      8  H6  GTP d   1      25.390 -11.939 -11.880  0.00  0.00     0.093 H 
ATOM      9  H8  GTP d   1      23.866 -10.140  -9.956  0.00  0.00     0.122 H 
ENDROOT
BRANCH   1  10
ATOM     10  C5' GTP d   1      24.236  -9.011 -14.081  0.00  0.00     0.058 C 
ATOM     11  H1  GTP d   1      23.308  -8.466 -14.306  0.00  0.00     0.079 H 
ATOM     12  H2  GTP d   1      25.100  -8.422 -14.423  0.00  0.00     0.079 H 
BRANCH  10  13
ATOM     13  O5' GTP d   1      24.221 -10.230 -14.769  0.00  0.00    -0.287 OA
BRANCH  13  14
ATOM     14  PA  GTP d   1      25.245 -10.502 -15.970  0.00  0.00     0.417 P 
ATOM     15  O1A GTP d   1      24.818 -11.781 -16.634  0.00  0.00    -0.624 OA
ATOM     16  O2A GTP d   1      26.651 -10.560 -15.457  0.00  0.00    -0.624 OA
BRANCH  14  17
ATOM     17  O3A GTP d   1      25.125  -9.298 -17.028  0.00  0.00    -0.180 OA
BRANCH  17  18
ATOM     18  PB  GTP d   1      25.303  -9.613 -18.611  0.00  0.00     0.428 P 
ATOM     19  O1B GTP d   1      24.785  -8.430 -19.396  0.00  0.00    -0.624 OA
ATOM     20  O2B GTP d   1      24.540 -10.872 -18.933  0.00  0.00    -0.624 OA
BRANCH  18  21
ATOM     21  O3B GTP d   1      26.890  -9.831 -18.879  0.00  0.00    -0.173 OA
BRANCH  21  22
ATOM     22  PG  GTP d   1      28.064  -8.807 -18.368  0.00  0.00     0.431 P 
ATOM     23  O1G GTP d   1      27.892  -7.494 -19.126  0.00  0.00    -0.616 OA
ATOM     24  O2G GTP d   1      27.965  -8.542 -16.867  0.00  0.00    -0.616 OA
ATOM     25  O3G GTP d   1      29.453  -9.379 -18.651  0.00  0.00    -0.616 OA
ENDBRANCH  21  22
ENDBRANCH  18  21
ENDBRANCH  17  18
ENDBRANCH  14  17
ENDBRANCH  13  14
ENDBRANCH  10  13
ENDBRANCH   1  10
BRANCH   3  26
ATOM     26  O3' GTP d   1      26.402  -8.825 -11.450  0.00  0.00    -0.390 OA
ATOM     27  H5  GTP d   1      27.246  -9.180 -11.197  0.00  0.00     0.210 HD
ENDBRANCH   3  26
BRANCH   5  28
ATOM     28  N9  GTP d   1      23.119 -11.996 -10.624  0.00  0.00    -0.295 N 
ATOM     29  C8  GTP d   1      22.682 -12.499  -9.419  0.00  0.00     0.071 A 
ATOM     30  N7  GTP d   1      22.020 -13.664  -9.675  0.00  0.00    -0.234 NA
ATOM     31  H9  GTP d   1      22.837 -12.049  -8.440  0.00  0.00     0.144 H 
ATOM     32  C5  GTP d   1      22.011 -13.907 -11.011  0.00  0.00     0.171 A 
ATOM     33  C6  GTP d   1      21.489 -14.921 -11.823  0.00  0.00     0.292 A 
ATOM     34  C4  GTP d   1      22.705 -12.866 -11.606  0.00  0.00     0.161 A 
ATOM     35  O6  GTP d   1      20.876 -15.882 -11.350  0.00  0.00    -0.265 OA
ATOM     36  N1  GTP d   1      21.671 -14.863 -13.190  0.00  0.00    -0.154 N 
ATOM     37  C2  GTP d   1      22.364 -13.809 -13.747  0.00  0.00     0.680 A 
ATOM     38  H10 GTP d   1      21.301 -15.584 -13.775  0.00  0.00     0.187 HD
ATOM     39  N2  GTP d   1      22.572 -13.710 -15.052  0.00  0.00    -0.234 N 
ATOM     40  N3  GTP d   1      22.865 -12.820 -12.946  0.00  0.00    -0.174 N 
ATOM     41  H11 GTP d   1      23.095 -12.907 -15.431  0.00  0.00     0.174 HD
ATOM     42  H12 GTP d   1      22.211 -14.436 -15.688  0.00  0.00     0.174 HD
ATOM     43  H13 GTP d   1      23.371 -12.030 -13.371  0.00  0.00     0.186 HD
ENDBRANCH   5  28
BRANCH   4  44
ATOM     44  O2' GTP d   1      26.105 -11.024 -10.173  0.00  0.00    -0.388 OA
ATOM     45  H7  GTP d   1      25.974 -10.224  -9.677  0.00  0.00     0.210 HD
ENDBRANCH   4  44
TORSDOF 10
