REMARK  12 active torsions:
REMARK  status: ('A' for Active; 'I' for Inactive)
REMARK    1  A    between atoms: C7_11  and  C7M_12 
REMARK    2  A    between atoms: C8_13  and  C8M_14 
REMARK    3  A    between atoms: N10_17  and  C1'_19 
REMARK    4  A    between atoms: C1'_19  and  C2'_20 
REMARK    5  A    between atoms: C2'_20  and  O2'_21 
REMARK    6  A    between atoms: C2'_20  and  C3'_22 
REMARK    7  A    between atoms: C3'_22  and  O3'_23 
REMARK    8  A    between atoms: C3'_22  and  C4'_24 
REMARK    9  A    between atoms: C4'_24  and  O4'_25 
REMARK   10  A    between atoms: C4'_24  and  C5'_26 
REMARK   11  A    between atoms: C5'_26  and  O5'_27 
REMARK   12  A    between atoms: O5'_27  and  P_28 
ROOT
ATOM      1  N1  NON d   1       0.698  19.878  31.608  0.00  0.00    -0.173 NA
ATOM      2  C2  NON d   1       0.593  21.234  31.307  0.00  0.00     0.350 A 
ATOM      3  O2  NON d   1      -0.078  22.010  32.004  0.00  0.00    -0.244 OA
ATOM      4  N3  NON d   1       1.249  21.713  30.199  0.00  0.00    -0.272 N 
ATOM      5  C4  NON d   1       1.992  20.867  29.423  0.00  0.00     0.282 A 
ATOM      6  O4  NON d   1       2.601  21.370  28.493  0.00  0.00    -0.265 OA
ATOM      7  C4A NON d   1       2.091  19.495  29.737  0.00  0.00     0.171 A 
ATOM      8  N5  NON d   1       2.835  18.623  28.946  0.00  0.00    -0.237 NA
ATOM      9  C5A NON d   1       2.947  17.281  29.249  0.00  0.00     0.085 A 
ATOM     10  C6  NON d   1       3.717  16.464  28.427  0.00  0.00    -0.047 A 
ATOM     11  C7  NON d   1       3.850  15.103  28.697  0.00  0.00    -0.054 A 
ATOM     12  C8  NON d   1       3.216  14.558  29.801  0.00  0.00    -0.054 A 
ATOM     13  C9  NON d   1       2.440  15.386  30.628  0.00  0.00    -0.048 A 
ATOM     14  C9A NON d   1       2.294  16.762  30.371  0.00  0.00     0.065 A 
ATOM     15  N10 NON d   1       1.505  17.626  31.175  0.00  0.00    -0.325 N 
ATOM     16  C10 NON d   1       1.435  18.994  30.850  0.00  0.00     0.170 A 
ATOM     17  H   NON d   1       1.182  22.701  29.955  0.00  0.00     0.174 HD
ATOM     18  H   NON d   1       4.222  16.893  27.562  0.00  0.00     0.088 H 
ATOM     19  H   NON d   1       1.937  14.951  31.492  0.00  0.00     0.087 H 
ENDROOT
BRANCH  15  20
ATOM     20  C1' NON d   1       0.422  17.045  32.076  0.00  0.00     0.028 C 
ATOM     21  H   NON d   1       0.336  17.717  32.930  0.00  0.00     0.069 H 
ATOM     22  H   NON d   1       0.727  16.025  32.308  0.00  0.00     0.069 H 
BRANCH  20  23
ATOM     23  C2' NON d   1      -0.992  16.949  31.448  0.00  0.00     0.078 C 
ATOM     24  H   NON d   1      -0.837  16.448  30.492  0.00  0.00     0.089 H 
BRANCH  23  25
ATOM     25  O2' NON d   1      -1.562  18.253  31.287  0.00  0.00    -0.391 OA
ATOM     26  H   NON d   1      -1.001  18.778  30.712  0.00  0.00     0.210 HD
ENDBRANCH  23  25
BRANCH  23  27
ATOM     27  C3' NON d   1      -2.004  16.112  32.287  0.00  0.00     0.088 C 
ATOM     28  H   NON d   1      -2.920  16.353  31.748  0.00  0.00     0.091 H 
BRANCH  27  29
ATOM     29  O3' NON d   1      -1.939  16.481  33.653  0.00  0.00    -0.390 OA
ATOM     30  H   NON d   1      -2.567  15.957  34.155  0.00  0.00     0.210 HD
ENDBRANCH  27  29
BRANCH  27  31
ATOM     31  C4' NON d   1      -1.902  14.572  32.321  0.00  0.00     0.084 C 
ATOM     32  H   NON d   1      -2.214  14.339  33.339  0.00  0.00     0.090 H 
BRANCH  31  33
ATOM     33  O4' NON d   1      -0.589  14.086  32.141  0.00  0.00    -0.391 OA
ATOM     34  H   NON d   1      -0.597  13.127  32.173  0.00  0.00     0.210 HD
ENDBRANCH  31  33
BRANCH  31  35
ATOM     35  C5' NON d   1      -2.865  13.840  31.392  0.00  0.00     0.059 C 
ATOM     36  H   NON d   1      -3.095  12.873  31.840  0.00  0.00     0.079 H 
ATOM     37  H   NON d   1      -2.386  13.745  30.418  0.00  0.00     0.079 H 
BRANCH  35  38
ATOM     38  O5' NON d   1      -4.077  14.536  31.215  0.00  0.00    -0.280 OA
BRANCH  38  39
ATOM     39  P   NON d   1      -5.520  13.926  31.638  0.00  0.00     0.422 P 
ATOM     40  O1P NON d   1      -5.759  14.265  33.103  0.00  0.00    -0.617 OA
ATOM     41  O2P NON d   1      -6.537  14.558  30.728  0.00  0.00    -0.617 OA
ATOM     42  O3P NON d   1      -5.500  12.420  31.494  0.00  0.00    -0.617 OA
ENDBRANCH  38  39
ENDBRANCH  35  38
ENDBRANCH  31  35
ENDBRANCH  27  31
ENDBRANCH  23  27
ENDBRANCH  20  23
ENDBRANCH  15  20
BRANCH  12  43
ATOM     43  C8M NON d   1       3.362  13.076  30.047  0.00  0.00    -0.051 C 
ATOM     44  H   NON d   1       2.965  12.527  29.194  0.00  0.00     0.033 H 
ATOM     45  H   NON d   1       4.416  12.833  30.178  0.00  0.00     0.033 H 
ATOM     46  H   NON d   1       2.810  12.802  30.946  0.00  0.00     0.033 H 
ENDBRANCH  12  43
BRANCH  11  47
ATOM     47  C7M NON d   1       4.679  14.222  27.809  0.00  0.00    -0.051 C 
ATOM     48  H   NON d   1       5.487  13.779  28.391  0.00  0.00     0.033 H 
ATOM     49  H   NON d   1       4.052  13.432  27.396  0.00  0.00     0.033 H 
ATOM     50  H   NON d   1       5.098  14.817  26.998  0.00  0.00     0.033 H 
ENDBRANCH  11  47
TORSDOF 12
