REMARK  5 active torsions:
REMARK  status: ('A' for Active; 'I' for Inactive)
REMARK    1  A    between atoms: CAC_6  and  CAG_7 
REMARK    2  A    between atoms: CAG_7  and  CAH_8 
REMARK    3  A    between atoms: CAK_13  and  OAN_14 
REMARK    4  A    between atoms: OAN_14  and  CAO_15 
REMARK    5  A    between atoms: CAO_15  and  CAP_16 
ROOT
ATOM      1  CAH 24P d   1      26.503  -0.137  -0.541  0.00  0.00    -0.054 A 
ATOM      2  CAM 24P d   1      26.672  -0.630   0.755  0.00  0.00    -0.074 A 
ATOM      3  CAL 24P d   1      27.954  -0.914   1.253  0.00  0.00    -0.050 A 
ATOM      4  CAI 24P d   1      27.615   0.091  -1.353  0.00  0.00    -0.074 A 
ATOM      5  CAJ 24P d   1      28.887  -0.197  -0.859  0.00  0.00    -0.050 A 
ATOM      6  CAK 24P d   1      29.069  -0.704   0.432  0.00  0.00     0.068 A 
ATOM      7  H8  24P d   1      25.804  -0.795   1.383  0.00  0.00     0.084 H 
ATOM      8  H9  24P d   1      28.079  -1.292   2.261  0.00  0.00     0.087 H 
ATOM      9  H10 24P d   1      27.492   0.487  -2.355  0.00  0.00     0.084 H 
ATOM     10  H11 24P d   1      29.753  -0.024  -1.488  0.00  0.00     0.087 H 
ENDROOT
BRANCH   6  11
ATOM     11  OAN 24P d   1      30.356  -0.974   0.834  0.00  0.00    -0.349 OA
BRANCH  11  12
ATOM     12  CAO 24P d   1      30.563  -1.821   2.005  0.00  0.00     0.052 C 
ATOM     13  H12 24P d   1      29.733  -2.537   2.096  0.00  0.00     0.078 H 
ATOM     14  H13 24P d   1      30.610  -1.197   2.910  0.00  0.00     0.078 H 
BRANCH  12  15
ATOM     15  CAP 24P d   1      31.890  -2.584   1.832  0.00  0.00     0.122 C 
ATOM     16  CAQ 24P d   1      31.969  -3.426   0.554  0.00  0.00    -0.035 C 
ATOM     17  CAR 24P d   1      33.478  -3.704   0.474  0.00  0.00    -0.041 C 
ATOM     18  H15 24P d   1      31.616  -2.863  -0.322  0.00  0.00     0.036 H 
ATOM     19  H16 24P d   1      31.392  -4.358   0.648  0.00  0.00     0.036 H 
ATOM     20  CAS 24P d   1      34.121  -2.554   1.250  0.00  0.00     0.082 C 
ATOM     21  H17 24P d   1      33.818  -3.705  -0.572  0.00  0.00     0.035 H 
ATOM     22  H18 24P d   1      33.721  -4.671   0.940  0.00  0.00     0.035 H 
ATOM     23  NAT 24P d   1      33.019  -1.657   1.663  0.00  0.00    -0.069 N 
ATOM     24  H19 24P d   1      34.831  -2.013   0.608  0.00  0.00     0.075 H 
ATOM     25  H20 24P d   1      34.648  -2.941   2.135  0.00  0.00     0.075 H 
ATOM     26  H21 24P d   1      33.237  -1.189   2.529  0.00  0.00     0.277 HD
ATOM     27  H22 24P d   1      32.822  -0.972   0.951  0.00  0.00     0.277 HD
ATOM     28  H14 24P d   1      32.040  -3.223   2.715  0.00  0.00     0.087 H 
ENDBRANCH  12  15
ENDBRANCH  11  12
ENDBRANCH   6  11
BRANCH   1  29
ATOM     29  CAG 24P d   1      25.097   0.198  -1.071  0.00  0.00    -0.017 C 
ATOM     30  H6  24P d   1      24.385   0.102  -0.238  0.00  0.00     0.047 H 
ATOM     31  H7  24P d   1      25.105   1.238  -1.429  0.00  0.00     0.047 H 
BRANCH  29  32
ATOM     32  CAC 24P d   1      24.614  -0.696  -2.215  0.00  0.00    -0.054 A 
ATOM     33  CAB 24P d   1      24.395  -2.067  -2.027  0.00  0.00    -0.077 A 
ATOM     34  CAA 24P d   1      23.935  -2.864  -3.083  0.00  0.00    -0.082 A 
ATOM     35  H1  24P d   1      24.583  -2.514  -1.058  0.00  0.00     0.084 H 
ATOM     36  CAF 24P d   1      23.691  -2.303  -4.339  0.00  0.00    -0.083 A 
ATOM     37  H2  24P d   1      23.767  -3.923  -2.925  0.00  0.00     0.083 H 
ATOM     38  CAE 24P d   1      23.897  -0.937  -4.526  0.00  0.00    -0.082 A 
ATOM     39  H3  24P d   1      23.346  -2.923  -5.159  0.00  0.00     0.083 H 
ATOM     40  CAD 24P d   1      24.356  -0.141  -3.479  0.00  0.00    -0.077 A 
ATOM     41  H4  24P d   1      23.698  -0.491  -5.494  0.00  0.00     0.083 H 
ATOM     42  H5  24P d   1      24.516   0.919  -3.642  0.00  0.00     0.084 H 
ENDBRANCH  29  32
ENDBRANCH   1  29
TORSDOF 5
