REMARK  6 active torsions:
REMARK  status: ('A' for Active; 'I' for Inactive)
REMARK    1  A    between atoms: NAA_5  and  CAB_6 
REMARK    2  A    between atoms: CAB_6  and  CAC_7 
REMARK    3  A    between atoms: CAC_7  and  OAD_8 
REMARK    4  A    between atoms: OAD_8  and  CAE_9 
REMARK    5  A    between atoms: CAH_14  and  CAK_15 
REMARK    6  A    between atoms: CAK_15  and  CAL_16 
ROOT
ATOM      1  CAE 27P d   1      28.398  86.908   0.186  0.00  0.00     0.068 A 
ATOM      2  CAJ 27P d   1      28.403  87.583  -1.029  0.00  0.00    -0.050 A 
ATOM      3  CAI 27P d   1      27.223  87.767  -1.738  0.00  0.00    -0.074 A 
ATOM      4  CAF 27P d   1      27.188  86.426   0.682  0.00  0.00    -0.050 A 
ATOM      5  CAG 27P d   1      26.007  86.620  -0.029  0.00  0.00    -0.074 A 
ATOM      6  CAH 27P d   1      26.025  87.285  -1.242  0.00  0.00    -0.054 A 
ATOM      7  H14 27P d   1      29.335  87.969  -1.426  0.00  0.00     0.087 H 
ATOM      8  H15 27P d   1      27.241  88.292  -2.686  0.00  0.00     0.084 H 
ATOM      9  H16 27P d   1      27.166  85.897   1.628  0.00  0.00     0.087 H 
ATOM     10  H17 27P d   1      25.070  86.249   0.369  0.00  0.00     0.084 H 
ENDROOT
BRANCH   1  11
ATOM     11  OAD 27P d   1      29.573  86.738   0.856  0.00  0.00    -0.350 OA
BRANCH  11  12
ATOM     12  CAC 27P d   1      29.576  85.894   2.005  0.00  0.00     0.049 C 
ATOM     13  H12 27P d   1      28.896  86.285   2.776  0.00  0.00     0.077 H 
ATOM     14  H13 27P d   1      29.275  84.871   1.736  0.00  0.00     0.077 H 
BRANCH  12  15
ATOM     15  CAB 27P d   1      31.019  85.920   2.495  0.00  0.00     0.103 C 
ATOM     16  H10 27P d   1      31.252  86.943   2.824  0.00  0.00     0.079 H 
ATOM     17  H11 27P d   1      31.105  85.232   3.349  0.00  0.00     0.079 H 
BRANCH  15  18
ATOM     18  NAA 27P d   1      32.017  85.523   1.480  0.00  0.00    -0.069 N 
ATOM     19  CAR 27P d   1      33.301  85.373   2.166  0.00  0.00     0.084 C 
ATOM     20  CAS 27P d   1      34.181  84.624   1.173  0.00  0.00    -0.041 C 
ATOM     21  H1  27P d   1      33.732  86.357   2.402  0.00  0.00     0.076 H 
ATOM     22  H2  27P d   1      33.181  84.793   3.093  0.00  0.00     0.076 H 
ATOM     23  CAU 27P d   1      33.195  83.676   0.481  0.00  0.00    -0.041 C 
ATOM     24  H3  27P d   1      34.971  84.062   1.692  0.00  0.00     0.035 H 
ATOM     25  H4  27P d   1      34.637  85.316   0.450  0.00  0.00     0.035 H 
ATOM     26  CAT 27P d   1      31.796  84.186   0.890  0.00  0.00     0.084 C 
ATOM     27  H5  27P d   1      33.346  82.642   0.826  0.00  0.00     0.035 H 
ATOM     28  H6  27P d   1      33.318  83.720  -0.611  0.00  0.00     0.035 H 
ATOM     29  H7  27P d   1      31.342  83.510   1.630  0.00  0.00     0.076 H 
ATOM     30  H8  27P d   1      31.141  84.259   0.009  0.00  0.00     0.076 H 
ATOM     31  H9  27P d   1      32.058  86.223   0.756  0.00  0.00     0.280 HD
ENDBRANCH  15  18
ENDBRANCH  12  15
ENDBRANCH  11  12
ENDBRANCH   1  11
BRANCH   6  32
ATOM     32  CAK 27P d   1      24.717  87.520  -2.023  0.00  0.00    -0.017 C 
ATOM     33  H18 27P d   1      24.841  88.433  -2.624  0.00  0.00     0.047 H 
ATOM     34  H19 27P d   1      23.908  87.669  -1.292  0.00  0.00     0.047 H 
BRANCH  32  35
ATOM     35  CAL 27P d   1      24.297  86.386  -2.968  0.00  0.00    -0.054 A 
ATOM     36  CAM 27P d   1      23.961  86.675  -4.278  0.00  0.00    -0.077 A 
ATOM     37  CAN 27P d   1      23.577  85.687  -5.178  0.00  0.00    -0.082 A 
ATOM     38  H20 27P d   1      23.998  87.705  -4.614  0.00  0.00     0.084 H 
ATOM     39  CAO 27P d   1      23.481  84.368  -4.753  0.00  0.00    -0.083 A 
ATOM     40  H21 27P d   1      23.354  85.945  -6.207  0.00  0.00     0.083 H 
ATOM     41  CAP 27P d   1      23.794  84.071  -3.429  0.00  0.00    -0.082 A 
ATOM     42  H22 27P d   1      23.169  83.587  -5.437  0.00  0.00     0.083 H 
ATOM     43  CAQ 27P d   1      24.190  85.060  -2.536  0.00  0.00    -0.077 A 
ATOM     44  H23 27P d   1      23.727  83.045  -3.087  0.00  0.00     0.083 H 
ATOM     45  H24 27P d   1      24.415  84.804  -1.507  0.00  0.00     0.084 H 
ENDBRANCH  32  35
ENDBRANCH   6  32
TORSDOF 6
