REMARK  11 active torsions:
REMARK  status: ('A' for Active; 'I' for Inactive)
REMARK    1  A    between atoms: CAP_6  and  CAO_7 
REMARK    2  A    between atoms: CAO_7  and  CAN_8 
REMARK    3  A    between atoms: CAK_13  and  OAJ_14 
REMARK    4  A    between atoms: OAJ_14  and  CAI_15 
REMARK    5  A    between atoms: CAI_15  and  CAH_16 
REMARK    6  A    between atoms: CAH_16  and  CAG_17 
REMARK    7  A    between atoms: CAG_17  and  N1_18 
REMARK    8  A    between atoms: N1_18  and  CAX_19 
REMARK    9  A    between atoms: N1_18  and  CAB_20 
REMARK   10  A    between atoms: CAB_20  and  CAC_21 
REMARK   11  A    between atoms: CAC_21  and  CAD_22 
ROOT
ATOM      1  OAJ 28P d   1      29.790  86.370   0.438  0.00  0.00    -0.351 OA
ENDROOT
BRANCH   1   2
ATOM      2  CAK 28P d   1      28.525  86.465  -0.007  0.00  0.00     0.068 A 
ATOM      3  CAW 28P d   1      27.456  85.930   0.709  0.00  0.00    -0.050 A 
ATOM      4  CAV 28P d   1      26.177  86.068   0.210  0.00  0.00    -0.074 A 
ATOM      5  H9  28P d   1      27.627  85.412   1.646  0.00  0.00     0.087 H 
ATOM      6  CAN 28P d   1      25.949  86.705  -0.979  0.00  0.00    -0.054 A 
ATOM      7  H8  28P d   1      25.340  85.665   0.769  0.00  0.00     0.084 H 
ATOM      8  CAM 28P d   1      27.011  87.241  -1.683  0.00  0.00    -0.074 A 
ATOM      9  CAL 28P d   1      28.306  87.115  -1.206  0.00  0.00    -0.050 A 
ATOM     10  H10 28P d   1      26.829  87.764  -2.615  0.00  0.00     0.084 H 
ATOM     11  H11 28P d   1      29.139  87.522  -1.768  0.00  0.00     0.087 H 
BRANCH   6  12
ATOM     12  CAO 28P d   1      24.500  86.841  -1.484  0.00  0.00    -0.017 C 
ATOM     13  H6  28P d   1      23.818  86.615  -0.651  0.00  0.00     0.047 H 
ATOM     14  H7  28P d   1      24.343  87.878  -1.816  0.00  0.00     0.047 H 
BRANCH  12  15
ATOM     15  CAP 28P d   1      24.168  85.897  -2.657  0.00  0.00    -0.054 A 
ATOM     16  CAQ 28P d   1      24.112  86.403  -3.943  0.00  0.00    -0.077 A 
ATOM     17  CAR 28P d   1      23.800  85.577  -5.004  0.00  0.00    -0.082 A 
ATOM     18  H1  28P d   1      24.314  87.453  -4.119  0.00  0.00     0.084 H 
ATOM     19  CAS 28P d   1      23.528  84.240  -4.788  0.00  0.00    -0.083 A 
ATOM     20  H2  28P d   1      23.768  85.979  -6.010  0.00  0.00     0.083 H 
ATOM     21  CAT 28P d   1      23.563  83.729  -3.495  0.00  0.00    -0.082 A 
ATOM     22  H3  28P d   1      23.288  83.592  -5.623  0.00  0.00     0.083 H 
ATOM     23  CAU 28P d   1      23.880  84.555  -2.430  0.00  0.00    -0.077 A 
ATOM     24  H4  28P d   1      23.342  82.682  -3.321  0.00  0.00     0.083 H 
ATOM     25  H5  28P d   1      23.904  84.157  -1.422  0.00  0.00     0.084 H 
ENDBRANCH  12  15
ENDBRANCH   6  12
ENDBRANCH   1   2
BRANCH   1  26
ATOM     26  CAI 28P d   1      29.994  85.630   1.701  0.00  0.00     0.028 C 
ATOM     27  H12 28P d   1      29.401  84.703   1.705  0.00  0.00     0.075 H 
ATOM     28  H13 28P d   1      29.709  86.251   2.563  0.00  0.00     0.075 H 
BRANCH  26  29
ATOM     29  CAH 28P d   1      31.498  85.309   1.741  0.00  0.00    -0.022 C 
ATOM     30  H14 28P d   1      31.660  84.513   2.483  0.00  0.00     0.038 H 
ATOM     31  H15 28P d   1      32.035  86.216   2.053  0.00  0.00     0.038 H 
BRANCH  29  32
ATOM     32  CAG 28P d   1      32.090  84.836   0.381  0.00  0.00     0.085 C 
ATOM     33  H16 28P d   1      32.456  85.715  -0.169  0.00  0.00     0.076 H 
ATOM     34  H17 28P d   1      31.294  84.346  -0.199  0.00  0.00     0.076 H 
BRANCH  32  35
ATOM     35  N1  28P d   1      33.207  83.884   0.549  0.00  0.00    -0.074 N 
ATOM     36  H18 28P d   1      32.818  83.101   1.051  0.00  0.00     0.279 HD
BRANCH  35  37
ATOM     37  CAX 28P d   1      34.310  84.364   1.392  0.00  0.00     0.066 C 
ATOM     38  H19 28P d   1      35.087  83.588   1.455  0.00  0.00     0.068 H 
ATOM     39  H20 28P d   1      33.931  84.586   2.401  0.00  0.00     0.068 H 
ATOM     40  H21 28P d   1      34.738  85.277   0.952  0.00  0.00     0.068 H 
ENDBRANCH  35  37
BRANCH  35  41
ATOM     41  CAB 28P d   1      33.648  83.342  -0.756  0.00  0.00     0.092 C 
ATOM     42  H22 28P d   1      32.825  83.441  -1.480  0.00  0.00     0.076 H 
ATOM     43  H23 28P d   1      33.902  82.279  -0.633  0.00  0.00     0.076 H 
BRANCH  41  44
ATOM     44  CAC 28P d   1      34.858  84.077  -1.286  0.00  0.00     0.038 C 
ATOM     45  H24 28P d   1      35.683  83.981  -0.565  0.00  0.00     0.051 H 
ATOM     46  H25 28P d   1      34.607  85.140  -1.415  0.00  0.00     0.051 H 
BRANCH  44  47
ATOM     47  CAD 28P d   1      35.302  83.490  -2.649  0.00  0.00     0.174 C 
ATOM     48  OAF 28P d   1      34.467  83.154  -3.519  0.00  0.00    -0.648 OA
ATOM     49  OAE 28P d   1      36.509  83.370  -2.865  0.00  0.00    -0.648 OA
ENDBRANCH  44  47
ENDBRANCH  41  44
ENDBRANCH  35  41
ENDBRANCH  32  35
ENDBRANCH  29  32
ENDBRANCH  26  29
ENDBRANCH   1  26
TORSDOF 11
