REMARK  2 active torsions:
REMARK  status: ('A' for Active; 'I' for Inactive)
REMARK    1  A    between atoms: C18_10  and  C14_11 
REMARK    2  A    between atoms: C12_16  and  C2_17 
ROOT
ATOM      1  C14 P4O d   1      21.412   5.959  14.213  0.00  0.00     0.069 A 
ATOM      2  C13 P4O d   1      20.527   5.014  14.705  0.00  0.00    -0.042 A 
ATOM      3  N15 P4O d   1      22.577   6.144  14.843  0.00  0.00    -0.260 NA
ATOM      4  C10 P4O d   1      22.899   5.443  15.948  0.00  0.00     0.004 A 
ATOM      5  C11 P4O d   1      22.042   4.503  16.487  0.00  0.00    -0.054 A 
ATOM      6  C12 P4O d   1      20.834   4.269  15.835  0.00  0.00    -0.006 A 
ATOM      7  H7  P4O d   1      19.581   4.854  14.200  0.00  0.00     0.088 H 
ATOM      8  H8  P4O d   1      23.855   5.621  16.426  0.00  0.00     0.114 H 
ATOM      9  H9  P4O d   1      22.302   3.964  17.391  0.00  0.00     0.087 H 
ENDROOT
BRANCH   6  10
ATOM     10  C2  P4O d   1      19.891   3.282  16.416  0.00  0.00     0.043 A 
ATOM     11  C3  P4O d   1      19.958   2.587  17.612  0.00  0.00    -0.039 A 
ATOM     12  C4  P4O d   1      18.810   1.826  17.631  0.00  0.00     0.056 A 
ATOM     13  H10 P4O d   1      20.741   2.632  18.367  0.00  0.00     0.088 H 
ATOM     14  C6  P4O d   1      18.240   0.876  18.625  0.00  0.00     0.253 C 
ATOM     15  C5  P4O d   1      18.033   2.131  16.441  0.00  0.00     0.027 A 
ATOM     16  O26 P4O d   1      18.882   0.535  19.595  0.00  0.00    -0.268 OA
ATOM     17  N7  P4O d   1      16.986   0.458  18.451  0.00  0.00    -0.356 N 
ATOM     18  C8  P4O d   1      16.395   0.362  17.112  0.00  0.00     0.000 C 
ATOM     19  H11 P4O d   1      16.438   0.205  19.248  0.00  0.00     0.162 HD
ATOM     20  C9  P4O d   1      16.693   1.499  16.124  0.00  0.00    -0.011 C 
ATOM     21  H12 P4O d   1      15.303   0.311  17.236  0.00  0.00     0.064 H 
ATOM     22  H13 P4O d   1      16.757  -0.573  16.658  0.00  0.00     0.064 H 
ATOM     23  H14 P4O d   1      15.905   2.262  16.200  0.00  0.00     0.044 H 
ATOM     24  H15 P4O d   1      16.715   1.095  15.101  0.00  0.00     0.044 H 
ATOM     25  N1  P4O d   1      18.732   3.036  15.724  0.00  0.00    -0.358 N 
ATOM     26  H16 P4O d   1      18.450   3.461  14.829  0.00  0.00     0.166 HD
ENDBRANCH   6  10
BRANCH   1  27
ATOM     27  C18 P4O d   1      21.114   6.721  12.977  0.00  0.00     0.011 A 
ATOM     28  C19 P4O d   1      21.622   8.002  12.690  0.00  0.00    -0.057 A 
ATOM     29  C20 P4O d   1      21.273   8.583  11.458  0.00  0.00    -0.006 A 
ATOM     30  H1  P4O d   1      22.260   8.523  13.395  0.00  0.00     0.086 H 
ATOM     31  C25 P4O d   1      21.698   9.865  11.107  0.00  0.00    -0.071 A 
ATOM     32  C21 P4O d   1      20.478   7.863  10.549  0.00  0.00     0.066 A 
ATOM     33  C24 P4O d   1      21.333  10.390   9.862  0.00  0.00    -0.082 A 
ATOM     34  H2  P4O d   1      22.304  10.448  11.791  0.00  0.00     0.084 H 
ATOM     35  C23 P4O d   1      20.546   9.657   8.971  0.00  0.00    -0.081 A 
ATOM     36  H3  P4O d   1      21.667  11.383   9.584  0.00  0.00     0.083 H 
ATOM     37  C22 P4O d   1      20.095   8.392   9.311  0.00  0.00    -0.054 A 
ATOM     38  H4  P4O d   1      20.287  10.081   8.008  0.00  0.00     0.083 H 
ATOM     39  H5  P4O d   1      19.462   7.827   8.636  0.00  0.00     0.087 H 
ATOM     40  N16 P4O d   1      20.041   6.629  10.865  0.00  0.00    -0.259 NA
ATOM     41  C17 P4O d   1      20.361   6.055  12.027  0.00  0.00     0.015 A 
ATOM     42  H6  P4O d   1      20.023   5.045  12.230  0.00  0.00     0.116 H 
ENDBRANCH   1  27
TORSDOF 2
