REMARK  14 active torsions:
REMARK  status: ('A' for Active; 'I' for Inactive)
REMARK    1  A    between atoms: C17_13  and  O1_1 
REMARK    2  A    between atoms: C17_13  and  N2_2 
REMARK    3  A    between atoms: N2_2  and  C19_15 
REMARK    4  A    between atoms: O5_31  and  C3_3 
REMARK    5  A    between atoms: C25_20  and  O4_4 
REMARK    6  A    between atoms: O4_4  and  C2_24 
REMARK    7  A    between atoms: N3_26  and  C17_13 
REMARK    8  A    between atoms: C22_17  and  C18_14 
REMARK       I    between atoms: C18_14  and  N4_29 
REMARK    9  A    between atoms: N4_29  and  C20_16 
REMARK   10  A    between atoms: N5_30  and  C23_18 
REMARK   11  A    between atoms: C24_19  and  O3_27 
REMARK   12  A    between atoms: C26_21  and  O5_31 
REMARK   13  A    between atoms: O3_27  and  C1_22 
REMARK   14  A    between atoms: N3_26  and  C21_36 
ROOT
ATOM      1  C7  JK1 d   1       9.632  31.502  13.685  0.00  0.00    -0.080 A 
ATOM      2  C10 JK1 d   1       8.442  32.025  14.326  0.00  0.00    -0.068 A 
ATOM      3  C11 JK1 d   1      10.228  32.230  12.475  0.00  0.00    -0.056 A 
ATOM      4  C22 JK1 d   1       7.847  33.205  13.826  0.00  0.00     0.034 A 
ATOM      5  C23 JK1 d   1       9.613  33.379  12.034  0.00  0.00     0.058 A 
ATOM      6  C13 JK1 d   1       8.394  33.929  12.662  0.00  0.00    -0.040 A 
ATOM      7  H   JK1 d   1      10.102  30.594  14.062  0.00  0.00     0.083 H 
ATOM      8  H   JK1 d   1       8.010  31.513  15.186  0.00  0.00     0.085 H 
ATOM      9  H   JK1 d   1      11.118  31.847  11.976  0.00  0.00     0.087 H 
ATOM     10  H   JK1 d   1       7.918  34.833  12.281  0.00  0.00     0.088 H 
ENDROOT
BRANCH   5  11
ATOM     11  N5  JK1 d   1      10.151  34.107  10.922  0.00  0.00    -0.210 N 
ATOM     12  C16 JK1 d   1      11.518  34.028  10.497  0.00  0.00     0.051 C 
ATOM     13  C21 JK1 d   1      11.653  35.057   9.320  0.00  0.00     0.148 C 
ATOM     14  H   JK1 d   1      11.778  33.019  10.177  0.00  0.00     0.070 H 
ATOM     15  H   JK1 d   1      12.203  34.262  11.312  0.00  0.00     0.070 H 
ATOM     16  C12 JK1 d   1      10.276  35.758   9.272  0.00  0.00     0.130 C 
ATOM     17  H   JK1 d   1      11.801  34.695   8.303  0.00  0.00     0.089 H 
ATOM     18  N1  JK1 d   1       9.341  34.837   9.948  0.00  0.00     0.009 N 
ATOM     19  H   JK1 d   1      10.305  36.730   9.764  0.00  0.00     0.082 H 
ATOM     20  H   JK1 d   1       9.966  35.960   8.247  0.00  0.00     0.082 H 
ATOM     21  H   JK1 d   1       8.578  35.342  10.399  0.00  0.00     0.306 HD
ATOM     22  H   JK1 d   1       8.893  34.205   9.285  0.00  0.00     0.306 HD
BRANCH  13  23
ATOM     23  N3  JK1 d   1      12.884  35.787   9.512  0.00  0.00    -0.023 N 
ATOM     24  H   JK1 d   1      13.311  35.464   8.644  0.00  0.00     0.283 HD
ATOM     25  H   JK1 d   1      12.446  36.565  10.005  0.00  0.00     0.283 HD
BRANCH  23  26
ATOM     26  C17 JK1 d   1      14.134  35.873  10.237  0.00  0.00     0.261 C 
ATOM     27  H   JK1 d   1      14.069  36.402  11.188  0.00  0.00     0.165 H 
BRANCH  26  28
ATOM     28  O1  JK1 d   1      14.535  34.628  10.688  0.00  0.00    -0.354 OA
ATOM     29  H   JK1 d   1      13.825  34.229  11.196  0.00  0.00     0.214 HD
ENDBRANCH  26  28
BRANCH  26  30
ATOM     30  N2  JK1 d   1      15.036  36.677   9.442  0.00  0.00    -0.342 N 
ATOM     31  H   JK1 d   1      15.971  36.433   9.768  0.00  0.00     0.164 HD
BRANCH  30  32
ATOM     32  C19 JK1 d   1      15.238  37.657   8.410  0.00  0.00     0.031 A 
ATOM     33  C8  JK1 d   1      16.286  37.539   7.447  0.00  0.00    -0.057 A 
ATOM     34  C5  JK1 d   1      16.416  38.537   6.470  0.00  0.00    -0.081 A 
ATOM     35  H   JK1 d   1      16.971  36.691   7.471  0.00  0.00     0.086 H 
ATOM     36  C4  JK1 d   1      15.539  39.602   6.458  0.00  0.00    -0.083 A 
ATOM     37  H   JK1 d   1      17.207  38.471   5.723  0.00  0.00     0.083 H 
ATOM     38  C6  JK1 d   1      14.457  39.705   7.460  0.00  0.00    -0.081 A 
ATOM     39  H   JK1 d   1      15.645  40.378   5.700  0.00  0.00     0.083 H 
ATOM     40  C9  JK1 d   1      14.330  38.746   8.409  0.00  0.00    -0.057 A 
ATOM     41  H   JK1 d   1      13.765  40.547   7.436  0.00  0.00     0.083 H 
ATOM     42  H   JK1 d   1      13.542  38.811   9.160  0.00  0.00     0.086 H 
ENDBRANCH  30  32
ENDBRANCH  26  30
ENDBRANCH  23  26
ENDBRANCH  13  23
ENDBRANCH   5  11
BRANCH   4  43
ATOM     43  C18 JK1 d   1       6.621  33.868  14.455  0.00  0.00     0.256 C 
ATOM     44  O2  JK1 d   1       6.373  33.801  15.601  0.00  0.00    -0.267 OA
ATOM     45  N4  JK1 d   1       5.758  34.501  13.486  0.00  0.00    -0.323 N 
ATOM     46  H   JK1 d   1       5.912  34.335  12.491  0.00  0.00     0.169 HD
BRANCH  45  47
ATOM     47  C20 JK1 d   1       4.669  35.375  13.910  0.00  0.00     0.040 A 
ATOM     48  C15 JK1 d   1       3.467  35.508  13.102  0.00  0.00    -0.022 A 
ATOM     49  C25 JK1 d   1       2.428  36.485  13.532  0.00  0.00     0.106 A 
ATOM     50  H   JK1 d   1       3.330  34.907  12.203  0.00  0.00     0.091 H 
ATOM     51  C26 JK1 d   1       2.641  37.296  14.720  0.00  0.00     0.135 A 
ATOM     52  C24 JK1 d   1       3.828  37.162  15.478  0.00  0.00     0.106 A 
ATOM     53  C14 JK1 d   1       4.903  36.158  15.055  0.00  0.00    -0.022 A 
ATOM     54  H   JK1 d   1       5.825  36.053  15.626  0.00  0.00     0.091 H 
BRANCH  49  55
ATOM     55  O4  JK1 d   1       1.265  36.616  12.752  0.00  0.00    -0.353 OA
BRANCH  55  56
ATOM     56  C2  JK1 d   1       1.000  36.307  11.389  0.00  0.00     0.010 C 
ATOM     57  H   JK1 d   1       1.667  36.886  10.750  0.00  0.00     0.066 H 
ATOM     58  H   JK1 d   1       1.167  35.243  11.220  0.00  0.00     0.066 H 
ATOM     59  H   JK1 d   1      -0.035  36.556  11.156  0.00  0.00     0.066 H 
ENDBRANCH  55  56
ENDBRANCH  49  55
BRANCH  51  60
ATOM     60  O5  JK1 d   1       1.689  38.257  15.085  0.00  0.00    -0.351 OA
BRANCH  60  61
ATOM     61  C3  JK1 d   1       1.618  39.426  14.299  0.00  0.00     0.011 C 
ATOM     62  H   JK1 d   1       2.578  39.941  14.329  0.00  0.00     0.067 H 
ATOM     63  H   JK1 d   1       1.380  39.157  13.270  0.00  0.00     0.067 H 
ATOM     64  H   JK1 d   1       0.841  40.081  14.693  0.00  0.00     0.067 H 
ENDBRANCH  60  61
ENDBRANCH  51  60
BRANCH  52  65
ATOM     65  O3  JK1 d   1       4.069  37.935  16.609  0.00  0.00    -0.353 OA
BRANCH  65  66
ATOM     66  C1  JK1 d   1       5.142  37.590  17.452  0.00  0.00     0.010 C 
ATOM     67  H   JK1 d   1       4.991  36.581  17.835  0.00  0.00     0.066 H 
ATOM     68  H   JK1 d   1       6.074  37.630  16.887  0.00  0.00     0.066 H 
ATOM     69  H   JK1 d   1       5.189  38.293  18.284  0.00  0.00     0.066 H 
ENDBRANCH  65  66
ENDBRANCH  52  65
ENDBRANCH  45  47
ENDBRANCH   4  43
TORSDOF 14
