REMARK  11 active torsions:
REMARK  status: ('A' for Active; 'I' for Inactive)
REMARK    1  A    between atoms: C29_25  and  C18_5 
REMARK       I    between atoms: C18_5  and  N20_28 
REMARK    2  A    between atoms: C26_6  and  N21_17 
REMARK    3  A    between atoms: N20_28  and  C27_7 
REMARK    4  A    between atoms: N21_17  and  C31_8 
REMARK    5  A    between atoms: N37_20  and  C30_22 
REMARK    6  A    between atoms: C33_30  and  O24_31 
REMARK    7  A    between atoms: O24_31  and  C02_32 
REMARK    8  A    between atoms: C34_33  and  O25_34 
REMARK    9  A    between atoms: O25_34  and  C03_35 
REMARK   10  A    between atoms: C32_36  and  O23_37 
REMARK   11  A    between atoms: O23_37  and  C01_38 
ROOT
ATOM      1  C16 JK2 d   1     -33.309 -34.027 -12.532  0.00  0.00    -0.040 A 
ATOM      2  C30 JK2 d   1     -32.068 -33.572 -11.842  0.00  0.00     0.060 A 
ATOM      3  C09 JK2 d   1     -31.415 -32.464 -12.279  0.00  0.00    -0.055 A 
ATOM      4  C06 JK2 d   1     -31.937 -31.716 -13.366  0.00  0.00    -0.080 A 
ATOM      5  C29 JK2 d   1     -33.807 -33.289 -13.569  0.00  0.00     0.034 A 
ATOM      6  C08 JK2 d   1     -33.151 -32.133 -14.023  0.00  0.00    -0.068 A 
ATOM      7  H   JK2 d   1     -33.814 -34.939 -12.213  0.00  0.00     0.088 H 
ATOM      8  H   JK2 d   1     -30.490 -32.150 -11.795  0.00  0.00     0.087 H 
ATOM      9  H   JK2 d   1     -31.417 -30.821 -13.707  0.00  0.00     0.083 H 
ATOM     10  H   JK2 d   1     -33.553 -31.560 -14.859  0.00  0.00     0.085 H 
ENDROOT
BRANCH   5  11
ATOM     11  C18 JK2 d   1     -35.051 -33.838 -14.233  0.00  0.00     0.256 C 
ATOM     12  O22 JK2 d   1     -35.127 -33.932 -15.405  0.00  0.00    -0.267 OA
ATOM     13  N20 JK2 d   1     -36.053 -34.000 -13.341  0.00  0.00    -0.323 N 
ATOM     14  H   JK2 d   1     -36.160 -33.433 -12.500  0.00  0.00     0.169 HD
BRANCH  13  15
ATOM     15  C27 JK2 d   1     -37.116 -35.254 -13.775  0.00  0.00     0.040 A 
ATOM     16  C14 JK2 d   1     -36.861 -36.111 -14.963  0.00  0.00    -0.022 A 
ATOM     17  C32 JK2 d   1     -37.777 -37.060 -15.333  0.00  0.00     0.106 A 
ATOM     18  H   JK2 d   1     -35.945 -35.984 -15.540  0.00  0.00     0.091 H 
ATOM     19  C34 JK2 d   1     -38.954 -37.232 -14.580  0.00  0.00     0.135 A 
ATOM     20  C33 JK2 d   1     -39.192 -36.413 -13.416  0.00  0.00     0.106 A 
ATOM     21  C15 JK2 d   1     -38.240 -35.440 -13.021  0.00  0.00    -0.022 A 
ATOM     22  H   JK2 d   1     -38.403 -34.845 -12.123  0.00  0.00     0.091 H 
BRANCH  17  23
ATOM     23  O23 JK2 d   1     -37.547 -37.843 -16.463  0.00  0.00    -0.353 OA
BRANCH  23  24
ATOM     24  C01 JK2 d   1     -38.435 -37.762 -17.538  0.00  0.00     0.010 C 
ATOM     25  H   JK2 d   1     -39.433 -38.049 -17.206  0.00  0.00     0.066 H 
ATOM     26  H   JK2 d   1     -38.456 -36.739 -17.914  0.00  0.00     0.066 H 
ATOM     27  H   JK2 d   1     -38.107 -38.435 -18.330  0.00  0.00     0.066 H 
ENDBRANCH  23  24
ENDBRANCH  17  23
BRANCH  19  28
ATOM     28  O25 JK2 d   1     -39.868 -38.216 -14.943  0.00  0.00    -0.351 OA
BRANCH  28  29
ATOM     29  C03 JK2 d   1     -39.745 -39.479 -14.356  0.00  0.00     0.011 C 
ATOM     30  H   JK2 d   1     -38.768 -39.897 -14.598  0.00  0.00     0.067 H 
ATOM     31  H   JK2 d   1     -39.844 -39.387 -13.274  0.00  0.00     0.067 H 
ATOM     32  H   JK2 d   1     -40.528 -40.134 -14.739  0.00  0.00     0.067 H 
ENDBRANCH  28  29
ENDBRANCH  19  28
BRANCH  20  33
ATOM     33  O24 JK2 d   1     -40.347 -36.594 -12.654  0.00  0.00    -0.353 OA
BRANCH  33  34
ATOM     34  C02 JK2 d   1     -40.290 -36.252 -11.299  0.00  0.00     0.010 C 
ATOM     35  H   JK2 d   1     -39.524 -36.850 -10.806  0.00  0.00     0.066 H 
ATOM     36  H   JK2 d   1     -40.044 -35.194 -11.203  0.00  0.00     0.066 H 
ATOM     37  H   JK2 d   1     -41.258 -36.446 -10.836  0.00  0.00     0.066 H 
ENDBRANCH  33  34
ENDBRANCH  20  33
ENDBRANCH  13  15
ENDBRANCH   5  11
BRANCH   2  38
ATOM     38  N37 JK2 d   1     -31.510 -34.353 -10.761  0.00  0.00    -0.234 N 
ATOM     39  C36 JK2 d   1     -30.227 -34.716 -10.687  0.00  0.00     0.070 A 
ATOM     40  C12 JK2 d   1     -29.109 -34.450 -11.534  0.00  0.00    -0.052 A 
ATOM     41  C35 JK2 d   1     -30.092 -35.487  -9.542  0.00  0.00     0.014 A 
ATOM     42  C11 JK2 d   1     -27.889 -34.957 -11.235  0.00  0.00    -0.055 A 
ATOM     43  H   JK2 d   1     -29.238 -33.836 -12.425  0.00  0.00     0.087 H 
ATOM     44  C26 JK2 d   1     -27.763 -35.756 -10.017  0.00  0.00     0.033 A 
ATOM     45  H   JK2 d   1     -27.030 -34.775 -11.881  0.00  0.00     0.087 H 
ATOM     46  C17 JK2 d   1     -28.827 -36.006  -9.215  0.00  0.00    -0.044 A 
ATOM     47  H   JK2 d   1     -28.702 -36.610  -8.316  0.00  0.00     0.088 H 
ATOM     48  C13 JK2 d   1     -31.293 -35.583  -8.932  0.00  0.00     0.034 A 
ATOM     49  N19 JK2 d   1     -32.190 -34.875  -9.682  0.00  0.00    -0.178 NA
ATOM     50  H   JK2 d   1     -31.508 -36.125  -8.011  0.00  0.00     0.118 H 
BRANCH  44  51
ATOM     51  N21 JK2 d   1     -26.576 -36.409  -9.535  0.00  0.00    -0.354 N 
ATOM     52  H   JK2 d   1     -25.742 -36.021  -9.976  0.00  0.00     0.166 HD
BRANCH  51  53
ATOM     53  C31 JK2 d   1     -26.230 -37.453  -8.609  0.00  0.00     0.071 A 
ATOM     54  C28 JK2 d   1     -25.133 -37.299  -7.643  0.00  0.00     0.142 A 
ATOM     55  F38 JK2 d   1     -24.298 -36.222  -7.708  0.00  0.00    -0.204 F 
ATOM     56  C07 JK2 d   1     -24.951 -38.256  -6.701  0.00  0.00    -0.043 A 
ATOM     57  C04 JK2 d   1     -25.827 -39.359  -6.654  0.00  0.00    -0.080 A 
ATOM     58  H   JK2 d   1     -24.133 -38.173  -5.985  0.00  0.00     0.088 H 
ATOM     59  C05 JK2 d   1     -26.914 -39.495  -7.568  0.00  0.00    -0.081 A 
ATOM     60  H   JK2 d   1     -25.670 -40.129  -5.899  0.00  0.00     0.083 H 
ATOM     61  C10 JK2 d   1     -27.103 -38.516  -8.550  0.00  0.00    -0.054 A 
ATOM     62  H   JK2 d   1     -27.588 -40.349  -7.502  0.00  0.00     0.083 H 
ATOM     63  H   JK2 d   1     -27.929 -38.594  -9.257  0.00  0.00     0.087 H 
ENDBRANCH  51  53
ENDBRANCH  44  51
ENDBRANCH   2  38
TORSDOF 11
