REMARK  4 active torsions:
REMARK  status: ('A' for Active; 'I' for Inactive)
REMARK    1  A    between atoms: C1_1  and  P1_8 
REMARK    2  A    between atoms: N1_10  and  C1_1 
REMARK    3  A    between atoms: C2_2  and  C3_3 
REMARK    4  A    between atoms: C2_2  and  N1_10 
ROOT
ATOM      1  N1  GPF d   1      60.113   8.587  29.441  0.00  0.00    -0.053 N 
ATOM      2  H5  GPF d   1      59.611   9.460  29.410  0.00  0.00     0.278 HD
ATOM      3  H6  GPF d   1      61.104   8.768  29.403  0.00  0.00     0.278 HD
ENDROOT
BRANCH   1   4
ATOM      4  C1  GPF d   1      59.770   7.861  28.230  0.00  0.00     0.183 C 
ATOM      5  H1  GPF d   1      60.325   6.912  28.212  0.00  0.00     0.097 H 
ATOM      6  H2  GPF d   1      58.690   7.654  28.230  0.00  0.00     0.097 H 
BRANCH   4   7
ATOM      7  P1  GPF d   1      60.169   8.776  26.816  0.00  0.00     0.285 P 
ATOM      8  O1  GPF d   1      60.212  10.218  27.192  0.00  0.00    -0.638 OA
ATOM      9  O2  GPF d   1      59.084   8.403  25.856  0.00  0.00    -0.638 OA
ATOM     10  O3  GPF d   1      61.547   8.334  26.353  0.00  0.00    -0.638 OA
ENDBRANCH   4   7
ENDBRANCH   1   4
BRANCH   1  11
ATOM     11  C2  GPF d   1      59.843   7.990  30.741  0.00  0.00     0.161 C 
ATOM     12  H3  GPF d   1      58.756   7.898  30.880  0.00  0.00     0.092 H 
ATOM     13  H4  GPF d   1      60.304   6.992  30.786  0.00  0.00     0.092 H 
BRANCH  11  14
ATOM     14  C3  GPF d   1      60.419   8.860  31.848  0.00  0.00     0.199 C 
ATOM     15  O4  GPF d   1      61.010   9.952  31.529  0.00  0.00    -0.647 OA
ATOM     16  O5  GPF d   1      60.276   8.452  33.002  0.00  0.00    -0.647 OA
ENDBRANCH  11  14
ENDBRANCH   1  11
TORSDOF 4
