REMARK  6 active torsions:
REMARK  status: ('A' for Active; 'I' for Inactive)
REMARK    1  A    between atoms: C2_2  and  N1_21 
REMARK    2  A    between atoms: N2_23  and  C7_4 
REMARK    3  A    between atoms: C7_4  and  C5_28 
REMARK    4  A    between atoms: C8_5  and  C9_6 
REMARK       I    between atoms: N1_21  and  C8_5 
REMARK    5  A    between atoms: N5_29  and  C21_16 
REMARK    6  A    between atoms: C25_34  and  N5_29 
ROOT
ATOM      1  C10 SII d   1      31.578  39.848  -2.225  0.00  0.00    -0.020 A 
ATOM      2  C11 SII d   1      30.473  40.319  -1.508  0.00  0.00     0.043 A 
ATOM      3  C12 SII d   1      30.277  41.692  -1.313  0.00  0.00    -0.057 A 
ATOM      4  C13 SII d   1      31.174  42.642  -1.801  0.00  0.00    -0.078 A 
ATOM      5  C14 SII d   1      32.283  42.186  -2.506  0.00  0.00    -0.046 A 
ATOM      6  C15 SII d   1      32.461  40.816  -2.700  0.00  0.00     0.118 A 
ATOM      7  C16 SII d   1      29.167  39.734   1.399  0.00  0.00    -0.011 C 
ATOM      8  C19 SII d   1      31.909  38.413   1.106  0.00  0.00     0.086 C 
ATOM      9  C20 SII d   1      30.472  40.269   2.024  0.00  0.00     0.086 C 
ATOM     10  C21 SII d   1      28.214  37.918  -0.062  0.00  0.00     0.135 C 
ATOM     11  C22 SII d   1      28.577  38.967  -1.874  0.00  0.00     0.351 C 
ATOM     12  F1  SII d   1      33.498  40.346  -3.367  0.00  0.00    -0.206 F 
ATOM     13  N2  SII d   1      31.640  39.329   2.238  0.00  0.00    -0.067 N 
ATOM     14  O2  SII d   1      28.445  39.248  -3.063  0.00  0.00    -0.244 OA
ATOM     15  N3  SII d   1      29.593  39.400  -1.062  0.00  0.00    -0.281 N 
ATOM     16  N4  SII d   1      27.693  38.197  -1.216  0.00  0.00    -0.178 NA
ATOM     17  C17 SII d   1      29.457  38.755   0.245  0.00  0.00     0.105 C 
ATOM     18  C18 SII d   1      30.600  37.776   0.620  0.00  0.00    -0.011 C 
ATOM     19  H8  SII d   1      31.738  38.791  -2.401  0.00  0.00     0.091 H 
ATOM     20  H9  SII d   1      29.402  42.026  -0.767  0.00  0.00     0.086 H 
ATOM     21  H10 SII d   1      31.012  43.701  -1.636  0.00  0.00     0.083 H 
ATOM     22  H11 SII d   1      33.005  42.891  -2.902  0.00  0.00     0.088 H 
ATOM     23  H12 SII d   1      28.582  40.581   1.011  0.00  0.00     0.039 H 
ATOM     24  H13 SII d   1      28.587  39.212   2.174  0.00  0.00     0.039 H 
ATOM     25  H14 SII d   1      32.599  37.621   1.435  0.00  0.00     0.076 H 
ATOM     26  H15 SII d   1      32.366  38.979   0.281  0.00  0.00     0.076 H 
ATOM     27  H16 SII d   1      30.209  40.681   3.010  0.00  0.00     0.076 H 
ATOM     28  H17 SII d   1      30.830  41.079   1.372  0.00  0.00     0.076 H 
ATOM     29  H23 SII d   1      31.351  38.722   2.989  0.00  0.00     0.280 HD
ATOM     30  H27 SII d   1      30.229  37.119   1.421  0.00  0.00     0.039 H 
ATOM     31  H28 SII d   1      30.831  37.174  -0.271  0.00  0.00     0.039 H 
ENDROOT
BRANCH  10  32
ATOM     32  N5  SII d   1      27.454  37.175   0.948  0.00  0.00    -0.371 N 
ATOM     33  H25 SII d   1      27.629  37.569   1.883  0.00  0.00     0.161 HD
BRANCH  32  34
ATOM     34  C25 SII d   1      26.527  36.052   1.044  0.00  0.00     0.011 C 
ATOM     35  C24 SII d   1      26.276  35.026  -0.055  0.00  0.00    -0.046 C 
ATOM     36  C23 SII d   1      25.378  33.898   0.463  0.00  0.00    -0.063 C 
ATOM     37  H18 SII d   1      25.784  35.520  -0.906  0.00  0.00     0.035 H 
ATOM     38  H19 SII d   1      27.237  34.603  -0.382  0.00  0.00     0.035 H 
ATOM     39  C28 SII d   1      24.050  34.391   1.052  0.00  0.00    -0.065 C 
ATOM     40  H29 SII d   1      25.924  33.351   1.246  0.00  0.00     0.033 H 
ATOM     41  H30 SII d   1      25.157  33.218  -0.373  0.00  0.00     0.033 H 
ATOM     42  C27 SII d   1      24.065  35.683   1.875  0.00  0.00    -0.063 C 
ATOM     43  H34 SII d   1      23.357  34.546   0.212  0.00  0.00     0.033 H 
ATOM     44  H35 SII d   1      23.664  33.593   1.703  0.00  0.00     0.033 H 
ATOM     45  C26 SII d   1      25.226  36.653   1.575  0.00  0.00    -0.046 C 
ATOM     46  H20 SII d   1      23.122  36.216   1.685  0.00  0.00     0.033 H 
ATOM     47  H21 SII d   1      24.122  35.406   2.938  0.00  0.00     0.033 H 
ATOM     48  H32 SII d   1      25.464  37.181   2.510  0.00  0.00     0.035 H 
ATOM     49  H33 SII d   1      24.867  37.375   0.827  0.00  0.00     0.035 H 
ATOM     50  H31 SII d   1      26.942  35.437   1.856  0.00  0.00     0.072 H 
ENDBRANCH  32  34
ENDBRANCH  10  32
BRANCH  13  51
ATOM     51  C7  SII d   1      32.866  40.055   2.771  0.00  0.00     0.107 C 
ATOM     52  H3  SII d   1      33.653  39.309   2.957  0.00  0.00     0.083 H 
ATOM     53  H4  SII d   1      32.591  40.542   3.718  0.00  0.00     0.083 H 
BRANCH  51  54
ATOM     54  C5  SII d   1      33.428  41.112   1.843  0.00  0.00    -0.032 A 
ATOM     55  C4  SII d   1      33.013  42.452   1.973  0.00  0.00    -0.073 A 
ATOM     56  C3  SII d   1      33.525  43.402   1.074  0.00  0.00    -0.057 A 
ATOM     57  H24 SII d   1      32.315  42.743   2.749  0.00  0.00     0.084 H 
ATOM     58  C2  SII d   1      34.426  42.958   0.091  0.00  0.00     0.034 A 
ATOM     59  H2  SII d   1      33.234  44.444   1.136  0.00  0.00     0.086 H 
ATOM     60  C1  SII d   1      34.835  41.621  -0.040  0.00  0.00    -0.057 A 
ATOM     61  C6  SII d   1      34.322  40.682   0.864  0.00  0.00    -0.073 A 
ATOM     62  H1  SII d   1      35.528  41.324  -0.819  0.00  0.00     0.086 H 
ATOM     63  H26 SII d   1      34.615  39.640   0.803  0.00  0.00     0.084 H 
BRANCH  58  64
ATOM     64  N1  SII d   1      34.968  43.771  -0.835  0.00  0.00    -0.328 N 
ATOM     65  C8  SII d   1      34.292  44.916  -1.470  0.00  0.00     0.218 C 
ATOM     66  O1  SII d   1      33.284  45.421  -1.009  0.00  0.00    -0.274 OA
ATOM     67  H22 SII d   1      35.909  43.582  -1.116  0.00  0.00     0.169 HD
BRANCH  65  68
ATOM     68  C9  SII d   1      34.891  45.496  -2.738  0.00  0.00    -0.003 C 
ATOM     69  H5  SII d   1      34.273  46.338  -3.083  0.00  0.00     0.040 H 
ATOM     70  H6  SII d   1      34.922  44.720  -3.517  0.00  0.00     0.040 H 
ATOM     71  H7  SII d   1      35.912  45.850  -2.533  0.00  0.00     0.040 H 
ENDBRANCH  65  68
ENDBRANCH  58  64
ENDBRANCH  51  54
ENDBRANCH  13  51
TORSDOF 6
