REMARK  3 active torsions:
REMARK  status: ('A' for Active; 'I' for Inactive)
REMARK    1  A    between atoms: B_1  and  O1_2 
REMARK    2  A    between atoms: B_1  and  O2_3 
REMARK    3  A    between atoms: B_1  and  C1_4 
ROOT
ATOM      1  C1  BZB d   1      25.595   5.687  15.319  0.00  0.00     0.010 A 
ATOM      2  C2  BZB d   1      25.194   7.020  15.523  0.00  0.00    -0.064 A 
ATOM      3  C8  BZB d   1      24.631   6.483  13.185  0.00  0.00     0.014 A 
ATOM      4  C3  BZB d   1      24.627   7.498  14.270  0.00  0.00    -0.019 A 
ATOM      5  C7  BZB d   1      24.125   6.773  11.920  0.00  0.00    -0.066 A 
ATOM      6  S   BZB d   1      25.309   5.028  13.730  0.00  0.00    -0.101 SA
ATOM      7  C4  BZB d   1      24.111   8.768  13.992  0.00  0.00    -0.072 A 
ATOM      8  C6  BZB d   1      23.611   8.061  11.699  0.00  0.00    -0.082 A 
ATOM      9  C5  BZB d   1      23.608   9.040  12.710  0.00  0.00    -0.082 A 
ATOM     10  H6  BZB d   1      25.290   7.589  16.447  0.00  0.00     0.085 H 
ATOM     11  H7  BZB d   1      24.128   6.029  11.132  0.00  0.00     0.085 H 
ATOM     12  H8  BZB d   1      24.100   9.534  14.759  0.00  0.00     0.084 H 
ATOM     13  H9  BZB d   1      23.206   8.308  10.724  0.00  0.00     0.083 H 
ATOM     14  H10 BZB d   1      23.209  10.024  12.494  0.00  0.00     0.083 H 
ENDROOT
BRANCH   1  15
ATOM     15  B   BZB d   1      26.224   4.829  16.441  0.00  0.00     0.536 B 
BRANCH  15  16
ATOM     16  O1  BZB d   1      26.452   5.700  17.617  0.00  0.00    -0.433 OA
ATOM     17  H1  BZB d   1      27.091   6.367  17.396  0.00  0.00     0.185 HD
ENDBRANCH  15  16
BRANCH  15  18
ATOM     18  O2  BZB d   1      25.220   3.753  16.735  0.00  0.00    -0.433 OA
ATOM     19  H4  BZB d   1      25.099   3.215  15.962  0.00  0.00     0.185 HD
ENDBRANCH  15  18
ENDBRANCH   1  15
TORSDOF 3
