REMARK  12 active torsions:
REMARK  status: ('A' for Active; 'I' for Inactive)
REMARK    1  A    between atoms: C03_3  and  C04_4 
REMARK    2  A    between atoms: C04_4  and  C05_5 
REMARK    3  A    between atoms: C07_7  and  O08_8 
REMARK    4  A    between atoms: O08_8  and  C09_9 
REMARK    5  A    between atoms: C10_10  and  O11_11 
REMARK    6  A    between atoms: O11_11  and  C12_12 
REMARK    7  A    between atoms: C13_13  and  C14_14 
REMARK    8  A    between atoms: C15_15  and  C16_16 
REMARK       I    between atoms: C16_16  and  N17_17 
REMARK    9  A    between atoms: C20_20  and  C21_21 
REMARK   10  A    between atoms: C21_21  and  C22_22 
REMARK   11  A    between atoms: C22_22  and  C23_23 
REMARK   12  A    between atoms: C34_34  and  N35_35 
ROOT
ATOM      1  C05 RAR d   1      16.970 -28.624  -3.292  0.00  0.00    -0.047 A 
ATOM      2  C06 RAR d   1      16.265 -27.486  -2.525  0.00  0.00    -0.035 A 
ATOM      3  C07 RAR d   1      17.023 -26.713  -1.479  0.00  0.00     0.064 A 
ATOM      4  C10 RAR d   1      18.486 -27.061  -1.189  0.00  0.00     0.069 A 
ATOM      5  C13 RAR d   1      19.221 -28.202  -1.939  0.00  0.00    -0.010 A 
ATOM      6  C31 RAR d   1      18.436 -28.978  -2.993  0.00  0.00    -0.053 A 
ATOM      7  H5  RAR d   1      17.290 -27.925  -4.079  0.00  0.00     0.040 H 
ATOM      8  H6  RAR d   1      15.393 -27.931  -2.024  0.00  0.00     0.037 H 
ATOM      9  H7  RAR d   1      15.924 -26.758  -3.276  0.00  0.00     0.037 H 
ATOM     10  H8  RAR d   1      16.709 -27.425  -0.702  0.00  0.00     0.087 H 
ATOM     11  H12 RAR d   1      18.830 -26.343  -1.948  0.00  0.00     0.088 H 
ATOM     12  H16 RAR d   1      19.557 -27.480  -2.698  0.00  0.00     0.050 H 
ATOM     13  H35 RAR d   1      18.986 -28.869  -3.939  0.00  0.00     0.034 H 
ATOM     14  H36 RAR d   1      18.448 -30.033  -2.682  0.00  0.00     0.034 H 
ENDROOT
BRANCH   5  15
ATOM     15  C14 RAR d   1      20.680 -28.592  -1.681  0.00  0.00    -0.091 C 
ATOM     16  C15 RAR d   1      21.531 -27.832  -1.051  0.00  0.00    -0.019 C 
ATOM     17  H18 RAR d   1      21.227 -26.825  -0.768  0.00  0.00     0.091 H 
ATOM     18  H17 RAR d   1      21.026 -29.559  -2.045  0.00  0.00     0.077 H 
BRANCH  16  19
ATOM     19  C16 RAR d   1      22.926 -28.298  -0.699  0.00  0.00     0.267 C 
ATOM     20  N17 RAR d   1      23.529 -29.320  -1.478  0.00  0.00    -0.167 N 
ATOM     21  N18 RAR d   1      22.692 -29.872  -2.501  0.00  0.00     0.014 N 
ATOM     22  C20 RAR d   1      24.929 -29.790  -1.314  0.00  0.00     0.069 C 
ATOM     23  C19 RAR d   1      23.187 -30.975  -3.222  0.00  0.00     0.127 C 
ATOM     24  H19 RAR d   1      22.503 -29.138  -3.165  0.00  0.00     0.306 HD
ATOM     25  H20 RAR d   1      21.831 -30.160  -2.064  0.00  0.00     0.306 HD
ATOM     26  C25 RAR d   1      24.570 -30.726  -3.691  0.00  0.00    -0.022 A 
ATOM     27  H21 RAR d   1      22.539 -31.156  -4.092  0.00  0.00     0.086 H 
ATOM     28  H22 RAR d   1      23.182 -31.862  -2.571  0.00  0.00     0.086 H 
ATOM     29  C24 RAR d   1      25.489 -30.104  -2.745  0.00  0.00    -0.025 A 
ATOM     30  C26 RAR d   1      25.031 -31.064  -5.112  0.00  0.00    -0.075 A 
ATOM     31  C29 RAR d   1      26.942 -29.769  -3.078  0.00  0.00    -0.074 A 
ATOM     32  C28 RAR d   1      27.382 -30.112  -4.457  0.00  0.00    -0.082 A 
ATOM     33  H34 RAR d   1      27.609 -29.311  -2.356  0.00  0.00     0.084 H 
ATOM     34  C27 RAR d   1      26.458 -30.734  -5.439  0.00  0.00    -0.082 A 
ATOM     35  H33 RAR d   1      28.404 -29.902  -4.753  0.00  0.00     0.083 H 
ATOM     36  H32 RAR d   1      26.829 -30.959  -6.432  0.00  0.00     0.083 H 
ATOM     37  H31 RAR d   1      24.365 -31.515  -5.839  0.00  0.00     0.084 H 
ATOM     38  H23 RAR d   1      25.513 -29.045  -0.755  0.00  0.00     0.083 H 
ATOM     39  O30 RAR d   1      23.517 -27.801   0.164  0.00  0.00    -0.267 OA
BRANCH  22  40
ATOM     40  C21 RAR d   1      25.122 -31.263  -0.736  0.00  0.00    -0.040 C 
ATOM     41  H24 RAR d   1      25.477 -31.931  -1.534  0.00  0.00     0.036 H 
ATOM     42  H25 RAR d   1      24.164 -31.636  -0.345  0.00  0.00     0.036 H 
BRANCH  40  43
ATOM     43  C22 RAR d   1      26.141 -31.213   0.376  0.00  0.00    -0.066 C 
ATOM     44  H26 RAR d   1      27.146 -31.073  -0.049  0.00  0.00     0.032 H 
ATOM     45  H27 RAR d   1      26.112 -32.153   0.947  0.00  0.00     0.032 H 
BRANCH  43  46
ATOM     46  C23 RAR d   1      25.807 -30.046   1.295  0.00  0.00    -0.076 C 
ATOM     47  H28 RAR d   1      26.544 -29.999   2.111  0.00  0.00     0.027 H 
ATOM     48  H29 RAR d   1      24.801 -30.188   1.717  0.00  0.00     0.027 H 
ATOM     49  H30 RAR d   1      25.835 -29.108   0.721  0.00  0.00     0.027 H 
ENDBRANCH  43  46
ENDBRANCH  40  43
ENDBRANCH  22  40
ENDBRANCH  16  19
ENDBRANCH   5  15
BRANCH   4  50
ATOM     50  O11 RAR d   1      19.090 -26.336  -0.193  0.00  0.00    -0.387 OA
BRANCH  50  51
ATOM     51  C12 RAR d   1      18.633 -26.547   1.153  0.00  0.00     0.005 C 
ATOM     52  H13 RAR d   1      19.203 -25.903   1.839  0.00  0.00     0.066 H 
ATOM     53  H14 RAR d   1      18.782 -27.601   1.430  0.00  0.00     0.066 H 
ATOM     54  H15 RAR d   1      17.564 -26.298   1.220  0.00  0.00     0.066 H 
ENDBRANCH  50  51
ENDBRANCH   4  50
BRANCH   3  55
ATOM     55  O08 RAR d   1      16.342 -25.703  -0.831  0.00  0.00    -0.388 OA
BRANCH  55  56
ATOM     56  C09 RAR d   1      15.078 -25.489  -1.301  0.00  0.00     0.005 C 
ATOM     57  H9  RAR d   1      14.609 -24.672  -0.733  0.00  0.00     0.066 H 
ATOM     58  H10 RAR d   1      14.483 -26.407  -1.183  0.00  0.00     0.066 H 
ATOM     59  H11 RAR d   1      15.124 -25.216  -2.365  0.00  0.00     0.066 H 
ENDBRANCH  55  56
ENDBRANCH   3  55
BRANCH   1  60
ATOM     60  C04 RAR d   1      16.162 -29.416  -4.289  0.00  0.00    -0.033 C 
ATOM     61  H3  RAR d   1      15.112 -29.093  -4.232  0.00  0.00     0.041 H 
ATOM     62  H4  RAR d   1      16.552 -29.220  -5.299  0.00  0.00     0.041 H 
BRANCH  60  63
ATOM     63  C03 RAR d   1      16.233 -30.906  -4.016  0.00  0.00     0.006 A 
ATOM     64  C02 RAR d   1      15.854 -31.866  -5.094  0.00  0.00     0.148 A 
ATOM     65  N01 RAR d   1      15.397 -31.343  -6.269  0.00  0.00    -0.383 N 
ATOM     66  N36 RAR d   1      15.923 -33.289  -4.957  0.00  0.00    -0.045 NA
ATOM     67  H1  RAR d   1      15.124 -31.969  -7.040  0.00  0.00     0.157 HD
ATOM     68  H2  RAR d   1      15.325 -30.322  -6.385  0.00  0.00     0.157 HD
ATOM     69  C34 RAR d   1      16.377 -33.833  -3.706  0.00  0.00     0.721 A 
ATOM     70  N33 RAR d   1      16.761 -32.871  -2.623  0.00  0.00    -0.075 NA
ATOM     71  C32 RAR d   1      16.703 -31.468  -2.743  0.00  0.00     0.031 A 
ATOM     72  H37 RAR d   1      16.996 -30.824  -1.922  0.00  0.00     0.116 H 
BRANCH  69  73
ATOM     73  N35 RAR d   1      16.504 -35.209  -3.520  0.00  0.00    -0.231 N 
ATOM     74  H38 RAR d   1      16.831 -35.578  -2.616  0.00  0.00     0.174 HD
ATOM     75  H39 RAR d   1      16.271 -35.856  -4.287  0.00  0.00     0.174 HD
ENDBRANCH  69  73
ENDBRANCH  60  63
ENDBRANCH   1  60
TORSDOF 12
