REMARK  10 active torsions:
REMARK  status: ('A' for Active; 'I' for Inactive)
REMARK    1  A    between atoms: C3_3  and  N4_4 
REMARK    2  A    between atoms: C6_6  and  N7_7 
REMARK    3  A    between atoms: C8_8  and  C9_9 
REMARK    4  A    between atoms: C9_9  and  C10_10 
REMARK    5  A    between atoms: C12_12  and  O13_13 
REMARK    6  A    between atoms: O13_13  and  C14_14 
REMARK    7  A    between atoms: C15_15  and  O16_16 
REMARK    8  A    between atoms: O16_16  and  C17_17 
REMARK    9  A    between atoms: C18_18  and  O19_19 
REMARK   10  A    between atoms: O19_19  and  C20_20 
ROOT
ATOM      1  C10 TOP d   1      18.423   7.963  38.304  0.00  0.00    -0.048 A 
ATOM      2  C11 TOP d   1      19.058   7.038  39.123  0.00  0.00    -0.042 A 
ATOM      3  C12 TOP d   1      18.381   6.435  40.179  0.00  0.00     0.104 A 
ATOM      4  C15 TOP d   1      17.038   6.762  40.428  0.00  0.00     0.135 A 
ATOM      5  C18 TOP d   1      16.395   7.701  39.605  0.00  0.00     0.104 A 
ATOM      6  C21 TOP d   1      17.092   8.279  38.549  0.00  0.00    -0.042 A 
ATOM      7  H8  TOP d   1      20.095   6.782  38.937  0.00  0.00     0.088 H 
ATOM      8  H18 TOP d   1      16.587   8.990  37.905  0.00  0.00     0.088 H 
ENDROOT
BRANCH   1   9
ATOM      9  C9  TOP d   1      19.198   8.608  37.141  0.00  0.00    -0.012 C 
ATOM     10  H6  TOP d   1      20.203   8.163  37.093  0.00  0.00     0.047 H 
ATOM     11  H7  TOP d   1      18.663   8.406  36.202  0.00  0.00     0.047 H 
BRANCH   9  12
ATOM     12  C8  TOP d   1      19.335  10.129  37.319  0.00  0.00     0.010 A 
ATOM     13  C1  TOP d   1      18.377  10.800  38.065  0.00  0.00     0.031 A 
ATOM     14  N2  TOP d   1      18.450  12.104  38.242  0.00  0.00    -0.075 NA
ATOM     15  H1  TOP d   1      17.558  10.245  38.508  0.00  0.00     0.116 H 
ATOM     16  C3  TOP d   1      19.443  12.820  37.708  0.00  0.00     0.721 A 
ATOM     17  N5  TOP d   1      20.393  12.221  36.976  0.00  0.00    -0.045 NA
ATOM     18  C6  TOP d   1      20.360  10.895  36.771  0.00  0.00     0.148 A 
BRANCH  16  19
ATOM     19  N4  TOP d   1      19.479  14.133  37.909  0.00  0.00    -0.231 N 
ATOM     20  H2  TOP d   1      18.747  14.588  38.472  0.00  0.00     0.174 HD
ATOM     21  H3  TOP d   1      20.239  14.696  37.502  0.00  0.00     0.174 HD
ENDBRANCH  16  19
BRANCH  18  22
ATOM     22  N7  TOP d   1      21.314  10.324  36.044  0.00  0.00    -0.383 N 
ATOM     23  H4  TOP d   1      21.298   9.307  35.881  0.00  0.00     0.157 HD
ATOM     24  H5  TOP d   1      22.070  10.898  35.644  0.00  0.00     0.157 HD
ENDBRANCH  18  22
ENDBRANCH   9  12
ENDBRANCH   1   9
BRANCH   3  25
ATOM     25  O13 TOP d   1      19.068   5.538  40.951  0.00  0.00    -0.353 OA
BRANCH  25  26
ATOM     26  C14 TOP d   1      20.070   4.861  40.179  0.00  0.00     0.010 C 
ATOM     27  H9  TOP d   1      20.607   4.147  40.821  0.00  0.00     0.066 H 
ATOM     28  H10 TOP d   1      20.781   5.597  39.775  0.00  0.00     0.066 H 
ATOM     29  H11 TOP d   1      19.591   4.320  39.350  0.00  0.00     0.066 H 
ENDBRANCH  25  26
ENDBRANCH   3  25
BRANCH   5  30
ATOM     30  O19 TOP d   1      15.086   8.085  39.753  0.00  0.00    -0.353 OA
BRANCH  30  31
ATOM     31  C20 TOP d   1      14.160   7.068  40.159  0.00  0.00     0.010 C 
ATOM     32  H15 TOP d   1      13.152   7.501  40.241  0.00  0.00     0.066 H 
ATOM     33  H16 TOP d   1      14.465   6.663  41.135  0.00  0.00     0.066 H 
ATOM     34  H17 TOP d   1      14.152   6.260  39.413  0.00  0.00     0.066 H 
ENDBRANCH  30  31
ENDBRANCH   5  30
BRANCH   4  35
ATOM     35  O16 TOP d   1      16.353   6.195  41.467  0.00  0.00    -0.351 OA
BRANCH  35  36
ATOM     36  C17 TOP d   1      16.750   4.879  41.842  0.00  0.00     0.011 C 
ATOM     37  H12 TOP d   1      16.130   4.534  42.682  0.00  0.00     0.067 H 
ATOM     38  H13 TOP d   1      17.807   4.888  42.146  0.00  0.00     0.067 H 
ATOM     39  H14 TOP d   1      16.620   4.199  40.987  0.00  0.00     0.067 H 
ENDBRANCH  35  36
ENDBRANCH   4  35
TORSDOF 10
