REMARK  4 active torsions:
REMARK  status: ('A' for Active; 'I' for Inactive)
REMARK       I    between atoms: N1_1  and  C14_18 
REMARK    1  A    between atoms: N3_2  and  C13_9 
REMARK       I    between atoms: C14_18  and  N3_2 
REMARK    2  A    between atoms: C4_3  and  C12_25 
REMARK    3  A    between atoms: C7_6  and  C3_22 
REMARK    4  A    between atoms: C15_10  and  C21_12 
ROOT
ATOM      1  N1  2T1 d   1      11.140 -20.390   3.334  0.00  0.00    -0.334 N 
ATOM      2  N3  2T1 d   1       9.902 -18.995   1.997  0.00  0.00    -0.308 N 
ATOM      3  C7  2T1 d   1      12.765 -22.620   3.023  0.00  0.00    -0.025 C 
ATOM      4  C8  2T1 d   1      12.634 -21.577   1.918  0.00  0.00    -0.043 C 
ATOM      5  C10 2T1 d   1      11.273 -21.275   4.479  0.00  0.00    -0.000 C 
ATOM      6  C14 2T1 d   1       9.983 -19.801   3.058  0.00  0.00     0.322 C 
ATOM      7  O1  2T1 d   1       9.033 -20.001   3.788  0.00  0.00    -0.247 OA
ATOM      8  C11 2T1 d   1      11.487 -22.641   3.851  0.00  0.00    -0.043 C 
ATOM      9  C9  2T1 d   1      12.341 -20.210   2.525  0.00  0.00    -0.000 C 
ATOM     10  H1  2T1 d   1      10.723 -18.856   1.443  0.00  0.00     0.170 HD
ATOM     11  H4  2T1 d   1      13.616 -22.356   3.669  0.00  0.00     0.047 H 
ATOM     12  H5  2T1 d   1      11.812 -21.861   1.245  0.00  0.00     0.036 H 
ATOM     13  H6  2T1 d   1      13.574 -21.529   1.349  0.00  0.00     0.036 H 
ATOM     14  H7  2T1 d   1      10.360 -21.264   5.093  0.00  0.00     0.064 H 
ATOM     15  H8  2T1 d   1      12.135 -20.988   5.099  0.00  0.00     0.064 H 
ATOM     16  H13 2T1 d   1      11.575 -23.400   4.643  0.00  0.00     0.036 H 
ATOM     17  H14 2T1 d   1      10.633 -22.885   3.202  0.00  0.00     0.036 H 
ATOM     18  H15 2T1 d   1      13.182 -19.881   3.153  0.00  0.00     0.064 H 
ATOM     19  H16 2T1 d   1      12.163 -19.468   1.733  0.00  0.00     0.064 H 
ENDROOT
BRANCH   2  20
ATOM     20  C13 2T1 d   1       8.720 -18.330   1.617  0.00  0.00     0.053 A 
ATOM     21  C15 2T1 d   1       8.775 -17.176   0.848  0.00  0.00     0.067 A 
ATOM     22  C16 2T1 d   1       7.605 -16.534   0.467  0.00  0.00    -0.064 A 
ATOM     23  C19 2T1 d   1       6.372 -17.045   0.846  0.00  0.00    -0.082 A 
ATOM     24  H10 2T1 d   1       7.655 -15.630  -0.129  0.00  0.00     0.085 H 
ATOM     25  C18 2T1 d   1       6.307 -18.200   1.609  0.00  0.00    -0.081 A 
ATOM     26  H11 2T1 d   1       5.460 -16.541   0.546  0.00  0.00     0.083 H 
ATOM     27  C17 2T1 d   1       7.478 -18.840   1.986  0.00  0.00    -0.056 A 
ATOM     28  H12 2T1 d   1       5.346 -18.601   1.910  0.00  0.00     0.083 H 
ATOM     29  H9  2T1 d   1       7.426 -19.748   2.575  0.00  0.00     0.086 H 
BRANCH  21  30
ATOM     30  C21 2T1 d   1      10.083 -16.586   0.417  0.00  0.00     0.211 C 
ATOM     31  O3  2T1 d   1      11.154 -17.104   0.810  0.00  0.00    -0.644 OA
ATOM     32  O2  2T1 d   1      10.056 -15.581  -0.329  0.00  0.00    -0.644 OA
ENDBRANCH  21  30
ENDBRANCH   2  20
BRANCH   3  33
ATOM     33  C3  2T1 d   1      12.990 -23.963   2.449  0.00  0.00    -0.039 A 
ATOM     34  C4  2T1 d   1      13.896 -24.836   3.040  0.00  0.00     0.054 A 
ATOM     35  C5  2T1 d   1      14.090 -26.094   2.480  0.00  0.00    -0.068 A 
ATOM     36  C6  2T1 d   1      13.385 -26.485   1.347  0.00  0.00    -0.082 A 
ATOM     37  H2  2T1 d   1      14.799 -26.778   2.932  0.00  0.00     0.084 H 
ATOM     38  C1  2T1 d   1      12.482 -25.610   0.762  0.00  0.00    -0.082 A 
ATOM     39  H3  2T1 d   1      13.541 -27.470   0.922  0.00  0.00     0.083 H 
ATOM     40  C2  2T1 d   1      12.284 -24.350   1.314  0.00  0.00    -0.076 A 
ATOM     41  H18 2T1 d   1      11.932 -25.908  -0.123  0.00  0.00     0.083 H 
ATOM     42  H17 2T1 d   1      11.577 -23.666   0.859  0.00  0.00     0.084 H 
BRANCH  34  43
ATOM     43  C12 2T1 d   1      14.693 -24.455   4.264  0.00  0.00     0.418 C 
ATOM     44  F1  2T1 d   1      15.957 -24.349   3.901  0.00  0.00    -0.166 F 
ATOM     45  F3  2T1 d   1      14.586 -25.388   5.191  0.00  0.00    -0.166 F 
ATOM     46  F2  2T1 d   1      14.297 -23.304   4.781  0.00  0.00    -0.166 F 
ENDBRANCH  34  43
ENDBRANCH   3  33
TORSDOF 4
