REMARK WARNING: 32 MAX_TORS EXCEEDED!!!
REMARK  38 active torsions:
REMARK  status: ('A' for Active; 'I' for Inactive)
REMARK    1  A    between atoms: N_1  and  CA_2 
REMARK    2  A    between atoms: CA_2  and  C_3 
REMARK    3  A    between atoms: CA_2  and  CB_5 
REMARK       I    between atoms: C_3  and  N_15 
REMARK    4  A    between atoms: CB_5  and  CG_6 
REMARK    5  A    between atoms: N_15  and  CA_16 
REMARK    6  A    between atoms: CA_16  and  C_17 
REMARK    7  A    between atoms: CA_16  and  CB_19 
REMARK       I    between atoms: C_17  and  N_23 
REMARK    8  A    between atoms: CB_19  and  CG_20 
REMARK       I    between atoms: CG_20  and  ND2_22 
REMARK    9  A    between atoms: N_23  and  CA_24 
REMARK   10  A    between atoms: CA_24  and  C_25 
REMARK   11  A    between atoms: CA_24  and  CB_27 
REMARK       I    between atoms: C_25  and  N_37 
REMARK   12  A    between atoms: CB_27  and  CG_28 
REMARK   13  A    between atoms: N_37  and  CA_38 
REMARK   14  A    between atoms: CA_38  and  C_39 
REMARK   15  A    between atoms: CA_38  and  CB_41 
REMARK       I    between atoms: C_39  and  N_48 
REMARK   16  A    between atoms: CB_41  and  CG_42 
REMARK   17  A    between atoms: N_48  and  CA_49 
REMARK   18  A    between atoms: CA_49  and  C_50 
REMARK   19  A    between atoms: CA_49  and  CB_52 
REMARK       I    between atoms: C_50  and  N_56 
REMARK   20  A    between atoms: CB_52  and  CG_53 
REMARK   21  A    between atoms: N_56  and  CA_57 
REMARK   22  A    between atoms: CA_57  and  C_58 
REMARK   23  A    between atoms: CA_57  and  CB_60 
REMARK       I    between atoms: C_58  and  N_64 
REMARK   24  A    between atoms: CB_60  and  CG1_61 
REMARK   25  A    between atoms: CB_60  and  CG2_62 
REMARK   26  A    between atoms: CG1_61  and  CD1_63 
REMARK   27  A    between atoms: N_64  and  CA_65 
REMARK   28  A    between atoms: CA_65  and  C_66 
REMARK   29  A    between atoms: CA_65  and  CB_68 
REMARK       I    between atoms: C_66  and  N_71 
REMARK   30  A    between atoms: CB_68  and  OG1_69 
REMARK   31  A    between atoms: CB_68  and  CG2_70 
REMARK   32  A    between atoms: N_71  and  CA_72 
REMARK   33  A    between atoms: CA_72  and  C_73 
REMARK   34  A    between atoms: CA_72  and  CB_75 
REMARK       I    between atoms: C_73  and  N_79 
REMARK   35  A    between atoms: CB_75  and  CG_76 
REMARK       I    between atoms: CG_76  and  ND2_78 
REMARK   36  A    between atoms: N_79  and  CA_80 
REMARK   37  A    between atoms: CA_80  and  C_81 
REMARK   38  A    between atoms: CA_80  and  CB_83 
ROOT
ATOM      1  CA  PHE d   1      67.321  33.157  39.130  0.00  0.00     0.093 C 
ATOM      2  H30 PHE d   1      67.386  34.248  39.250  0.00  0.00     0.088 H 
ENDROOT
BRANCH   1   3
ATOM      3  N   PHE d   1      68.141  32.527  40.150  0.00  0.00    -0.346 N 
ATOM      4  C   TRP d   1      69.022  33.184  40.908  0.00  0.00     0.241 C 
ATOM      5  O   TRP d   1      69.223  34.383  40.829  0.00  0.00    -0.271 OA
ATOM      6  H29 PHE d   1      68.040  31.543  40.293  0.00  0.00     0.163 HD
BRANCH   4   7
ATOM      7  CA  TRP d   1      69.786  32.368  41.933  0.00  0.00     0.093 C 
ATOM      8  H20 TRP d   1      69.894  32.989  42.835  0.00  0.00     0.088 H 
BRANCH   7   9
ATOM      9  N   TRP d   1      69.102  31.136  42.337  0.00  0.00    -0.346 N 
ATOM     10  C   ASN d   1      68.747  30.912  43.593  0.00  0.00     0.241 C 
ATOM     11  O   ASN d   1      68.810  31.767  44.463  0.00  0.00    -0.271 OA
ATOM     12  H19 TRP d   1      68.897  30.445  41.644  0.00  0.00     0.163 HD
BRANCH  10  13
ATOM     13  CA  ASN d   1      68.187  29.520  43.931  0.00  0.00     0.097 C 
ATOM     14  H14 ASN d   1      67.349  29.668  44.629  0.00  0.00     0.088 H 
BRANCH  13  15
ATOM     15  N   ASN d   1      67.660  28.786  42.788  0.00  0.00    -0.346 N 
ATOM     16  C   TRP d   1      66.458  29.123  42.284  0.00  0.00     0.249 C 
ATOM     17  O   TRP d   1      65.847  30.128  42.655  0.00  0.00    -0.271 OA
ATOM     18  H13 ASN d   1      68.186  28.039  42.382  0.00  0.00     0.163 HD
BRANCH  16  19
ATOM     19  CA  TRP d   1      65.863  28.189  41.235  0.00  0.00     0.179 C 
ATOM     20  H4  TRP d   1      65.417  28.804  40.439  0.00  0.00     0.099 H 
BRANCH  19  21
ATOM     21  N   TRP d   1      66.860  27.307  40.616  0.00  0.00    -0.066 N 
ATOM     22  H1  TRP d   1      66.409  26.716  39.935  0.00  0.00     0.275 HD
ATOM     23  H2  TRP d   1      67.289  26.734  41.326  0.00  0.00     0.275 HD
ATOM     24  H3  TRP d   1      67.566  27.865  40.162  0.00  0.00     0.275 HD
ENDBRANCH  19  21
BRANCH  19  25
ATOM     25  CB  TRP d   1      64.757  27.364  41.899  0.00  0.00    -0.004 C 
ATOM     26  H5  TRP d   1      64.003  27.110  41.139  0.00  0.00     0.044 H 
ATOM     27  H6  TRP d   1      64.291  27.971  42.689  0.00  0.00     0.044 H 
BRANCH  25  28
ATOM     28  CG  TRP d   1      65.267  26.100  42.507  0.00  0.00    -0.028 A 
ATOM     29  CD1 TRP d   1      65.817  25.952  43.741  0.00  0.00    -0.015 A 
ATOM     30  NE1 TRP d   1      66.157  24.646  43.952  0.00  0.00    -0.365 N 
ATOM     31  H7  TRP d   1      65.965  26.758  44.458  0.00  0.00     0.112 H 
ATOM     32  CE2 TRP d   1      65.848  23.914  42.837  0.00  0.00     0.042 A 
ATOM     33  H8  TRP d   1      66.579  24.271  44.814  0.00  0.00     0.165 HD
ATOM     34  CD2 TRP d   1      65.276  24.797  41.905  0.00  0.00    -0.002 A 
ATOM     35  CZ2 TRP d   1      65.998  22.549  42.587  0.00  0.00    -0.056 A 
ATOM     36  CE3 TRP d   1      64.848  24.293  40.675  0.00  0.00    -0.070 A 
ATOM     37  CZ3 TRP d   1      65.011  22.913  40.416  0.00  0.00    -0.082 A 
ATOM     38  H9  TRP d   1      64.400  24.946  39.935  0.00  0.00     0.084 H 
ATOM     39  CH2 TRP d   1      65.580  22.071  41.369  0.00  0.00    -0.081 A 
ATOM     40  H11 TRP d   1      64.689  22.505  39.465  0.00  0.00     0.083 H 
ATOM     41  H12 TRP d   1      65.695  21.017  41.145  0.00  0.00     0.083 H 
ATOM     42  H10 TRP d   1      66.430  21.888  43.330  0.00  0.00     0.086 H 
ENDBRANCH  25  28
ENDBRANCH  19  25
ENDBRANCH  16  19
ENDBRANCH  13  15
BRANCH  13  43
ATOM     43  CB  ASN d   1      69.265  28.706  44.655  0.00  0.00     0.036 C 
ATOM     44  H15 ASN d   1      69.876  29.391  45.262  0.00  0.00     0.051 H 
ATOM     45  H16 ASN d   1      69.901  28.216  43.903  0.00  0.00     0.051 H 
BRANCH  43  46
ATOM     46  CG  ASN d   1      68.680  27.646  45.561  0.00  0.00     0.217 C 
ATOM     47  OD1 ASN d   1      67.758  27.908  46.387  0.00  0.00    -0.274 OA
ATOM     48  ND2 ASN d   1      69.224  26.430  45.438  0.00  0.00    -0.370 N 
ATOM     49  H17 ASN d   1      68.892  25.674  46.002  0.00  0.00     0.159 HD
ATOM     50  H18 ASN d   1      69.963  26.277  44.782  0.00  0.00     0.159 HD
ENDBRANCH  43  46
ENDBRANCH  13  43
ENDBRANCH  10  13
ENDBRANCH   7   9
BRANCH   7  51
ATOM     51  CB  TRP d   1      71.209  32.061  41.388  0.00  0.00    -0.012 C 
ATOM     52  H21 TRP d   1      71.726  33.009  41.176  0.00  0.00     0.044 H 
ATOM     53  H22 TRP d   1      71.121  31.476  40.461  0.00  0.00     0.044 H 
BRANCH  51  54
ATOM     54  CG  TRP d   1      71.998  31.288  42.377  0.00  0.00    -0.028 A 
ATOM     55  CD1 TRP d   1      72.208  29.937  42.401  0.00  0.00    -0.015 A 
ATOM     56  NE1 TRP d   1      72.917  29.590  43.507  0.00  0.00    -0.365 N 
ATOM     57  H23 TRP d   1      71.857  29.239  41.642  0.00  0.00     0.112 H 
ATOM     58  CE2 TRP d   1      73.176  30.721  44.230  0.00  0.00     0.042 A 
ATOM     59  H24 TRP d   1      73.210  28.635  43.758  0.00  0.00     0.165 HD
ATOM     60  CD2 TRP d   1      72.610  31.804  43.542  0.00  0.00    -0.002 A 
ATOM     61  CZ2 TRP d   1      73.864  30.877  45.417  0.00  0.00    -0.056 A 
ATOM     62  CE3 TRP d   1      72.736  33.080  44.075  0.00  0.00    -0.070 A 
ATOM     63  CZ3 TRP d   1      73.418  33.230  45.251  0.00  0.00    -0.082 A 
ATOM     64  H25 TRP d   1      72.304  33.937  43.571  0.00  0.00     0.084 H 
ATOM     65  CH2 TRP d   1      73.968  32.138  45.915  0.00  0.00    -0.081 A 
ATOM     66  H27 TRP d   1      73.532  34.221  45.675  0.00  0.00     0.083 H 
ATOM     67  H28 TRP d   1      74.492  32.296  46.851  0.00  0.00     0.083 H 
ATOM     68  H26 TRP d   1      74.303  30.029  45.931  0.00  0.00     0.086 H 
ENDBRANCH  51  54
ENDBRANCH   7  51
ENDBRANCH   4   7
ENDBRANCH   1   3
BRANCH   1  69
ATOM     69  C   PHE d   1      65.867  32.706  39.381  0.00  0.00     0.241 C 
ATOM     70  O   PHE d   1      65.598  31.504  39.551  0.00  0.00    -0.271 OA
ATOM     71  N   ASP d   1      64.950  33.675  39.411  0.00  0.00    -0.345 N 
ATOM     72  H38 ASP d   1      65.223  34.603  39.158  0.00  0.00     0.163 HD
BRANCH  71  73
ATOM     73  CA  ASP d   1      63.542  33.429  39.805  0.00  0.00     0.098 C 
ATOM     74  H39 ASP d   1      63.564  32.917  40.778  0.00  0.00     0.088 H 
BRANCH  73  75
ATOM     75  C   ASP d   1      62.792  32.506  38.842  0.00  0.00     0.241 C 
ATOM     76  O   ASP d   1      62.461  32.868  37.718  0.00  0.00    -0.271 OA
ATOM     77  N   ILE d   1      62.519  31.298  39.305  0.00  0.00    -0.346 N 
ATOM     78  H42 ILE d   1      62.830  31.051  40.223  0.00  0.00     0.163 HD
BRANCH  77  79
ATOM     79  CA  ILE d   1      61.783  30.316  38.526  0.00  0.00     0.092 C 
ATOM     80  H43 ILE d   1      62.344  30.198  37.587  0.00  0.00     0.088 H 
BRANCH  79  81
ATOM     81  C   ILE d   1      60.353  30.730  38.104  0.00  0.00     0.241 C 
ATOM     82  O   ILE d   1      59.753  30.076  37.241  0.00  0.00    -0.271 OA
ATOM     83  N   THR d   1      59.817  31.810  38.696  0.00  0.00    -0.344 N 
ATOM     84  H53 THR d   1      60.357  32.323  39.363  0.00  0.00     0.163 HD
BRANCH  83  85
ATOM     85  CA  THR d   1      58.446  32.252  38.379  0.00  0.00     0.113 C 
ATOM     86  H54 THR d   1      57.911  31.395  37.945  0.00  0.00     0.091 H 
BRANCH  85  87
ATOM     87  C   THR d   1      58.410  33.403  37.360  0.00  0.00     0.243 C 
ATOM     88  O   THR d   1      57.351  33.953  37.092  0.00  0.00    -0.271 OA
ATOM     89  N   ASN d   1      59.570  33.778  36.809  0.00  0.00    -0.345 N 
ATOM     90  H60 ASN d   1      60.426  33.460  37.216  0.00  0.00     0.163 HD
BRANCH  89  91
ATOM     91  CA  ASN d   1      59.623  34.650  35.615  0.00  0.00     0.097 C 
ATOM     92  H61 ASN d   1      58.829  35.403  35.726  0.00  0.00     0.088 H 
BRANCH  91  93
ATOM     93  C   ASN d   1      59.387  33.892  34.309  0.00  0.00     0.241 C 
ATOM     94  O   ASN d   1      59.433  32.661  34.276  0.00  0.00    -0.271 OA
ATOM     95  N   LYS d   1      59.184  34.647  33.228  0.00  0.00    -0.349 N 
ATOM     96  H66 LYS d   1      59.216  35.642  33.324  0.00  0.00     0.163 HD
BRANCH  95  97
ATOM     97  CA  LYS d   1      58.916  34.077  31.906  0.00  0.00     0.059 C 
ATOM     98  H67 LYS d   1      58.602  33.033  32.051  0.00  0.00     0.083 H 
BRANCH  97  99
ATOM     99  C   LYS d   1      60.146  34.068  30.990  0.00  0.00     0.109 C 
ATOM    100  O   LYS d   1      60.863  35.067  30.860  0.00  0.00    -0.305 OA
ATOM    101  H68 LYS d   1      60.394  33.161  30.441  0.00  0.00     0.146 H 
ENDBRANCH  97  99
BRANCH  97 102
ATOM    102  CB  LYS d   1      57.767  34.833  31.236  0.00  0.00    -0.051 C 
ATOM    103  H69 LYS d   1      57.572  34.399  30.244  0.00  0.00     0.030 H 
ATOM    104  H70 LYS d   1      58.041  35.893  31.125  0.00  0.00     0.030 H 
ATOM    105  H71 LYS d   1      56.863  34.751  31.857  0.00  0.00     0.030 H 
ENDBRANCH  97 102
ENDBRANCH  95  97
ENDBRANCH  91  93
BRANCH  91 106
ATOM    106  CB  ASN d   1      60.962  35.378  35.475  0.00  0.00     0.036 C 
ATOM    107  H62 ASN d   1      60.933  35.995  34.565  0.00  0.00     0.051 H 
ATOM    108  H63 ASN d   1      61.761  34.628  35.384  0.00  0.00     0.051 H 
BRANCH 106 109
ATOM    109  CG  ASN d   1      61.269  36.263  36.640  0.00  0.00     0.217 C 
ATOM    110  OD1 ASN d   1      60.463  36.406  37.552  0.00  0.00    -0.274 OA
ATOM    111  ND2 ASN d   1      62.463  36.859  36.633  0.00  0.00    -0.370 N 
ATOM    112  H64 ASN d   1      62.725  37.463  37.386  0.00  0.00     0.159 HD
ATOM    113  H65 ASN d   1      63.096  36.702  35.875  0.00  0.00     0.159 HD
ENDBRANCH 106 109
ENDBRANCH  91 106
ENDBRANCH  89  91
ENDBRANCH  85  87
BRANCH  85 114
ATOM    114  CB  THR d   1      57.703  32.696  39.653  0.00  0.00     0.060 C 
ATOM    115  H55 THR d   1      56.637  32.827  39.416  0.00  0.00     0.086 H 
BRANCH 114 116
ATOM    116  OG1 THR d   1      58.225  33.937  40.137  0.00  0.00    -0.393 OA
ATOM    117  H56 THR d   1      59.148  33.834  40.339  0.00  0.00     0.210 HD
ENDBRANCH 114 116
BRANCH 114 118
ATOM    118  CG2 THR d   1      57.846  31.632  40.719  0.00  0.00    -0.050 C 
ATOM    119  H57 THR d   1      57.315  31.950  41.628  0.00  0.00     0.031 H 
ATOM    120  H58 THR d   1      58.911  31.485  40.949  0.00  0.00     0.031 H 
ATOM    121  H59 THR d   1      57.416  30.688  40.355  0.00  0.00     0.031 H 
ENDBRANCH 114 118
ENDBRANCH  85 114
ENDBRANCH  83  85
ENDBRANCH  79  81
BRANCH  79 122
ATOM    122  CB  ILE d   1      61.801  28.933  39.227  0.00  0.00    -0.030 C 
ATOM    123  H44 ILE d   1      62.808  28.781  39.642  0.00  0.00     0.043 H 
BRANCH 122 124
ATOM    124  CG1 ILE d   1      61.496  27.793  38.263  0.00  0.00    -0.063 C 
ATOM    125  H45 ILE d   1      62.312  27.724  37.528  0.00  0.00     0.033 H 
ATOM    126  H46 ILE d   1      60.552  28.013  37.743  0.00  0.00     0.033 H 
BRANCH 124 127
ATOM    127  CD1 ILE d   1      61.359  26.411  38.995  0.00  0.00    -0.076 C 
ATOM    128  H50 ILE d   1      61.140  25.625  38.257  0.00  0.00     0.027 H 
ATOM    129  H51 ILE d   1      60.541  26.464  39.728  0.00  0.00     0.027 H 
ATOM    130  H52 ILE d   1      62.300  26.175  39.513  0.00  0.00     0.027 H 
ENDBRANCH 124 127
ENDBRANCH 122 124
BRANCH 122 131
ATOM    131  CG2 ILE d   1      60.786  28.859  40.369  0.00  0.00    -0.071 C 
ATOM    132  H47 ILE d   1      60.980  29.672  41.085  0.00  0.00     0.028 H 
ATOM    133  H48 ILE d   1      60.880  27.890  40.880  0.00  0.00     0.028 H 
ATOM    134  H49 ILE d   1      59.769  28.963  39.963  0.00  0.00     0.028 H 
ENDBRANCH 122 131
ENDBRANCH  79 122
ENDBRANCH  77  79
ENDBRANCH  73  75
BRANCH  73 135
ATOM    135  CB  ASP d   1      62.814  34.772  40.009  0.00  0.00     0.043 C 
ATOM    136  H40 ASP d   1      62.645  35.231  39.024  0.00  0.00     0.052 H 
ATOM    137  H41 ASP d   1      63.455  35.429  40.615  0.00  0.00     0.052 H 
BRANCH 135 138
ATOM    138  CG  ASP d   1      61.440  34.621  40.728  0.00  0.00     0.175 C 
ATOM    139  OD1 ASP d   1      60.901  33.513  40.719  0.00  0.00    -0.648 OA
ATOM    140  OD2 ASP d   1      60.979  35.607  41.337  0.00  0.00    -0.648 OA
ENDBRANCH 135 138
ENDBRANCH  73 135
ENDBRANCH  71  73
ENDBRANCH   1  69
BRANCH   1 141
ATOM    141  CB  PHE d   1      67.769  32.808  37.685  0.00  0.00    -0.014 C 
ATOM    142  H31 PHE d   1      67.088  33.307  36.979  0.00  0.00     0.043 H 
ATOM    143  H32 PHE d   1      67.700  31.718  37.553  0.00  0.00     0.043 H 
BRANCH 141 144
ATOM    144  CG  PHE d   1      69.188  33.241  37.371  0.00  0.00    -0.056 A 
ATOM    145  CD1 PHE d   1      69.479  34.584  37.160  0.00  0.00    -0.077 A 
ATOM    146  CE1 PHE d   1      70.801  35.036  36.936  0.00  0.00    -0.082 A 
ATOM    147  H33 PHE d   1      68.670  35.306  37.167  0.00  0.00     0.084 H 
ATOM    148  CZ  PHE d   1      71.829  34.107  36.906  0.00  0.00    -0.083 A 
ATOM    149  H35 PHE d   1      71.006  36.090  36.790  0.00  0.00     0.083 H 
ATOM    150  CE2 PHE d   1      71.532  32.745  37.119  0.00  0.00    -0.082 A 
ATOM    151  H37 PHE d   1      72.849  34.423  36.721  0.00  0.00     0.083 H 
ATOM    152  CD2 PHE d   1      70.217  32.331  37.384  0.00  0.00    -0.077 A 
ATOM    153  H36 PHE d   1      72.328  32.010  37.078  0.00  0.00     0.083 H 
ATOM    154  H34 PHE d   1      70.013  31.288  37.600  0.00  0.00     0.084 H 
ENDBRANCH 141 144
ENDBRANCH   1 141
TORSDOF 38
