REMARK  3 active torsions:
REMARK  status: ('A' for Active; 'I' for Inactive)
REMARK    1  A    between atoms: C1_1  and  C2_4 
REMARK    2  A    between atoms: C2_4  and  N1_5 
REMARK    3  A    between atoms: C2_4  and  C3_6 
ROOT
ATOM      1  C3  AVN d   1      46.037  -2.561  37.264  0.00  0.00     0.109 C 
ATOM      2  O3  AVN d   1      45.355  -1.794  36.364  0.00  0.00    -0.248 OA
ATOM      3  N2  AVN d   1      45.524  -2.300  35.124  0.00  0.00    -0.150 NA
ATOM      4  C4  AVN d   1      46.511  -3.060  35.071  0.00  0.00     0.011 C 
ATOM      5  C5  AVN d   1      47.190  -3.034  36.417  0.00  0.00    -0.003 C 
ATOM      6  H5  AVN d   1      45.434  -3.421  37.589  0.00  0.00     0.091 H 
ATOM      7  H6  AVN d   1      46.827  -3.640  34.205  0.00  0.00     0.111 H 
ATOM      8  H7  AVN d   1      47.540  -4.032  36.720  0.00  0.00     0.045 H 
ATOM      9  H8  AVN d   1      48.033  -2.327  36.438  0.00  0.00     0.045 H 
ENDROOT
BRANCH   1  10
ATOM     10  C2  AVN d   1      46.390  -1.760  38.473  0.00  0.00     0.209 C 
ATOM     11  H1  AVN d   1      46.940  -0.840  38.227  0.00  0.00     0.105 H 
BRANCH  10  12
ATOM     12  C1  AVN d   1      45.083  -1.482  39.106  0.00  0.00     0.207 C 
ATOM     13  O1  AVN d   1      44.665  -2.325  39.846  0.00  0.00    -0.646 OA
ATOM     14  O2  AVN d   1      44.532  -0.436  38.863  0.00  0.00    -0.646 OA
ENDBRANCH  10  12
BRANCH  10  15
ATOM     15  N1  AVN d   1      47.152  -2.621  39.343  0.00  0.00    -0.063 N 
ATOM     16  H2  AVN d   1      47.411  -2.114  40.175  0.00  0.00     0.275 HD
ATOM     17  H3  AVN d   1      47.984  -2.930  38.865  0.00  0.00     0.275 HD
ATOM     18  H4  AVN d   1      46.594  -3.421  39.597  0.00  0.00     0.275 HD
ENDBRANCH  10  15
ENDBRANCH   1  10
TORSDOF 3
