REMARK  16 active torsions:
REMARK  status: ('A' for Active; 'I' for Inactive)
REMARK    1  A    between atoms: C12_2  and  C21_3 
REMARK       I    between atoms: C12_2  and  N2_13 
REMARK    2  A    between atoms: C21_3  and  O2_4 
REMARK    3  A    between atoms: O2_4  and  C45_5 
REMARK    4  A    between atoms: C46_6  and  C44_7 
REMARK    5  A    between atoms: C42_11  and  C43_12 
REMARK    6  A    between atoms: N2_13  and  C13_14 
REMARK    7  A    between atoms: C13_14  and  C15_15 
REMARK    8  A    between atoms: C13_14  and  C14_22 
REMARK    9  A    between atoms: C15_15  and  C22_16 
REMARK   10  A    between atoms: C14_22  and  O1_23 
REMARK   11  A    between atoms: C14_22  and  C16_24 
REMARK       I    between atoms: C16_24  and  N3_26 
REMARK   12  A    between atoms: C18_29  and  C30_30 
REMARK   13  A    between atoms: C18_29  and  C29_31 
REMARK   14  A    between atoms: C17_32  and  C20_33 
REMARK       I    between atoms: C20_33  and  N4_35 
REMARK   15  A    between atoms: N4_35  and  C31_36 
REMARK   16  A    between atoms: C35_44  and  O7_45 
ROOT
ATOM      1  C14 006 d   1      -6.326 -51.231 -74.538  0.00  0.00     0.132 C 
ATOM      2  H21 006 d   1      -5.561 -51.938 -74.891  0.00  0.00     0.101 H 
ENDROOT
BRANCH   1   3
ATOM      3  C13 006 d   1      -7.689 -51.822 -74.952  0.00  0.00     0.049 C 
ATOM      4  H13 006 d   1      -8.153 -52.295 -74.074  0.00  0.00     0.077 H 
BRANCH   3   5
ATOM      5  N2  006 d   1      -8.586 -50.791 -75.488  0.00  0.00    -0.351 N 
ATOM      6  C12 006 d   1      -9.810 -50.590 -74.982  0.00  0.00     0.242 C 
ATOM      7  O8  006 d   1     -10.278 -51.226 -74.049  0.00  0.00    -0.271 OA
ATOM      8  H12 006 d   1      -8.275 -50.224 -76.251  0.00  0.00     0.163 HD
BRANCH   6   9
ATOM      9  C21 006 d   1     -10.648 -49.505 -75.612  0.00  0.00     0.099 C 
ATOM     10  H1  006 d   1     -10.092 -48.556 -75.589  0.00  0.00     0.089 H 
ATOM     11  H2  006 d   1     -11.585 -49.395 -75.046  0.00  0.00     0.089 H 
BRANCH   9  12
ATOM     12  O2  006 d   1     -10.951 -49.842 -76.967  0.00  0.00    -0.341 OA
BRANCH  12  13
ATOM     13  C45 006 d   1     -12.101 -49.432 -77.617  0.00  0.00     0.081 A 
ATOM     14  C46 006 d   1     -12.260 -48.112 -78.072  0.00  0.00    -0.028 A 
ATOM     15  C47 006 d   1     -13.422 -47.724 -78.736  0.00  0.00    -0.074 A 
ATOM     16  C40 006 d   1     -14.432 -48.651 -78.957  0.00  0.00    -0.082 A 
ATOM     17  H6  006 d   1     -13.537 -46.702 -79.079  0.00  0.00     0.084 H 
ATOM     18  C41 006 d   1     -14.279 -49.966 -78.513  0.00  0.00    -0.074 A 
ATOM     19  H7  006 d   1     -15.338 -48.354 -79.473  0.00  0.00     0.083 H 
ATOM     20  C42 006 d   1     -13.119 -50.362 -77.846  0.00  0.00    -0.028 A 
ATOM     21  H8  006 d   1     -15.069 -50.687 -78.688  0.00  0.00     0.084 H 
BRANCH  14  22
ATOM     22  C44 006 d   1     -11.201 -47.063 -77.866  0.00  0.00    -0.049 C 
ATOM     23  H3  006 d   1     -11.539 -46.111 -78.301  0.00  0.00     0.033 H 
ATOM     24  H4  006 d   1     -10.270 -47.381 -78.358  0.00  0.00     0.033 H 
ATOM     25  H5  006 d   1     -11.021 -46.931 -76.789  0.00  0.00     0.033 H 
ENDBRANCH  14  22
BRANCH  20  26
ATOM     26  C43 006 d   1     -12.996 -51.797 -77.387  0.00  0.00    -0.049 C 
ATOM     27  H9  006 d   1     -12.029 -51.939 -76.883  0.00  0.00     0.033 H 
ATOM     28  H10 006 d   1     -13.058 -52.467 -78.257  0.00  0.00     0.033 H 
ATOM     29  H11 006 d   1     -13.812 -52.029 -76.687  0.00  0.00     0.033 H 
ENDBRANCH  20  26
ENDBRANCH  12  13
ENDBRANCH   9  12
ENDBRANCH   6   9
ENDBRANCH   3   5
BRANCH   3  30
ATOM     30  C15 006 d   1      -7.506 -52.856 -76.063  0.00  0.00    -0.019 C 
ATOM     31  H14 006 d   1      -6.576 -53.416 -75.884  0.00  0.00     0.043 H 
ATOM     32  H15 006 d   1      -7.441 -52.337 -77.030  0.00  0.00     0.043 H 
BRANCH  30  33
ATOM     33  C22 006 d   1      -8.668 -53.826 -76.100  0.00  0.00    -0.056 A 
ATOM     34  C23 006 d   1      -8.734 -54.881 -75.181  0.00  0.00    -0.077 A 
ATOM     35  C24 006 d   1      -9.806 -55.773 -75.219  0.00  0.00    -0.082 A 
ATOM     36  H16 006 d   1      -7.952 -55.004 -74.440  0.00  0.00     0.084 H 
ATOM     37  C25 006 d   1     -10.807 -55.608 -76.178  0.00  0.00    -0.083 A 
ATOM     38  H17 006 d   1      -9.861 -56.589 -74.508  0.00  0.00     0.083 H 
ATOM     39  C26 006 d   1     -10.740 -54.558 -77.097  0.00  0.00    -0.082 A 
ATOM     40  H18 006 d   1     -11.642 -56.299 -76.210  0.00  0.00     0.083 H 
ATOM     41  C27 006 d   1      -9.670 -53.665 -77.059  0.00  0.00    -0.077 A 
ATOM     42  H19 006 d   1     -11.520 -54.438 -77.840  0.00  0.00     0.083 H 
ATOM     43  H20 006 d   1      -9.616 -52.849 -77.771  0.00  0.00     0.084 H 
ENDBRANCH  30  33
ENDBRANCH   3  30
ENDBRANCH   1   3
BRANCH   1  44
ATOM     44  O1  006 d   1      -6.237 -51.177 -73.103  0.00  0.00    -0.384 OA
ATOM     45  H22 006 d   1      -6.935 -50.629 -72.764  0.00  0.00     0.210 HD
ENDBRANCH   1  44
BRANCH   1  46
ATOM     46  C16 006 d   1      -5.967 -49.882 -75.139  0.00  0.00     0.252 C 
ATOM     47  O3  006 d   1      -6.746 -48.936 -75.065  0.00  0.00    -0.270 OA
ATOM     48  N3  006 d   1      -4.756 -49.805 -75.731  0.00  0.00    -0.326 N 
ATOM     49  C19 006 d   1      -3.807 -50.920 -75.819  0.00  0.00     0.040 C 
ATOM     50  C17 006 d   1      -4.239 -48.551 -76.360  0.00  0.00     0.108 C 
ATOM     51  S1  006 d   1      -2.220 -50.199 -75.976  0.00  0.00    -0.137 SA
ATOM     52  H23 006 d   1      -4.031 -51.543 -76.697  0.00  0.00     0.081 H 
ATOM     53  H24 006 d   1      -3.857 -51.536 -74.909  0.00  0.00     0.081 H 
ATOM     54  C18 006 d   1      -2.690 -48.615 -76.561  0.00  0.00     0.032 C 
ATOM     55  H31 006 d   1      -4.380 -47.765 -75.603  0.00  0.00     0.090 H 
BRANCH  54  56
ATOM     56  C30 006 d   1      -1.994 -47.578 -75.679  0.00  0.00    -0.058 C 
ATOM     57  H25 006 d   1      -2.266 -46.567 -76.017  0.00  0.00     0.029 H 
ATOM     58  H26 006 d   1      -0.904 -47.708 -75.751  0.00  0.00     0.029 H 
ATOM     59  H27 006 d   1      -2.311 -47.713 -74.634  0.00  0.00     0.029 H 
ENDBRANCH  54  56
BRANCH  54  60
ATOM     60  C29 006 d   1      -2.211 -48.527 -78.011  0.00  0.00    -0.058 C 
ATOM     61  H28 006 d   1      -2.483 -47.546 -78.428  0.00  0.00     0.029 H 
ATOM     62  H29 006 d   1      -2.688 -49.322 -78.603  0.00  0.00     0.029 H 
ATOM     63  H30 006 d   1      -1.118 -48.650 -78.044  0.00  0.00     0.029 H 
ENDBRANCH  54  60
BRANCH  50  64
ATOM     64  C20 006 d   1      -5.113 -48.091 -77.542  0.00  0.00     0.242 C 
ATOM     65  O4  006 d   1      -5.994 -48.840 -77.943  0.00  0.00    -0.271 OA
ATOM     66  N4  006 d   1      -5.024 -46.885 -78.142  0.00  0.00    -0.348 N 
ATOM     67  H32 006 d   1      -5.712 -46.723 -78.849  0.00  0.00     0.163 HD
BRANCH  66  68
ATOM     68  C31 006 d   1      -4.093 -45.773 -77.936  0.00  0.00     0.063 C 
ATOM     69  C32 006 d   1      -4.237 -44.815 -79.050  0.00  0.00    -0.027 A 
ATOM     70  C33 006 d   1      -4.232 -45.125 -80.411  0.00  0.00    -0.074 A 
ATOM     71  C36 006 d   1      -4.384 -43.524 -78.600  0.00  0.00    -0.047 A 
ATOM     72  C34 006 d   1      -4.383 -44.069 -81.316  0.00  0.00    -0.082 A 
ATOM     73  H34 006 d   1      -4.115 -46.147 -80.754  0.00  0.00     0.084 H 
ATOM     74  C38 006 d   1      -4.529 -42.753 -80.857  0.00  0.00    -0.082 A 
ATOM     75  H35 006 d   1      -4.387 -44.270 -82.381  0.00  0.00     0.083 H 
ATOM     76  C37 006 d   1      -4.534 -42.461 -79.489  0.00  0.00    -0.076 A 
ATOM     77  H36 006 d   1      -4.640 -41.948 -81.574  0.00  0.00     0.083 H 
ATOM     78  H37 006 d   1      -4.650 -41.444 -79.133  0.00  0.00     0.084 H 
ATOM     79  C39 006 d   1      -4.367 -43.443 -77.091  0.00  0.00    -0.014 C 
ATOM     80  C35 006 d   1      -4.391 -44.924 -76.684  0.00  0.00     0.063 C 
ATOM     81  H38 006 d   1      -5.251 -42.911 -76.710  0.00  0.00     0.044 H 
ATOM     82  H39 006 d   1      -3.455 -42.945 -76.729  0.00  0.00     0.044 H 
ATOM     83  H40 006 d   1      -3.603 -45.105 -75.938  0.00  0.00     0.087 H 
ATOM     84  H33 006 d   1      -3.068 -46.170 -77.886  0.00  0.00     0.084 H 
BRANCH  80  85
ATOM     85  O7  006 d   1      -5.653 -45.257 -76.096  0.00  0.00    -0.393 OA
ATOM     86  H41 006 d   1      -5.654 -46.174 -75.849  0.00  0.00     0.210 HD
ENDBRANCH  80  85
ENDBRANCH  66  68
ENDBRANCH  50  64
ENDBRANCH   1  46
TORSDOF 16
