REMARK  9 active torsions:
REMARK  status: ('A' for Active; 'I' for Inactive)
REMARK    1  A    between atoms: NAR_7  and  CAU_8 
REMARK    2  A    between atoms: CAD_15  and  OAL_16 
REMARK    3  A    between atoms: OAL_16  and  CBI_17 
REMARK    4  A    between atoms: CAE_18  and  OAK_19 
REMARK    5  A    between atoms: OAK_19  and  CBJ_20 
REMARK    6  A    between atoms: C6_22  and  NAM_23 
REMARK    7  A    between atoms: NAM_23  and  CAV_24 
REMARK    8  A    between atoms: NAY_29  and  CBB_30 
REMARK    9  A    between atoms: CBB_30  and  CBC_31 
ROOT
ATOM      1  C2  Q4A d   1       1.899 -29.189  46.631  0.00  0.00     0.727 A 
ATOM      2  C5  Q4A d   1       0.032 -27.421  47.510  0.00  0.00     0.042 A 
ATOM      3  C4  Q4A d   1      -0.282 -28.358  46.533  0.00  0.00     0.092 A 
ATOM      4  CAO Q4A d   1       4.157 -30.037  46.788  0.00  0.00     0.013 C 
ATOM      5  CAP Q4A d   1       4.222 -30.921  48.036  0.00  0.00    -0.027 C 
ATOM      6  CAQ Q4A d   1       3.219 -32.078  47.998  0.00  0.00     0.085 C 
ATOM      7  NAR Q4A d   1       3.268 -32.806  46.721  0.00  0.00    -0.073 N 
ATOM      8  CAS Q4A d   1       2.126 -32.406  45.885  0.00  0.00     0.098 C 
ATOM      9  CAT Q4A d   1       2.405 -31.064  45.206  0.00  0.00     0.034 C 
ATOM     10  NAN Q4A d   1       2.803 -30.074  46.217  0.00  0.00    -0.212 N 
ATOM     11  N1  Q4A d   1       2.227 -28.286  47.567  0.00  0.00    -0.044 NA
ATOM     12  N3  Q4A d   1       0.661 -29.218  46.117  0.00  0.00    -0.062 NA
ATOM     13  CAC Q4A d   1      -1.576 -28.424  46.027  0.00  0.00    -0.019 A 
ATOM     14  CAD Q4A d   1      -2.556 -27.564  46.513  0.00  0.00     0.103 A 
ATOM     15  CAE Q4A d   1      -2.246 -26.643  47.510  0.00  0.00     0.102 A 
ATOM     16  CAF Q4A d   1      -0.947 -26.565  48.003  0.00  0.00    -0.032 A 
ATOM     17  C6  Q4A d   1       1.328 -27.395  48.012  0.00  0.00     0.155 A 
ATOM     18  H1  Q4A d   1       4.877 -30.405  46.042  0.00  0.00     0.065 H 
ATOM     19  H2  Q4A d   1       4.409 -29.002  47.061  0.00  0.00     0.065 H 
ATOM     20  H3  Q4A d   1       4.008 -30.300  48.918  0.00  0.00     0.037 H 
ATOM     21  H4  Q4A d   1       5.237 -31.338  48.118  0.00  0.00     0.037 H 
ATOM     22  H5  Q4A d   1       2.205 -31.674  48.138  0.00  0.00     0.076 H 
ATOM     23  H6  Q4A d   1       3.452 -32.777  48.815  0.00  0.00     0.076 H 
ATOM     24  H7  Q4A d   1       4.129 -32.593  46.243  0.00  0.00     0.279 HD
ATOM     25  H11 Q4A d   1       1.230 -32.313  46.516  0.00  0.00     0.078 H 
ATOM     26  H12 Q4A d   1       1.954 -33.173  45.115  0.00  0.00     0.078 H 
ATOM     27  H13 Q4A d   1       1.496 -30.718  44.692  0.00  0.00     0.067 H 
ATOM     28  H14 Q4A d   1       3.216 -31.186  44.474  0.00  0.00     0.067 H 
ATOM     29  H15 Q4A d   1      -1.821 -29.145  45.255  0.00  0.00     0.091 H 
ATOM     30  H22 Q4A d   1      -0.699 -25.839  48.769  0.00  0.00     0.089 H 
ENDROOT
BRANCH  17  31
ATOM     31  NAM Q4A d   1       1.688 -26.436  48.861  0.00  0.00    -0.369 N 
ATOM     32  H23 Q4A d   1       0.986 -25.759  49.193  0.00  0.00     0.161 HD
BRANCH  31  33
ATOM     33  CAV Q4A d   1       3.078 -26.333  49.330  0.00  0.00     0.014 C 
ATOM     34  CBA Q4A d   1       3.567 -24.886  49.237  0.00  0.00    -0.023 C 
ATOM     35  CAZ Q4A d   1       4.952 -24.739  49.873  0.00  0.00     0.086 C 
ATOM     36  H25 Q4A d   1       2.857 -24.231  49.763  0.00  0.00     0.038 H 
ATOM     37  H26 Q4A d   1       3.623 -24.591  48.179  0.00  0.00     0.038 H 
ATOM     38  NAY Q4A d   1       4.889 -25.165  51.279  0.00  0.00    -0.067 N 
ATOM     39  H27 Q4A d   1       5.270 -23.687  49.822  0.00  0.00     0.076 H 
ATOM     40  H28 Q4A d   1       5.674 -25.367  49.331  0.00  0.00     0.076 H 
ATOM     41  CAX Q4A d   1       4.552 -26.595  51.345  0.00  0.00     0.086 C 
ATOM     42  H33 Q4A d   1       4.173 -24.634  51.751  0.00  0.00     0.280 HD
ATOM     43  CAW Q4A d   1       3.145 -26.807  50.784  0.00  0.00    -0.023 C 
ATOM     44  H31 Q4A d   1       5.276 -27.171  50.750  0.00  0.00     0.076 H 
ATOM     45  H32 Q4A d   1       4.586 -26.933  52.391  0.00  0.00     0.076 H 
ATOM     46  H29 Q4A d   1       2.893 -27.877  50.829  0.00  0.00     0.038 H 
ATOM     47  H30 Q4A d   1       2.424 -26.235  51.386  0.00  0.00     0.038 H 
ATOM     48  H24 Q4A d   1       3.721 -26.972  48.706  0.00  0.00     0.072 H 
BRANCH  38  49
ATOM     49  CBB Q4A d   1       6.178 -24.928  51.947  0.00  0.00     0.107 C 
ATOM     50  H34 Q4A d   1       6.481 -23.881  51.801  0.00  0.00     0.083 H 
ATOM     51  H35 Q4A d   1       6.942 -25.594  51.519  0.00  0.00     0.083 H 
BRANCH  49  52
ATOM     52  CBC Q4A d   1       6.032 -25.214  53.444  0.00  0.00    -0.033 A 
ATOM     53  CBD Q4A d   1       5.654 -24.193  54.311  0.00  0.00    -0.075 A 
ATOM     54  CBE Q4A d   1       5.469 -24.463  55.663  0.00  0.00    -0.082 A 
ATOM     55  H36 Q4A d   1       5.504 -23.188  53.933  0.00  0.00     0.084 H 
ATOM     56  CBF Q4A d   1       5.661 -25.752  56.151  0.00  0.00    -0.083 A 
ATOM     57  H37 Q4A d   1       5.175 -23.668  56.338  0.00  0.00     0.083 H 
ATOM     58  CBG Q4A d   1       6.042 -26.774  55.289  0.00  0.00    -0.082 A 
ATOM     59  H38 Q4A d   1       5.513 -25.959  57.205  0.00  0.00     0.083 H 
ATOM     60  CBH Q4A d   1       6.228 -26.501  53.937  0.00  0.00    -0.075 A 
ATOM     61  H39 Q4A d   1       6.193 -27.778  55.668  0.00  0.00     0.083 H 
ATOM     62  H40 Q4A d   1       6.527 -27.296  53.263  0.00  0.00     0.084 H 
ENDBRANCH  49  52
ENDBRANCH  38  49
ENDBRANCH  31  33
ENDBRANCH  17  31
BRANCH  15  63
ATOM     63  OAK Q4A d   1      -3.244 -25.894  48.053  0.00  0.00    -0.353 OA
BRANCH  63  64
ATOM     64  CBJ Q4A d   1      -2.786 -24.645  48.580  0.00  0.00     0.010 C 
ATOM     65  H19 Q4A d   1      -3.637 -24.091  49.002  0.00  0.00     0.066 H 
ATOM     66  H20 Q4A d   1      -2.326 -24.053  47.774  0.00  0.00     0.066 H 
ATOM     67  H21 Q4A d   1      -2.042 -24.831  49.369  0.00  0.00     0.066 H 
ENDBRANCH  63  64
ENDBRANCH  15  63
BRANCH  14  68
ATOM     68  OAL Q4A d   1      -3.812 -27.572  45.989  0.00  0.00    -0.353 OA
BRANCH  68  69
ATOM     69  CBI Q4A d   1      -4.188 -28.864  45.502  0.00  0.00     0.010 C 
ATOM     70  H16 Q4A d   1      -5.207 -28.818  45.090  0.00  0.00     0.066 H 
ATOM     71  H17 Q4A d   1      -4.159 -29.590  46.328  0.00  0.00     0.066 H 
ATOM     72  H18 Q4A d   1      -3.488 -29.177  44.714  0.00  0.00     0.066 H 
ENDBRANCH  68  69
ENDBRANCH  14  68
BRANCH   7  73
ATOM     73  CAU Q4A d   1       3.190 -34.252  46.980  0.00  0.00     0.066 C 
ATOM     74  H8  Q4A d   1       3.227 -34.798  46.026  0.00  0.00     0.068 H 
ATOM     75  H9  Q4A d   1       2.247 -34.481  47.498  0.00  0.00     0.068 H 
ATOM     76  H10 Q4A d   1       4.038 -34.558  47.610  0.00  0.00     0.068 H 
ENDBRANCH   7  73
TORSDOF 9
