REMARK  6 active torsions:
REMARK  status: ('A' for Active; 'I' for Inactive)
REMARK    1  A    between atoms: C2_2  and  C1_1 
REMARK    2  A    between atoms: C2_2  and  C3_3 
REMARK    3  A    between atoms: N1_16  and  C2_2 
REMARK    4  A    between atoms: N2_21  and  C13_9 
REMARK    5  A    between atoms: C9_17  and  N1_16 
REMARK    6  A    between atoms: C10_18  and  N2_21 
ROOT
ATOM      1  N1  793 d   1     233.024  78.816 185.567  0.00  0.00    -0.274 NA
ENDROOT
BRANCH   1   2
ATOM      2  C2  793 d   1     232.057  77.862 186.111  0.00  0.00     0.055 C 
ATOM      3  H4  793 d   1     231.278  78.428 186.643  0.00  0.00     0.083 H 
BRANCH   2   4
ATOM      4  C1  793 d   1     232.738  76.944 187.131  0.00  0.00    -0.052 C 
ATOM      5  H1  793 d   1     233.204  77.554 187.919  0.00  0.00     0.030 H 
ATOM      6  H2  793 d   1     233.510  76.345 186.627  0.00  0.00     0.030 H 
ATOM      7  H3  793 d   1     231.989  76.275 187.579  0.00  0.00     0.030 H 
ENDBRANCH   2   4
BRANCH   2   8
ATOM      8  C3  793 d   1     231.381  77.105 184.976  0.00  0.00    -0.034 A 
ATOM      9  C4  793 d   1     229.979  77.003 184.899  0.00  0.00    -0.075 A 
ATOM     10  C5  793 d   1     229.367  76.304 183.851  0.00  0.00    -0.082 A 
ATOM     11  H5  793 d   1     229.366  77.471 185.660  0.00  0.00     0.084 H 
ATOM     12  C6  793 d   1     230.146  75.699 182.862  0.00  0.00    -0.083 A 
ATOM     13  H6  793 d   1     228.286  76.232 183.807  0.00  0.00     0.083 H 
ATOM     14  C7  793 d   1     231.540  75.791 182.921  0.00  0.00    -0.082 A 
ATOM     15  H7  793 d   1     229.671  75.159 182.051  0.00  0.00     0.083 H 
ATOM     16  C8  793 d   1     232.154  76.489 183.970  0.00  0.00    -0.075 A 
ATOM     17  H12 793 d   1     232.147  75.322 182.155  0.00  0.00     0.083 H 
ATOM     18  H13 793 d   1     233.235  76.556 184.008  0.00  0.00     0.084 H 
ENDBRANCH   2   8
ENDBRANCH   1   2
BRANCH   1  19
ATOM     19  C9  793 d   1     232.735  79.959 184.990  0.00  0.00     0.139 A 
ATOM     20  C12 793 d   1     231.424  80.554 184.687  0.00  0.00     0.254 A 
ATOM     21  C11 793 d   1     232.127  81.697 184.111  0.00  0.00     0.255 A 
ATOM     22  O2  793 d   1     230.245  80.347 184.786  0.00  0.00    -0.281 OA
ATOM     23  C10 793 d   1     233.399  81.033 184.448  0.00  0.00     0.144 A 
ATOM     24  O1  793 d   1     231.685  82.696 183.608  0.00  0.00    -0.281 OA
BRANCH  23  25
ATOM     25  N2  793 d   1     234.619  81.472 184.225  0.00  0.00    -0.242 NA
BRANCH  25  26
ATOM     26  C13 793 d   1     235.163  82.674 183.703  0.00  0.00     0.060 A 
ATOM     27  C14 793 d   1     234.452  83.865 183.495  0.00  0.00    -0.038 A 
ATOM     28  C15 793 d   1     235.120  84.972 182.980  0.00  0.00     0.004 A 
ATOM     29  H8  793 d   1     233.396  83.922 183.732  0.00  0.00     0.089 H 
ATOM     30  N3  793 d   1     236.435  84.979 182.664  0.00  0.00    -0.273 NA
ATOM     31  H9  793 d   1     234.553  85.882 182.823  0.00  0.00     0.114 H 
ATOM     32  C16 793 d   1     237.112  83.826 182.870  0.00  0.00     0.004 A 
ATOM     33  C17 793 d   1     236.532  82.669 183.379  0.00  0.00    -0.038 A 
ATOM     34  H10 793 d   1     238.167  83.803 182.624  0.00  0.00     0.114 H 
ATOM     35  H11 793 d   1     237.127  81.775 183.524  0.00  0.00     0.089 H 
ENDBRANCH  25  26
ENDBRANCH  23  25
ENDBRANCH   1  19
TORSDOF 6
