REMARK  9 active torsions:
REMARK  status: ('A' for Active; 'I' for Inactive)
REMARK    1  A    between atoms: C2_2  and  C2A_3 
REMARK    2  A    between atoms: C3_4  and  O3_5 
REMARK    3  A    between atoms: C5_6  and  C5A_8 
REMARK    4  A    between atoms: C5A_8  and  OP4_9 
REMARK    5  A    between atoms: OP4_9  and  P_10 
REMARK    6  A    between atoms: C4A_15  and  C4_14 
REMARK    7  A    between atoms: N9_25  and  C4A_15 
REMARK    8  A    between atoms: C8_17  and  C7_16 
REMARK    9  A    between atoms: C10_20  and  N9_25 
ROOT
ATOM      1  N1  PXG d   1       4.194  15.952 -34.310  0.00  0.00    -0.262 NA
ATOM      2  C2  PXG d   1       4.113  17.060 -35.175  0.00  0.00     0.064 A 
ATOM      3  C3  PXG d   1       4.769  18.303 -34.813  0.00  0.00     0.098 A 
ATOM      4  C5  PXG d   1       5.552  17.325 -32.723  0.00  0.00    -0.006 A 
ATOM      5  C6  PXG d   1       4.908  16.110 -33.110  0.00  0.00     0.011 A 
ATOM      6  C4  PXG d   1       5.489  18.459 -33.621  0.00  0.00     0.004 A 
ATOM      7  H5  PXG d   1       4.974  15.261 -32.439  0.00  0.00     0.115 H 
ENDROOT
BRANCH   6   8
ATOM      8  C4A PXG d   1       6.202  19.886 -33.384  0.00  0.00     0.020 C 
ATOM      9  H8  PXG d   1       7.279  19.661 -33.396  0.00  0.00     0.071 H 
ATOM     10  H9  PXG d   1       5.900  20.179 -32.367  0.00  0.00     0.071 H 
BRANCH   8  11
ATOM     11  N9  PXG d   1       6.075  21.129 -34.180  0.00  0.00    -0.386 N 
ATOM     12  H14 PXG d   1       5.266  21.327 -34.787  0.00  0.00     0.160 HD
BRANCH  11  13
ATOM     13  C10 PXG d   1       7.129  21.992 -34.037  0.00  0.00     0.029 C 
ATOM     14  C9  PXG d   1       7.991  22.143 -32.849  0.00  0.00    -0.041 C 
ATOM     15  C8  PXG d   1       9.061  23.138 -32.823  0.00  0.00     0.043 C 
ATOM     16  H10 PXG d   1       7.829  21.508 -31.985  0.00  0.00     0.088 H 
ATOM     17  C13 PXG d   1       9.125  24.094 -33.815  0.00  0.00    -0.066 C 
ATOM     18  C12 PXG d   1       8.401  23.882 -35.031  0.00  0.00    -0.080 C 
ATOM     19  H13 PXG d   1       9.715  24.993 -33.676  0.00  0.00     0.085 H 
ATOM     20  C11 PXG d   1       7.369  22.800 -35.093  0.00  0.00    -0.058 C 
ATOM     21  H12 PXG d   1       8.598  24.500 -35.900  0.00  0.00     0.083 H 
ATOM     22  H11 PXG d   1       6.801  22.661 -36.006  0.00  0.00     0.086 H 
BRANCH  15  23
ATOM     23  C7  PXG d   1      10.157  23.192 -31.735  0.00  0.00     0.209 C 
ATOM     24  O2  PXG d   1      10.835  24.204 -31.489  0.00  0.00    -0.644 OA
ATOM     25  O8  PXG d   1      10.449  22.219 -31.008  0.00  0.00    -0.644 OA
ENDBRANCH  15  23
ENDBRANCH  11  13
ENDBRANCH   8  11
ENDBRANCH   6   8
BRANCH   3  26
ATOM     26  O3  PXG d   1       4.671  19.380 -35.585  0.00  0.00    -0.358 OA
ATOM     27  H4  PXG d   1       5.160  20.094 -35.194  0.00  0.00     0.217 HD
ENDBRANCH   3  26
BRANCH   4  28
ATOM     28  C5A PXG d   1       6.054  17.384 -31.286  0.00  0.00     0.058 C 
ATOM     29  H6  PXG d   1       7.023  17.901 -31.352  0.00  0.00     0.082 H 
ATOM     30  H7  PXG d   1       6.217  16.333 -31.006  0.00  0.00     0.082 H 
BRANCH  28  31
ATOM     31  OP4 PXG d   1       5.364  18.009 -30.061  0.00  0.00    -0.278 OA
BRANCH  31  32
ATOM     32  P   PXG d   1       6.318  18.862 -29.138  0.00  0.00     0.422 P 
ATOM     33  OP1 PXG d   1       5.295  19.393 -28.147  0.00  0.00    -0.617 OA
ATOM     34  OP2 PXG d   1       7.365  17.846 -28.303  0.00  0.00    -0.617 OA
ATOM     35  OP3 PXG d   1       7.189  19.785 -29.923  0.00  0.00    -0.617 OA
ENDBRANCH  31  32
ENDBRANCH  28  31
ENDBRANCH   4  28
BRANCH   2  36
ATOM     36  C2A PXG d   1       3.325  16.903 -36.440  0.00  0.00    -0.033 C 
ATOM     37  H1  PXG d   1       3.352  17.845 -37.008  0.00  0.00     0.035 H 
ATOM     38  H2  PXG d   1       2.282  16.653 -36.194  0.00  0.00     0.035 H 
ATOM     39  H3  PXG d   1       3.762  16.096 -37.047  0.00  0.00     0.035 H 
ENDBRANCH   2  36
TORSDOF 9
