REMARK  2 active torsions:
REMARK  status: ('A' for Active; 'I' for Inactive)
REMARK    1  A    between atoms: C1'_1  and  C1_4 
REMARK    2  A    between atoms: C3_6  and  N3_10 
ROOT
ATOM      1  C1  GAB d   1       9.535  24.372 -31.653  0.00  0.00     0.043 A 
ATOM      2  C2  GAB d   1      10.261  23.010 -31.646  0.00  0.00    -0.041 A 
ATOM      3  C3  GAB d   1       9.786  22.026 -32.670  0.00  0.00     0.026 A 
ATOM      4  C4  GAB d   1       8.713  22.345 -33.586  0.00  0.00    -0.058 A 
ATOM      5  C5  GAB d   1       8.103  23.578 -33.530  0.00  0.00    -0.080 A 
ATOM      6  C6  GAB d   1       8.519  24.601 -32.560  0.00  0.00    -0.066 A 
ATOM      7  H1  GAB d   1      11.059  22.782 -30.949  0.00  0.00     0.088 H 
ATOM      8  H2  GAB d   1       8.389  21.613 -34.317  0.00  0.00     0.086 H 
ATOM      9  H3  GAB d   1       7.296  23.800 -34.218  0.00  0.00     0.083 H 
ATOM     10  H4  GAB d   1       8.015  25.561 -32.556  0.00  0.00     0.085 H 
ENDROOT
BRANCH   1  11
ATOM     11  C1' GAB d   1       9.904  25.434 -30.706  0.00  0.00     0.209 C 
ATOM     12  O1' GAB d   1      10.756  25.456 -29.817  0.00  0.00    -0.644 OA
ATOM     13  O2' GAB d   1       9.324  26.630 -30.654  0.00  0.00    -0.644 OA
ENDBRANCH   1  11
BRANCH   3  14
ATOM     14  N3  GAB d   1      10.372  20.846 -32.727  0.00  0.00    -0.399 N 
ATOM     15  H5  GAB d   1      11.136  20.618 -32.075  0.00  0.00     0.156 HD
ATOM     16  H6  GAB d   1      10.066  20.152 -33.424  0.00  0.00     0.156 HD
ENDBRANCH   3  14
TORSDOF 2
