REMARK  8 active torsions:
REMARK  status: ('A' for Active; 'I' for Inactive)
REMARK       I    between atoms: C20_2  and  N22_3 
REMARK    1  A    between atoms: C20_2  and  C15_9 
REMARK    2  A    between atoms: N22_3  and  C23_4 
REMARK    3  A    between atoms: C23_4  and  C26_5 
REMARK    4  A    between atoms: C23_4  and  C27_6 
REMARK    5  A    between atoms: C23_4  and  C24_7 
REMARK    6  A    between atoms: C24_7  and  O25_8 
REMARK    7  A    between atoms: N11_13  and  C19_14 
REMARK    8  A    between atoms: C10_18  and  C9_19 
ROOT
ATOM      1  C15 057 d   1      -6.171  -4.417  11.264  0.00  0.00     0.033 A 
ATOM      2  C16 057 d   1      -7.322  -3.904  11.878  0.00  0.00    -0.066 A 
ATOM      3  C18 057 d   1      -7.243  -2.829  12.766  0.00  0.00    -0.055 A 
ATOM      4  C13 057 d   1      -6.009  -2.243  13.062  0.00  0.00     0.045 A 
ATOM      5  N11 057 d   1      -5.661  -1.214  13.875  0.00  0.00    -0.360 N 
ATOM      6  C12 057 d   1      -4.328  -1.021  13.824  0.00  0.00    -0.007 A 
ATOM      7  C17 057 d   1      -4.921  -3.837  11.557  0.00  0.00    -0.055 A 
ATOM      8  C14 057 d   1      -4.860  -2.757  12.447  0.00  0.00     0.005 A 
ATOM      9  C10 057 d   1      -3.834  -1.974  12.951  0.00  0.00     0.019 A 
ATOM     10  H11 057 d   1      -8.287  -4.348  11.661  0.00  0.00     0.085 H 
ATOM     11  H12 057 d   1      -8.145  -2.446  13.229  0.00  0.00     0.087 H 
ATOM     12  H16 057 d   1      -3.755  -0.267  14.362  0.00  0.00     0.113 H 
ATOM     13  H17 057 d   1      -4.017  -4.222  11.099  0.00  0.00     0.086 H 
ENDROOT
BRANCH   1  14
ATOM     14  C20 057 d   1      -6.332  -5.583  10.308  0.00  0.00     0.252 C 
ATOM     15  O21 057 d   1      -7.476  -5.983  10.095  0.00  0.00    -0.268 OA
ATOM     16  N22 057 d   1      -5.266  -6.151   9.719  0.00  0.00    -0.346 N 
ATOM     17  H1  057 d   1      -4.368  -5.772   9.942  0.00  0.00     0.163 HD
BRANCH  16  18
ATOM     18  C23 057 d   1      -5.300  -7.285   8.772  0.00  0.00     0.047 C 
BRANCH  18  19
ATOM     19  C26 057 d   1      -6.170  -8.452   9.241  0.00  0.00    -0.051 C 
ATOM     20  H2  057 d   1      -6.146  -9.253   8.488  0.00  0.00     0.030 H 
ATOM     21  H3  057 d   1      -7.206  -8.107   9.375  0.00  0.00     0.030 H 
ATOM     22  H4  057 d   1      -5.785  -8.836  10.197  0.00  0.00     0.030 H 
ENDBRANCH  18  19
BRANCH  18  23
ATOM     23  C27 057 d   1      -5.851  -6.840   7.412  0.00  0.00    -0.051 C 
ATOM     24  H5  057 d   1      -5.867  -7.698   6.724  0.00  0.00     0.030 H 
ATOM     25  H6  057 d   1      -5.208  -6.050   6.997  0.00  0.00     0.030 H 
ATOM     26  H7  057 d   1      -6.873  -6.453   7.539  0.00  0.00     0.030 H 
ENDBRANCH  18  23
BRANCH  18  27
ATOM     27  C24 057 d   1      -3.872  -7.808   8.577  0.00  0.00     0.039 C 
ATOM     28  H8  057 d   1      -3.459  -8.061   9.565  0.00  0.00     0.077 H 
ATOM     29  H9  057 d   1      -3.270  -7.008   8.122  0.00  0.00     0.077 H 
BRANCH  27  30
ATOM     30  O25 057 d   1      -3.783  -8.978   7.734  0.00  0.00    -0.398 OA
ATOM     31  H10 057 d   1      -4.127  -8.773   6.872  0.00  0.00     0.209 HD
ENDBRANCH  27  30
ENDBRANCH  18  27
ENDBRANCH  16  18
ENDBRANCH   1  14
BRANCH   9  32
ATOM     32  C9  057 d   1      -2.463  -2.052  12.657  0.00  0.00     0.047 A 
ATOM     33  N5  057 d   1      -1.666  -0.976  12.813  0.00  0.00    -0.340 N 
ATOM     34  C6  057 d   1      -0.420  -1.335  12.475  0.00  0.00     0.138 A 
ATOM     35  H18 057 d   1      -1.962  -0.043  13.135  0.00  0.00     0.167 HD
ATOM     36  C7  057 d   1      -0.498  -2.669  12.101  0.00  0.00     0.012 A 
ATOM     37  N4  057 d   1       0.761  -0.666  12.421  0.00  0.00    -0.242 NA
ATOM     38  C8  057 d   1      -1.828  -3.194  12.202  0.00  0.00    -0.043 A 
ATOM     39  C3  057 d   1       0.654  -3.331  11.669  0.00  0.00    -0.068 A 
ATOM     40  H19 057 d   1      -2.219  -4.187  11.987  0.00  0.00     0.088 H 
ATOM     41  C2  057 d   1       1.861  -2.627  11.632  0.00  0.00    -0.065 A 
ATOM     42  H20 057 d   1       0.613  -4.372  11.368  0.00  0.00     0.085 H 
ATOM     43  C1  057 d   1       1.889  -1.289  12.019  0.00  0.00     0.004 A 
ATOM     44  H21 057 d   1       2.770  -3.119  11.304  0.00  0.00     0.085 H 
ATOM     45  H22 057 d   1       2.825  -0.743  11.997  0.00  0.00     0.114 H 
ENDBRANCH   9  32
BRANCH   5  46
ATOM     46  C19 057 d   1      -6.591  -0.397  14.699  0.00  0.00    -0.014 C 
ATOM     47  H13 057 d   1      -6.019   0.363  15.253  0.00  0.00     0.057 H 
ATOM     48  H14 057 d   1      -7.120  -1.049  15.410  0.00  0.00     0.057 H 
ATOM     49  H15 057 d   1      -7.322   0.100  14.044  0.00  0.00     0.057 H 
ENDBRANCH   5  46
TORSDOF 8
