REMARK  10 active torsions:
REMARK  status: ('A' for Active; 'I' for Inactive)
REMARK    1  A    between atoms: C10_10  and  C2_2 
REMARK    2  A    between atoms: C17_17  and  C4_4 
REMARK    3  A    between atoms: C11_11  and  N23_23 
REMARK    4  A    between atoms: C18_18  and  C19_19 
REMARK       I    between atoms: C19_19  and  N21_21 
REMARK    5  A    between atoms: N21_21  and  C22_22 
REMARK    6  A    between atoms: N23_23  and  S24_24 
REMARK    7  A    between atoms: N23_23  and  C29_29 
REMARK    8  A    between atoms: S24_24  and  C27_27 
REMARK    9  A    between atoms: C29_29  and  C30_30 
REMARK   10  A    between atoms: C30_30  and  O31_31 
ROOT
ATOM      1  C10 79Z d   1     -49.133  10.146  11.015  0.00  0.00    -0.025 A 
ATOM      2  C11 79Z d   1     -49.555  10.734  12.237  0.00  0.00     0.054 A 
ATOM      3  C12 79Z d   1     -49.037  11.963  12.631  0.00  0.00    -0.022 A 
ATOM      4  C13 79Z d   1     -48.221  10.850  10.221  0.00  0.00    -0.061 A 
ATOM      5  C14 79Z d   1     -47.706  12.088  10.634  0.00  0.00     0.017 A 
ATOM      6  C15 79Z d   1     -48.121  12.647  11.852  0.00  0.00     0.089 A 
ATOM      7  O16 79Z d   1     -47.502  13.832  12.034  0.00  0.00    -0.308 OA
ATOM      8  C17 79Z d   1     -46.698  14.115  11.003  0.00  0.00     0.103 A 
ATOM      9  C18 79Z d   1     -46.743  13.064  10.075  0.00  0.00     0.079 A 
ATOM     10  H10 79Z d   1     -49.359  12.396  13.571  0.00  0.00     0.091 H 
ATOM     11  H11 79Z d   1     -47.907  10.432   9.271  0.00  0.00     0.086 H 
ENDROOT
BRANCH   2  12
ATOM     12  N23 79Z d   1     -50.438  10.175  13.180  0.00  0.00    -0.274 N 
BRANCH  12  13
ATOM     13  S24 79Z d   1     -49.762   9.327  14.452  0.00  0.00     0.229 S 
ATOM     14  O25 79Z d   1     -50.568   8.166  14.616  0.00  0.00    -0.206 OA
ATOM     15  O26 79Z d   1     -48.382   9.115  14.215  0.00  0.00    -0.206 OA
BRANCH  13  16
ATOM     16  C27 79Z d   1     -49.911  10.451  15.867  0.00  0.00     0.033 C 
ATOM     17  H16 79Z d   1     -49.487   9.972  16.762  0.00  0.00     0.051 H 
ATOM     18  H17 79Z d   1     -50.972  10.681  16.043  0.00  0.00     0.051 H 
ATOM     19  H18 79Z d   1     -49.364  11.382  15.655  0.00  0.00     0.051 H 
ENDBRANCH  13  16
ENDBRANCH  12  13
BRANCH  12  20
ATOM     20  C29 79Z d   1     -51.888  10.403  13.161  0.00  0.00     0.030 C 
ATOM     21  H19 79Z d   1     -52.065  11.486  13.237  0.00  0.00     0.069 H 
ATOM     22  H20 79Z d   1     -52.325   9.898  14.036  0.00  0.00     0.069 H 
BRANCH  20  23
ATOM     23  C30 79Z d   1     -52.602   9.893  11.915  0.00  0.00     0.033 C 
ATOM     24  H21 79Z d   1     -52.989   8.877  12.085  0.00  0.00     0.076 H 
ATOM     25  H22 79Z d   1     -51.914   9.885  11.056  0.00  0.00     0.076 H 
BRANCH  23  26
ATOM     26  O31 79Z d   1     -53.679  10.803  11.681  0.00  0.00    -0.399 OA
ATOM     27  H23 79Z d   1     -54.161  10.530  10.909  0.00  0.00     0.209 HD
ENDBRANCH  23  26
ENDBRANCH  20  23
ENDBRANCH  12  20
ENDBRANCH   2  12
BRANCH   1  28
ATOM     28  C2  79Z d   1     -49.681   8.810  10.537  0.00  0.00    -0.026 A 
ATOM     29  C1  79Z d   1     -50.271   8.731   9.119  0.00  0.00    -0.057 A 
ATOM     30  C3  79Z d   1     -48.957   8.016   9.441  0.00  0.00    -0.057 A 
ATOM     31  H1  79Z d   1     -50.269   9.621   8.472  0.00  0.00     0.034 H 
ATOM     32  H2  79Z d   1     -51.184   8.146   8.935  0.00  0.00     0.034 H 
ATOM     33  H4  79Z d   1     -48.011   8.392   9.025  0.00  0.00     0.034 H 
ATOM     34  H5  79Z d   1     -48.926   6.917   9.488  0.00  0.00     0.034 H 
ATOM     35  H3  79Z d   1     -50.158   8.281  11.375  0.00  0.00     0.047 H 
ENDBRANCH   1  28
BRANCH   9  36
ATOM     36  C19 79Z d   1     -46.034  12.902   8.804  0.00  0.00     0.255 C 
ATOM     37  O20 79Z d   1     -45.236  11.989   8.703  0.00  0.00    -0.268 OA
ATOM     38  N21 79Z d   1     -46.293  13.720   7.764  0.00  0.00    -0.361 N 
ATOM     39  H12 79Z d   1     -46.975  14.442   7.879  0.00  0.00     0.162 HD
BRANCH  38  40
ATOM     40  C22 79Z d   1     -45.611  13.591   6.468  0.00  0.00    -0.018 C 
ATOM     41  H13 79Z d   1     -45.984  14.363   5.779  0.00  0.00     0.056 H 
ATOM     42  H14 79Z d   1     -45.811  12.595   6.046  0.00  0.00     0.056 H 
ATOM     43  H15 79Z d   1     -44.528  13.718   6.609  0.00  0.00     0.056 H 
ENDBRANCH  38  40
ENDBRANCH   9  36
BRANCH   8  44
ATOM     44  C4  79Z d   1     -45.872  15.330  11.038  0.00  0.00    -0.001 A 
ATOM     45  C5  79Z d   1     -44.629  15.364  10.386  0.00  0.00    -0.067 A 
ATOM     46  C6  79Z d   1     -43.847  16.490  10.489  0.00  0.00    -0.045 A 
ATOM     47  H6  79Z d   1     -44.290  14.512   9.808  0.00  0.00     0.085 H 
ATOM     48  C7  79Z d   1     -44.275  17.563  11.261  0.00  0.00     0.116 A 
ATOM     49  H7  79Z d   1     -42.898  16.541   9.969  0.00  0.00     0.088 H 
ATOM     50  C8  79Z d   1     -45.486  17.533  11.931  0.00  0.00    -0.045 A 
ATOM     51  F28 79Z d   1     -43.491  18.642  11.358  0.00  0.00    -0.206 F 
ATOM     52  C9  79Z d   1     -46.281  16.405  11.839  0.00  0.00    -0.067 A 
ATOM     53  H8  79Z d   1     -45.807  18.384  12.521  0.00  0.00     0.088 H 
ATOM     54  H9  79Z d   1     -47.217  16.352  12.384  0.00  0.00     0.085 H 
ENDBRANCH   8  44
TORSDOF 10
