REMARK  12 active torsions:
REMARK  status: ('A' for Active; 'I' for Inactive)
REMARK    1  A    between atoms: C4_4  and  N10_10 
REMARK    2  A    between atoms: N21_21  and  C7_7 
REMARK    3  A    between atoms: C9_9  and  C30_30 
REMARK    4  A    between atoms: C9_9  and  C31_31 
REMARK    5  A    between atoms: N10_10  and  C14_14 
REMARK    6  A    between atoms: C12_12  and  O27_27 
REMARK    7  A    between atoms: C15_15  and  O29_29 
REMARK    8  A    between atoms: C16_16  and  O28_28 
REMARK    9  A    between atoms: C18_18  and  N21_21 
REMARK   10  A    between atoms: O27_27  and  C32_32 
REMARK   11  A    between atoms: O28_28  and  C33_33 
REMARK   12  A    between atoms: O29_29  and  C34_34 
ROOT
ATOM      1  N2  585 d   1       2.778   0.208  14.522  0.00  0.00    -0.042 NA
ATOM      2  C4  585 d   1       3.915   0.792  14.153  0.00  0.00     0.188 A 
ATOM      3  C7  585 d   1       2.712  -0.529  15.623  0.00  0.00     0.728 A 
ATOM      4  C11 585 d   1       5.051   0.601  14.935  0.00  0.00     0.180 A 
ATOM      5  N17 585 d   1       3.779  -0.723  16.382  0.00  0.00    -0.072 NA
ATOM      6  C22 585 d   1       4.952  -0.176  16.080  0.00  0.00     0.062 A 
ATOM      7  F25 585 d   1       6.200   1.205  14.585  0.00  0.00    -0.200 F 
ATOM      8  H6  585 d   1       5.815  -0.334  16.716  0.00  0.00     0.120 H 
ENDROOT
BRANCH   3   9
ATOM      9  N21 585 d   1       1.519  -1.125  16.004  0.00  0.00    -0.188 N 
ATOM     10  H5  585 d   1       1.560  -1.823  16.761  0.00  0.00     0.184 HD
BRANCH   9  11
ATOM     11  C18 585 d   1       0.254  -0.856  15.442  0.00  0.00     0.054 A 
ATOM     12  C19 585 d   1      -0.718  -1.851  15.575  0.00  0.00    -0.022 A 
ATOM     13  C15 585 d   1      -2.003  -1.681  15.059  0.00  0.00     0.106 A 
ATOM     14  H3  585 d   1      -0.469  -2.772  16.089  0.00  0.00     0.091 H 
ATOM     15  C12 585 d   1      -2.327  -0.488  14.385  0.00  0.00     0.135 A 
ATOM     16  C16 585 d   1      -1.366   0.531  14.254  0.00  0.00     0.106 A 
ATOM     17  C20 585 d   1      -0.075   0.344  14.785  0.00  0.00    -0.022 A 
ATOM     18  H4  585 d   1       0.668   1.127  14.687  0.00  0.00     0.091 H 
BRANCH  13  19
ATOM     19  O29 585 d   1      -2.952  -2.665  15.194  0.00  0.00    -0.353 OA
BRANCH  19  20
ATOM     20  C34 585 d   1      -2.402  -3.806  15.871  0.00  0.00     0.010 C 
ATOM     21  H21 585 d   1      -3.175  -4.582  15.970  0.00  0.00     0.066 H 
ATOM     22  H22 585 d   1      -2.054  -3.507  16.870  0.00  0.00     0.066 H 
ATOM     23  H23 585 d   1      -1.556  -4.204  15.291  0.00  0.00     0.066 H 
ENDBRANCH  19  20
ENDBRANCH  13  19
BRANCH  15  24
ATOM     24  O27 585 d   1      -3.594  -0.290  13.897  0.00  0.00    -0.351 OA
BRANCH  24  25
ATOM     25  C32 585 d   1      -3.782  -0.805  12.577  0.00  0.00     0.011 C 
ATOM     26  H15 585 d   1      -4.815  -0.612  12.252  0.00  0.00     0.067 H 
ATOM     27  H16 585 d   1      -3.594  -1.889  12.576  0.00  0.00     0.067 H 
ATOM     28  H17 585 d   1      -3.082  -0.311  11.887  0.00  0.00     0.067 H 
ENDBRANCH  24  25
ENDBRANCH  15  24
BRANCH  16  29
ATOM     29  O28 585 d   1      -1.742   1.672  13.591  0.00  0.00    -0.353 OA
BRANCH  29  30
ATOM     30  C33 585 d   1      -0.719   2.682  13.616  0.00  0.00     0.010 C 
ATOM     31  H18 585 d   1      -1.069   3.572  13.073  0.00  0.00     0.066 H 
ATOM     32  H19 585 d   1       0.191   2.294  13.135  0.00  0.00     0.066 H 
ATOM     33  H20 585 d   1      -0.496   2.953  14.659  0.00  0.00     0.066 H 
ENDBRANCH  29  30
ENDBRANCH  16  29
ENDBRANCH   9  11
ENDBRANCH   3   9
BRANCH   2  34
ATOM     34  N10 585 d   1       4.031   1.590  13.024  0.00  0.00    -0.323 N 
ATOM     35  H2  585 d   1       4.972   1.948  12.809  0.00  0.00     0.169 HD
BRANCH  34  36
ATOM     36  C14 585 d   1       3.006   1.960  12.147  0.00  0.00     0.131 A 
ATOM     37  N6  585 d   1       3.091   3.162  11.589  0.00  0.00    -0.211 NA
ATOM     38  C3  585 d   1       2.190   3.596  10.724  0.00  0.00     0.166 A 
ATOM     39  N1  585 d   1       2.323   4.880  10.175  0.00  0.00    -0.307 N 
ATOM     40  C13 585 d   1       1.094   2.804  10.367  0.00  0.00     0.116 A 
ATOM     41  C5  585 d   1       1.254   5.428   9.541  0.00  0.00     0.258 C 
ATOM     42  H1  585 d   1       3.186   5.381  10.249  0.00  0.00     0.170 HD
ATOM     43  C9  585 d   1      -0.044   4.650   9.432  0.00  0.00     0.141 C 
ATOM     44  O23 585 d   1       1.349   6.543   9.075  0.00  0.00    -0.270 OA
ATOM     45  O8  585 d   1       0.151   3.233   9.482  0.00  0.00    -0.327 OA
ATOM     46  C24 585 d   1       0.971   1.531  10.926  0.00  0.00    -0.043 A 
ATOM     47  C26 585 d   1       1.944   1.107  11.824  0.00  0.00    -0.036 A 
ATOM     48  H7  585 d   1       0.137   0.889  10.666  0.00  0.00     0.088 H 
ATOM     49  H8  585 d   1       1.881   0.122  12.271  0.00  0.00     0.089 H 
BRANCH  43  50
ATOM     50  C30 585 d   1      -1.006   5.079  10.548  0.00  0.00    -0.039 C 
ATOM     51  H9  585 d   1      -1.944   4.511  10.462  0.00  0.00     0.032 H 
ATOM     52  H10 585 d   1      -1.219   6.154  10.455  0.00  0.00     0.032 H 
ATOM     53  H11 585 d   1      -0.545   4.880  11.527  0.00  0.00     0.032 H 
ENDBRANCH  43  50
BRANCH  43  54
ATOM     54  C31 585 d   1      -0.699   4.968   8.080  0.00  0.00    -0.039 C 
ATOM     55  H12 585 d   1      -1.642   4.409   7.989  0.00  0.00     0.032 H 
ATOM     56  H13 585 d   1      -0.020   4.676   7.266  0.00  0.00     0.032 H 
ATOM     57  H14 585 d   1      -0.904   6.047   8.017  0.00  0.00     0.032 H 
ENDBRANCH  43  54
ENDBRANCH  34  36
ENDBRANCH   2  34
TORSDOF 12
