REMARK  3 active torsions:
REMARK  status: ('A' for Active; 'I' for Inactive)
REMARK    1  A    between atoms: C7_2  and  C1_4 
REMARK    2  A    between atoms: N1_15  and  C20_17 
REMARK    3  A    between atoms: C20_17  and  C19_18 
ROOT
ATOM      1  C1  8CA d   1      19.146   5.840   2.700  0.00  0.00     0.068 A 
ATOM      2  C2  8CA d   1      18.843   6.032   4.038  0.00  0.00    -0.064 A 
ATOM      3  C3  8CA d   1      19.770   5.823   5.053  0.00  0.00    -0.081 A 
ATOM      4  C4  8CA d   1      21.078   5.400   4.829  0.00  0.00    -0.070 A 
ATOM      5  C5  8CA d   1      21.479   5.167   3.526  0.00  0.00     0.004 A 
ATOM      6  C8  8CA d   1      22.736   4.743   2.894  0.00  0.00     0.003 A 
ATOM      7  C13 8CA d   1      24.041   4.360   3.535  0.00  0.00    -0.070 C 
ATOM      8  C12 8CA d   1      25.109   4.173   2.465  0.00  0.00    -0.082 C 
ATOM      9  C11 8CA d   1      24.645   3.603   1.123  0.00  0.00    -0.081 C 
ATOM     10  C10 8CA d   1      23.483   4.345   0.441  0.00  0.00    -0.056 C 
ATOM     11  C9  8CA d   1      22.423   4.735   1.444  0.00  0.00     0.046 A 
ATOM     12  N1  8CA d   1      21.119   5.100   1.220  0.00  0.00    -0.340 N 
ATOM     13  C6  8CA d   1      20.532   5.372   2.401  0.00  0.00     0.063 A 
ATOM     14  H1  8CA d   1      17.844   6.358   4.304  0.00  0.00     0.085 H 
ATOM     15  H2  8CA d   1      19.457   5.999   6.076  0.00  0.00     0.083 H 
ATOM     16  H3  8CA d   1      21.765   5.257   5.655  0.00  0.00     0.084 H 
ATOM     17  H4  8CA d   1      24.198   4.235   4.600  0.00  0.00     0.084 H 
ATOM     18  H5  8CA d   1      26.146   4.431   2.645  0.00  0.00     0.083 H 
ATOM     19  H6  8CA d   1      25.108   2.729   0.679  0.00  0.00     0.083 H 
ATOM     20  H7  8CA d   1      23.431   4.560  -0.620  0.00  0.00     0.087 H 
ENDROOT
BRANCH  12  21
ATOM     21  C20 8CA d   1      20.511   5.260  -0.100  0.00  0.00     0.024 C 
ATOM     22  H8  8CA d   1      21.200   5.878  -0.695  0.00  0.00     0.072 H 
ATOM     23  H9  8CA d   1      19.566   5.804   0.049  0.00  0.00     0.072 H 
BRANCH  21  24
ATOM     24  C19 8CA d   1      20.190   4.050  -0.926  0.00  0.00    -0.040 A 
ATOM     25  C18 8CA d   1      20.298   2.777  -0.400  0.00  0.00    -0.075 A 
ATOM     26  C17 8CA d   1      19.997   1.679  -1.208  0.00  0.00    -0.082 A 
ATOM     27  H10 8CA d   1      20.613   2.633   0.627  0.00  0.00     0.084 H 
ATOM     28  C16 8CA d   1      19.566   1.873  -2.520  0.00  0.00    -0.083 A 
ATOM     29  H11 8CA d   1      20.099   0.674  -0.815  0.00  0.00     0.083 H 
ATOM     30  C15 8CA d   1      19.461   3.161  -3.041  0.00  0.00    -0.082 A 
ATOM     31  H12 8CA d   1      19.312   1.019  -3.137  0.00  0.00     0.083 H 
ATOM     32  C14 8CA d   1      19.770   4.257  -2.239  0.00  0.00    -0.075 A 
ATOM     33  H13 8CA d   1      19.140   3.309  -4.066  0.00  0.00     0.083 H 
ATOM     34  H14 8CA d   1      19.684   5.263  -2.633  0.00  0.00     0.084 H 
ENDBRANCH  21  24
ENDBRANCH  12  21
BRANCH   1  35
ATOM     35  C7  8CA d   1      18.040   6.088   1.723  0.00  0.00     0.211 C 
ATOM     36  O1  8CA d   1      17.602   5.164   1.055  0.00  0.00    -0.644 OA
ATOM     37  O2  8CA d   1      17.400   7.254   1.638  0.00  0.00    -0.644 OA
ENDBRANCH   1  35
TORSDOF 3
