REMARK  4 active torsions:
REMARK  status: ('A' for Active; 'I' for Inactive)
REMARK    1  A    between atoms: C24_2  and  C19_5 
REMARK    2  A    between atoms: C18_10  and  C17_11 
REMARK    3  A    between atoms: C17_11  and  N9_12 
REMARK    4  A    between atoms: C2_24  and  C10_25 
ROOT
ATOM      1  N9  F8A d   1      21.457   5.026   1.121  0.00  0.00    -0.344 N 
ATOM      2  C8  F8A d   1      22.714   4.574   1.398  0.00  0.00     0.019 A 
ATOM      3  C16 F8A d   1      23.818   4.121   0.460  0.00  0.00    -0.026 C 
ATOM      4  C15 F8A d   1      24.885   3.445   1.305  0.00  0.00    -0.060 C 
ATOM      5  C14 F8A d   1      25.260   4.307   2.509  0.00  0.00    -0.061 C 
ATOM      6  C13 F8A d   1      24.177   4.137   3.563  0.00  0.00    -0.038 C 
ATOM      7  C7  F8A d   1      22.910   4.565   2.862  0.00  0.00    -0.023 A 
ATOM      8  C1  F8A d   1      20.767   5.327   2.260  0.00  0.00     0.063 A 
ATOM      9  C6  F8A d   1      21.644   5.079   3.417  0.00  0.00     0.000 A 
ATOM     10  C5  F8A d   1      21.188   5.323   4.702  0.00  0.00    -0.070 A 
ATOM     11  C4  F8A d   1      19.887   5.809   4.869  0.00  0.00    -0.081 A 
ATOM     12  C3  F8A d   1      19.028   6.082   3.813  0.00  0.00    -0.064 A 
ATOM     13  C2  F8A d   1      19.366   5.849   2.476  0.00  0.00     0.068 A 
ATOM     14  H7  F8A d   1      24.247   4.989  -0.063  0.00  0.00     0.042 H 
ATOM     15  H8  F8A d   1      23.416   3.410  -0.277  0.00  0.00     0.042 H 
ATOM     16  H9  F8A d   1      25.781   3.280   0.688  0.00  0.00     0.033 H 
ATOM     17  H10 F8A d   1      24.502   2.477   1.661  0.00  0.00     0.033 H 
ATOM     18  H11 F8A d   1      25.325   5.363   2.207  0.00  0.00     0.033 H 
ATOM     19  H12 F8A d   1      26.230   3.982   2.914  0.00  0.00     0.033 H 
ATOM     20  H13 F8A d   1      24.376   4.778   4.435  0.00  0.00     0.040 H 
ATOM     21  H14 F8A d   1      24.109   3.088   3.887  0.00  0.00     0.040 H 
ATOM     22  H15 F8A d   1      21.826   5.141   5.560  0.00  0.00     0.084 H 
ATOM     23  H16 F8A d   1      19.530   5.982   5.878  0.00  0.00     0.083 H 
ATOM     24  H17 F8A d   1      18.050   6.495   4.035  0.00  0.00     0.085 H 
ENDROOT
BRANCH   1  25
ATOM     25  C17 F8A d   1      20.926   5.179  -0.225  0.00  0.00     0.025 C 
ATOM     26  H5  F8A d   1      20.066   5.863  -0.192  0.00  0.00     0.072 H 
ATOM     27  H6  F8A d   1      21.709   5.606  -0.869  0.00  0.00     0.072 H 
BRANCH  25  28
ATOM     28  C18 F8A d   1      20.480   3.866  -0.807  0.00  0.00    -0.025 A 
ATOM     29  C19 F8A d   1      20.401   3.750  -2.288  0.00  0.00     0.055 A 
ATOM     30  C20 F8A d   1      19.976   2.555  -2.858  0.00  0.00    -0.068 A 
ATOM     31  C21 F8A d   1      19.682   1.485  -2.017  0.00  0.00    -0.082 A 
ATOM     32  H1  F8A d   1      19.876   2.459  -3.933  0.00  0.00     0.084 H 
ATOM     33  C22 F8A d   1      19.774   1.578  -0.612  0.00  0.00    -0.082 A 
ATOM     34  H2  F8A d   1      19.371   0.545  -2.458  0.00  0.00     0.083 H 
ATOM     35  C23 F8A d   1      20.164   2.771   0.000  0.00  0.00    -0.074 A 
ATOM     36  H3  F8A d   1      19.539   0.714  -0.001  0.00  0.00     0.083 H 
ATOM     37  H4  F8A d   1      20.220   2.846   1.080  0.00  0.00     0.084 H 
BRANCH  29  38
ATOM     38  C24 F8A d   1      20.703   4.919  -3.167  0.00  0.00     0.418 C 
ATOM     39  F27 F8A d   1      20.395   4.620  -4.417  0.00  0.00    -0.166 F 
ATOM     40  F25 F8A d   1      21.964   5.203  -3.090  0.00  0.00    -0.166 F 
ATOM     41  F26 F8A d   1      19.995   5.955  -2.777  0.00  0.00    -0.166 F 
ENDBRANCH  29  38
ENDBRANCH  25  28
ENDBRANCH   1  25
BRANCH  13  42
ATOM     42  C10 F8A d   1      18.288   6.234   1.477  0.00  0.00     0.211 C 
ATOM     43  O12 F8A d   1      17.713   7.301   1.622  0.00  0.00    -0.644 OA
ATOM     44  O11 F8A d   1      17.873   5.474   0.467  0.00  0.00    -0.644 OA
ENDBRANCH  13  42
TORSDOF 4
