REMARK  4 active torsions:
REMARK  status: ('A' for Active; 'I' for Inactive)
REMARK    1  A    between atoms: C25_2  and  C4_4 
REMARK    2  A    between atoms: N5_17  and  C15_18 
REMARK    3  A    between atoms: C15_18  and  C16_19 
REMARK    4  A    between atoms: C18_21  and  C22_22 
REMARK       I    between atoms: C22_22  and  N24_23 
ROOT
ATOM      1  C4  I4A d   1      18.816   5.943   3.589  0.00  0.00     0.068 A 
ATOM      2  C6  I4A d   1      20.084   5.217   3.317  0.00  0.00     0.063 A 
ATOM      3  C7  I4A d   1      21.226   5.429   4.237  0.00  0.00     0.000 A 
ATOM      4  C9  I4A d   1      22.300   4.584   3.671  0.00  0.00    -0.023 A 
ATOM      5  C10 I4A d   1      23.713   4.350   4.120  0.00  0.00    -0.038 C 
ATOM      6  C12 I4A d   1      24.682   4.682   2.990  0.00  0.00    -0.061 C 
ATOM      7  C14 I4A d   1      24.850   3.619   1.905  0.00  0.00    -0.064 C 
ATOM      8  C13 I4A d   1      23.587   3.633   1.013  0.00  0.00    -0.060 C 
ATOM      9  C11 I4A d   1      22.344   2.948   1.582  0.00  0.00    -0.026 C 
ATOM     10  C8  I4A d   1      21.659   3.921   2.490  0.00  0.00     0.019 A 
ATOM     11  C3  I4A d   1      21.079   6.299   5.320  0.00  0.00    -0.070 A 
ATOM     12  C2  I4A d   1      19.870   6.962   5.540  0.00  0.00    -0.081 A 
ATOM     13  C1  I4A d   1      18.776   6.783   4.690  0.00  0.00    -0.064 A 
ATOM     14  N5  I4A d   1      20.397   4.316   2.349  0.00  0.00    -0.344 N 
ATOM     15  H1  I4A d   1      23.834   3.295   4.405  0.00  0.00     0.040 H 
ATOM     16  H2  I4A d   1      23.931   4.992   4.987  0.00  0.00     0.040 H 
ATOM     17  H3  I4A d   1      25.670   4.862   3.438  0.00  0.00     0.033 H 
ATOM     18  H4  I4A d   1      24.327   5.603   2.504  0.00  0.00     0.033 H 
ATOM     19  H5  I4A d   1      24.967   2.629   2.369  0.00  0.00     0.033 H 
ATOM     20  H6  I4A d   1      25.738   3.846   1.296  0.00  0.00     0.033 H 
ATOM     21  H7  I4A d   1      23.840   3.133   0.066  0.00  0.00     0.033 H 
ATOM     22  H8  I4A d   1      23.329   4.684   0.815  0.00  0.00     0.033 H 
ATOM     23  H9  I4A d   1      22.637   2.051   2.148  0.00  0.00     0.042 H 
ATOM     24  H10 I4A d   1      21.668   2.660   0.763  0.00  0.00     0.042 H 
ATOM     25  H11 I4A d   1      21.911   6.461   5.996  0.00  0.00     0.084 H 
ATOM     26  H12 I4A d   1      19.778   7.630   6.389  0.00  0.00     0.083 H 
ATOM     27  H13 I4A d   1      17.860   7.323   4.900  0.00  0.00     0.085 H 
ENDROOT
BRANCH  14  28
ATOM     28  C15 I4A d   1      19.581   3.828   1.260  0.00  0.00     0.024 C 
ATOM     29  H14 I4A d   1      18.531   4.060   1.490  0.00  0.00     0.072 H 
ATOM     30  H15 I4A d   1      19.710   2.737   1.199  0.00  0.00     0.072 H 
BRANCH  28  31
ATOM     31  C16 I4A d   1      19.906   4.416  -0.095  0.00  0.00    -0.039 A 
ATOM     32  C17 I4A d   1      19.618   3.630  -1.197  0.00  0.00    -0.060 A 
ATOM     33  C18 I4A d   1      19.906   4.094  -2.474  0.00  0.00     0.032 A 
ATOM     34  H16 I4A d   1      19.168   2.653  -1.064  0.00  0.00     0.086 H 
ATOM     35  C19 I4A d   1      20.461   5.361  -2.676  0.00  0.00    -0.068 A 
ATOM     36  C20 I4A d   1      20.722   6.159  -1.563  0.00  0.00    -0.081 A 
ATOM     37  H19 I4A d   1      20.683   5.715  -3.676  0.00  0.00     0.085 H 
ATOM     38  C21 I4A d   1      20.464   5.684  -0.271  0.00  0.00    -0.075 A 
ATOM     39  H20 I4A d   1      21.128   7.155  -1.699  0.00  0.00     0.083 H 
ATOM     40  H21 I4A d   1      20.697   6.299   0.591  0.00  0.00     0.084 H 
BRANCH  33  41
ATOM     41  C22 I4A d   1      19.623   3.212  -3.653  0.00  0.00     0.249 C 
ATOM     42  N24 I4A d   1      20.256   3.506  -4.776  0.00  0.00    -0.366 N 
ATOM     43  H17 I4A d   1      20.106   2.952  -5.595  0.00  0.00     0.159 HD
ATOM     44  H18 I4A d   1      20.885   4.283  -4.807  0.00  0.00     0.159 HD
ATOM     45  O23 I4A d   1      18.879   2.232  -3.554  0.00  0.00    -0.268 OA
ENDBRANCH  33  41
ENDBRANCH  28  31
ENDBRANCH  14  28
BRANCH   1  46
ATOM     46  C25 I4A d   1      17.587   5.787   2.756  0.00  0.00     0.211 C 
ATOM     47  O27 I4A d   1      16.907   4.765   2.813  0.00  0.00    -0.644 OA
ATOM     48  O26 I4A d   1      17.200   6.760   1.936  0.00  0.00    -0.644 OA
ENDBRANCH   1  46
TORSDOF 4
