REMARK  7 active torsions:
REMARK  status: ('A' for Active; 'I' for Inactive)
REMARK    1  A    between atoms: S18_2  and  C21_4 
REMARK    2  A    between atoms: S18_2  and  C12_5 
REMARK    3  A    between atoms: C13_11  and  C8_12 
REMARK       I    between atoms: C8_12  and  N3_14 
REMARK    4  A    between atoms: C1_17  and  N4_18 
REMARK    5  A    between atoms: N4_18  and  C9_19 
REMARK    6  A    between atoms: C19_21  and  O25_22 
REMARK    7  A    between atoms: O25_22  and  C26_23 
ROOT
ATOM      1  C12 SK4 d   1      48.172  47.801  65.673  0.00  0.00     0.059 A 
ATOM      2  C17 SK4 d   1      47.437  47.959  66.830  0.00  0.00    -0.060 A 
ATOM      3  C11 SK4 d   1      46.092  47.676  66.857  0.00  0.00    -0.053 A 
ATOM      4  C5  SK4 d   1      45.474  47.212  65.703  0.00  0.00     0.069 A 
ATOM      5  N10 SK4 d   1      44.120  46.946  65.762  0.00  0.00    -0.259 NA
ATOM      6  C7  SK4 d   1      43.496  46.524  64.659  0.00  0.00     0.020 A 
ATOM      7  C13 SK4 d   1      44.168  46.284  63.472  0.00  0.00     0.076 A 
ATOM      8  C2  SK4 d   1      46.204  47.049  64.518  0.00  0.00     0.022 A 
ATOM      9  C6  SK4 d   1      47.580  47.324  64.518  0.00  0.00    -0.048 A 
ATOM     10  C1  SK4 d   1      45.533  46.572  63.363  0.00  0.00     0.062 A 
ATOM     11  H4  SK4 d   1      47.927  48.311  67.730  0.00  0.00     0.085 H 
ATOM     12  H5  SK4 d   1      45.521  47.813  67.768  0.00  0.00     0.087 H 
ATOM     13  H6  SK4 d   1      42.425  46.364  64.694  0.00  0.00     0.116 H 
ATOM     14  H9  SK4 d   1      48.172  47.164  63.624  0.00  0.00     0.087 H 
ENDROOT
BRANCH  10  15
ATOM     15  N4  SK4 d   1      46.301  46.335  62.168  0.00  0.00    -0.355 N 
ATOM     16  H10 SK4 d   1      45.868  46.672  61.297  0.00  0.00     0.166 HD
BRANCH  15  17
ATOM     17  C9  SK4 d   1      47.584  45.698  62.006  0.00  0.00     0.035 A 
ATOM     18  C15 SK4 d   1      48.416  45.915  60.954  0.00  0.00    -0.025 A 
ATOM     19  C19 SK4 d   1      49.627  45.268  60.867  0.00  0.00     0.070 A 
ATOM     20  H11 SK4 d   1      48.122  46.607  60.173  0.00  0.00     0.091 H 
ATOM     21  C24 SK4 d   1      50.055  44.382  61.865  0.00  0.00    -0.051 A 
ATOM     22  C20 SK4 d   1      49.220  44.139  62.946  0.00  0.00    -0.078 A 
ATOM     23  H15 SK4 d   1      51.021  43.895  61.794  0.00  0.00     0.087 H 
ATOM     24  C16 SK4 d   1      47.986  44.802  62.998  0.00  0.00    -0.057 A 
ATOM     25  H16 SK4 d   1      49.515  43.453  63.732  0.00  0.00     0.083 H 
ATOM     26  H17 SK4 d   1      47.323  44.613  63.835  0.00  0.00     0.086 H 
BRANCH  19  27
ATOM     27  O25 SK4 d   1      50.394  45.509  59.787  0.00  0.00    -0.356 OA
BRANCH  27  28
ATOM     28  C26 SK4 d   1      49.972  46.411  58.783  0.00  0.00     0.010 C 
ATOM     29  H12 SK4 d   1      50.736  46.465  57.994  0.00  0.00     0.066 H 
ATOM     30  H13 SK4 d   1      49.828  47.409  59.223  0.00  0.00     0.066 H 
ATOM     31  H14 SK4 d   1      49.023  46.061  58.351  0.00  0.00     0.066 H 
ENDBRANCH  27  28
ENDBRANCH  19  27
ENDBRANCH  15  17
ENDBRANCH  10  15
BRANCH   7  32
ATOM     32  C8  SK4 d   1      43.362  45.863  62.270  0.00  0.00     0.253 C 
ATOM     33  O14 SK4 d   1      43.840  46.062  61.163  0.00  0.00    -0.268 OA
ATOM     34  N3  SK4 d   1      42.055  45.488  62.464  0.00  0.00    -0.366 N 
ATOM     35  H7  SK4 d   1      41.495  45.204  61.685  0.00  0.00     0.159 HD
ATOM     36  H8  SK4 d   1      41.663  45.499  63.384  0.00  0.00     0.159 HD
ENDBRANCH   7  32
BRANCH   1  37
ATOM     37  S18 SK4 d   1      49.882  48.192  65.674  0.00  0.00     0.171 S 
ATOM     38  O23 SK4 d   1      50.321  48.539  64.357  0.00  0.00    -0.223 OA
ATOM     39  O22 SK4 d   1      50.105  49.201  66.677  0.00  0.00    -0.223 OA
BRANCH  37  40
ATOM     40  C21 SK4 d   1      50.647  46.694  66.175  0.00  0.00     0.020 C 
ATOM     41  H1  SK4 d   1      50.478  45.922  65.410  0.00  0.00     0.049 H 
ATOM     42  H2  SK4 d   1      50.215  46.364  67.131  0.00  0.00     0.049 H 
ATOM     43  H3  SK4 d   1      51.728  46.857  66.298  0.00  0.00     0.049 H 
ENDBRANCH  37  40
ENDBRANCH   1  37
TORSDOF 7
