REMARK  13 active torsions:
REMARK  status: ('A' for Active; 'I' for Inactive)
REMARK    1  A    between atoms: C18_3  and  C1_6 
REMARK    2  A    between atoms: C13_4  and  O20_5 
REMARK    3  A    between atoms: C1_6  and  C9_7 
REMARK    4  A    between atoms: C6_12  and  C12_14 
REMARK    5  A    between atoms: C2_16  and  C11_17 
REMARK    6  A    between atoms: C15_19  and  C27_21 
REMARK    7  A    between atoms: C15_19  and  C21_26 
REMARK    8  A    between atoms: C21_26  and  C22_27 
REMARK    9  A    between atoms: C22_27  and  C29_28 
REMARK   10  A    between atoms: C33_31  and  C34_32 
REMARK   11  A    between atoms: C34_32  and  C35_33 
REMARK   12  A    between atoms: C31_35  and  C36_36 
REMARK   13  A    between atoms: C36_36  and  C37_37 
ROOT
ATOM      1  O19 AG0 d   1      44.391  15.173  53.405  0.00  0.00    -0.259 OA
ATOM      2  C17 AG0 d   1      43.327  14.642  53.393  0.00  0.00     0.293 C 
ATOM      3  C18 AG0 d   1      43.087  13.525  52.485  0.00  0.00     0.053 C 
ATOM      4  C13 AG0 d   1      41.838  12.923  52.513  0.00  0.00     0.059 C 
ATOM      5  O16 AG0 d   1      42.303  15.068  54.157  0.00  0.00    -0.305 OA
ATOM      6  C15 AG0 d   1      41.050  14.418  54.373  0.00  0.00     0.080 C 
ATOM      7  C14 AG0 d   1      40.663  13.327  53.369  0.00  0.00     0.009 C 
ATOM      8  H11 AG0 d   1      40.302  12.446  53.920  0.00  0.00     0.047 H 
ATOM      9  H12 AG0 d   1      39.861  13.707  52.719  0.00  0.00     0.047 H 
ENDROOT
BRANCH   6  10
ATOM     10  C27 AG0 d   1      39.954  15.458  54.722  0.00  0.00    -0.023 C 
ATOM     11  C23 AG0 d   1      38.651  14.917  55.332  0.00  0.00    -0.059 C 
ATOM     12  C24 AG0 d   1      37.603  15.993  54.947  0.00  0.00    -0.065 C 
ATOM     13  H14 AG0 d   1      38.736  14.823  56.425  0.00  0.00     0.033 H 
ATOM     14  H15 AG0 d   1      38.389  13.940  54.900  0.00  0.00     0.033 H 
ATOM     15  C25 AG0 d   1      38.180  16.936  53.903  0.00  0.00    -0.065 C 
ATOM     16  H20 AG0 d   1      37.326  16.568  55.843  0.00  0.00     0.033 H 
ATOM     17  H21 AG0 d   1      36.709  15.500  54.537  0.00  0.00     0.033 H 
ATOM     18  C26 AG0 d   1      39.543  16.305  53.547  0.00  0.00    -0.059 C 
ATOM     19  H18 AG0 d   1      37.529  16.986  53.018  0.00  0.00     0.033 H 
ATOM     20  H19 AG0 d   1      38.313  17.946  54.318  0.00  0.00     0.033 H 
ATOM     21  H16 AG0 d   1      39.447  15.681  52.646  0.00  0.00     0.033 H 
ATOM     22  H17 AG0 d   1      40.290  17.093  53.369  0.00  0.00     0.033 H 
ATOM     23  H13 AG0 d   1      40.407  16.124  55.472  0.00  0.00     0.044 H 
ENDBRANCH   6  10
BRANCH   6  24
ATOM     24  C21 AG0 d   1      41.393  13.590  55.655  0.00  0.00    -0.031 C 
ATOM     25  H22 AG0 d   1      42.165  12.855  55.383  0.00  0.00     0.037 H 
ATOM     26  H23 AG0 d   1      40.480  13.064  55.969  0.00  0.00     0.037 H 
BRANCH  24  27
ATOM     27  C22 AG0 d   1      41.923  14.407  56.888  0.00  0.00    -0.038 C 
ATOM     28  H24 AG0 d   1      41.160  15.134  57.203  0.00  0.00     0.040 H 
ATOM     29  H25 AG0 d   1      42.844  14.940  56.608  0.00  0.00     0.040 H 
BRANCH  27  30
ATOM     30  C29 AG0 d   1      42.209  13.478  58.000  0.00  0.00    -0.054 A 
ATOM     31  C30 AG0 d   1      43.439  12.768  58.140  0.00  0.00    -0.053 A 
ATOM     32  C31 AG0 d   1      43.583  11.915  59.222  0.00  0.00     0.035 A 
ATOM     33  H26 AG0 d   1      44.239  12.893  57.419  0.00  0.00     0.087 H 
ATOM     34  N32 AG0 d   1      42.652  11.679  60.147  0.00  0.00    -0.258 NA
ATOM     35  C33 AG0 d   1      41.486  12.359  59.976  0.00  0.00     0.035 A 
ATOM     36  C28 AG0 d   1      41.275  13.222  58.965  0.00  0.00    -0.053 A 
ATOM     37  H27 AG0 d   1      40.322  13.737  58.914  0.00  0.00     0.087 H 
BRANCH  32  38
ATOM     38  C36 AG0 d   1      44.885  11.163  59.388  0.00  0.00    -0.028 C 
ATOM     39  H33 AG0 d   1      44.934  10.748  60.405  0.00  0.00     0.041 H 
ATOM     40  H34 AG0 d   1      45.724  11.857  59.234  0.00  0.00     0.041 H 
BRANCH  38  41
ATOM     41  C37 AG0 d   1      44.986  10.028  58.381  0.00  0.00    -0.071 C 
ATOM     42  H35 AG0 d   1      45.939   9.497  58.521  0.00  0.00     0.028 H 
ATOM     43  H36 AG0 d   1      44.941  10.438  57.361  0.00  0.00     0.028 H 
ATOM     44  H37 AG0 d   1      44.151   9.328  58.532  0.00  0.00     0.028 H 
ENDBRANCH  38  41
ENDBRANCH  32  38
BRANCH  35  45
ATOM     45  C34 AG0 d   1      40.370  12.170  60.979  0.00  0.00    -0.028 C 
ATOM     46  H28 AG0 d   1      40.291  11.102  61.230  0.00  0.00     0.041 H 
ATOM     47  H29 AG0 d   1      39.425  12.512  60.531  0.00  0.00     0.041 H 
BRANCH  45  48
ATOM     48  C35 AG0 d   1      40.631  12.970  62.271  0.00  0.00    -0.071 C 
ATOM     49  H30 AG0 d   1      39.802  12.809  62.976  0.00  0.00     0.028 H 
ATOM     50  H31 AG0 d   1      40.706  14.041  62.031  0.00  0.00     0.028 H 
ATOM     51  H32 AG0 d   1      41.572  12.631  62.729  0.00  0.00     0.028 H 
ENDBRANCH  45  48
ENDBRANCH  35  45
ENDBRANCH  27  30
ENDBRANCH  24  27
ENDBRANCH   6  24
BRANCH   4  52
ATOM     52  O20 AG0 d   1      41.584  11.892  51.695  0.00  0.00    -0.364 OA
ATOM     53  H1  AG0 d   1      41.690  12.171  50.793  0.00  0.00     0.217 HD
ENDBRANCH   4  52
BRANCH   3  54
ATOM     54  C1  AG0 d   1      44.262  13.023  51.563  0.00  0.00     0.026 C 
ATOM     55  H2  AG0 d   1      44.014  12.008  51.220  0.00  0.00     0.052 H 
ATOM     56  H3  AG0 d   1      45.179  12.991  52.169  0.00  0.00     0.052 H 
BRANCH  54  57
ATOM     57  C9  AG0 d   1      44.541  13.879  50.334  0.00  0.00     0.171 A 
ATOM     58  N8  AG0 d   1      45.729  14.077  49.825  0.00  0.00    -0.136 NA
ATOM     59  N5  AG0 d   1      45.479  14.847  48.820  0.00  0.00    -0.063 N 
ATOM     60  C4  AG0 d   1      44.159  15.160  48.694  0.00  0.00     0.751 A 
ATOM     61  C6  AG0 d   1      46.337  15.388  47.944  0.00  0.00     0.052 A 
ATOM     62  N10 AG0 d   1      43.534  14.569  49.635  0.00  0.00    -0.043 NA
ATOM     63  N3  AG0 d   1      43.622  15.973  47.766  0.00  0.00    -0.066 NA
ATOM     64  C2  AG0 d   1      44.503  16.488  46.893  0.00  0.00     0.051 A 
ATOM     65  C7  AG0 d   1      45.885  16.223  46.955  0.00  0.00    -0.035 A 
ATOM     66  H4  AG0 d   1      46.574  16.668  46.239  0.00  0.00     0.089 H 
BRANCH  64  67
ATOM     67  C11 AG0 d   1      43.982  17.405  45.820  0.00  0.00    -0.035 C 
ATOM     68  H8  AG0 d   1      42.891  17.500  45.917  0.00  0.00     0.035 H 
ATOM     69  H9  AG0 d   1      44.227  16.989  44.831  0.00  0.00     0.035 H 
ATOM     70  H10 AG0 d   1      44.448  18.396  45.927  0.00  0.00     0.035 H 
ENDBRANCH  64  67
BRANCH  61  71
ATOM     71  C12 AG0 d   1      47.795  15.041  48.097  0.00  0.00    -0.035 C 
ATOM     72  H5  AG0 d   1      48.377  15.552  47.316  0.00  0.00     0.035 H 
ATOM     73  H6  AG0 d   1      47.925  13.953  47.999  0.00  0.00     0.035 H 
ATOM     74  H7  AG0 d   1      48.147  15.365  49.088  0.00  0.00     0.035 H 
ENDBRANCH  61  71
ENDBRANCH  54  57
ENDBRANCH   3  54
TORSDOF 13
