REMARK  17 active torsions:
REMARK  status: ('A' for Active; 'I' for Inactive)
REMARK    1  A    between atoms: PA_1  and  O3A_8 
REMARK    2  A    between atoms: O01_9  and  PA_1 
REMARK    3  A    between atoms: O3A_8  and  PB_5 
REMARK    4  A    between atoms: C01_10  and  O01_9 
REMARK    5  A    between atoms: C05_11  and  C01_10 
REMARK    6  A    between atoms: C04_12  and  C05_11 
REMARK    7  A    between atoms: C03_13  and  CM4_14 
REMARK    8  A    between atoms: C7_32  and  C02_16 
REMARK    9  A    between atoms: N3_17  and  C18_18 
REMARK   10  A    between atoms: C18_18  and  C19_19 
REMARK   11  A    between atoms: C21_21  and  N22_22 
REMARK   12  A    between atoms: C24_24  and  CM2_26 
REMARK   13  A    between atoms: P8_28  and  O9_30 
REMARK   14  A    between atoms: P8_28  and  C7_32 
REMARK   15  A    between atoms: O9_30  and  C10_31 
REMARK   16  A    between atoms: C7_32  and  O7_33 
REMARK   17  A    between atoms: C7_32  and  C2_34 
ROOT
ATOM      1  C04 D7K d   1      25.870   5.263  25.674  0.00  0.00     0.022 C 
ATOM      2  C03 D7K d   1      26.512   4.133  24.811  0.00  0.00     0.114 C 
ATOM      3  S1  D7K d   1      25.686   6.628  24.775  0.00  0.00    -0.125 SA
ATOM      4  C02 D7K d   1      26.282   6.036  23.188  0.00  0.00     0.190 C 
ATOM      5  N3  D7K d   1      26.546   4.533  23.309  0.00  0.00    -0.049 N 
ATOM      6  H5  D7K d   1      24.840   4.915  25.504  0.00  0.00     0.060 H 
ATOM      7  H6  D7K d   1      27.515   4.557  24.969  0.00  0.00     0.086 H 
ATOM      8  H10 D7K d   1      27.303   6.443  23.151  0.00  0.00     0.107 H 
ATOM      9  H11 D7K d   1      25.577   4.301  23.155  0.00  0.00     0.281 HD
ENDROOT
BRANCH   4  10
ATOM     10  C7  D7K d   1      25.696   6.663  21.881  0.00  0.00     0.204 C 
BRANCH  10  11
ATOM     11  P8  D7K d   1      23.971   6.095  21.430  0.00  0.00     0.288 P 
ATOM     12  O12 D7K d   1      23.385   6.989  20.169  0.00  0.00    -0.644 OA
ATOM     13  O11 D7K d   1      24.081   4.693  21.047  0.00  0.00    -0.644 OA
BRANCH  11  14
ATOM     14  O9  D7K d   1      22.974   6.254  22.739  0.00  0.00    -0.315 OA
BRANCH  14  15
ATOM     15  C10 D7K d   1      21.680   6.758  22.562  0.00  0.00     0.014 C 
ATOM     16  H29 D7K d   1      21.164   6.794  23.533  0.00  0.00     0.067 H 
ATOM     17  H30 D7K d   1      21.123   6.104  21.875  0.00  0.00     0.067 H 
ATOM     18  H31 D7K d   1      21.736   7.772  22.139  0.00  0.00     0.067 H 
ENDBRANCH  14  15
ENDBRANCH  11  14
ENDBRANCH  10  11
BRANCH  10  19
ATOM     19  O7  D7K d   1      26.463   6.305  20.752  0.00  0.00    -0.374 OA
ATOM     20  H32 D7K d   1      26.413   5.365  20.622  0.00  0.00     0.211 HD
ENDBRANCH  10  19
BRANCH  10  21
ATOM     21  C2  D7K d   1      25.758   8.201  22.008  0.00  0.00    -0.009 A 
ATOM     22  C3  D7K d   1      26.988   8.958  21.422  0.00  0.00    -0.058 A 
ATOM     23  C4  D7K d   1      27.072  10.482  21.535  0.00  0.00    -0.065 A 
ATOM     24  H34 D7K d   1      27.029   8.716  20.350  0.00  0.00     0.033 H 
ATOM     25  H35 D7K d   1      27.879   8.553  21.924  0.00  0.00     0.033 H 
ATOM     26  C5  D7K d   1      25.933  11.270  22.240  0.00  0.00    -0.065 A 
ATOM     27  H36 D7K d   1      27.142  10.874  20.509  0.00  0.00     0.033 H 
ATOM     28  H37 D7K d   1      28.000  10.710  22.079  0.00  0.00     0.033 H 
ATOM     29  C6  D7K d   1      24.717  10.525  22.827  0.00  0.00    -0.065 A 
ATOM     30  H38 D7K d   1      25.539  11.984  21.502  0.00  0.00     0.033 H 
ATOM     31  H39 D7K d   1      26.398  11.820  23.071  0.00  0.00     0.033 H 
ATOM     32  C1  D7K d   1      24.630   8.986  22.710  0.00  0.00    -0.058 A 
ATOM     33  H40 D7K d   1      23.824  10.933  22.332  0.00  0.00     0.033 H 
ATOM     34  H41 D7K d   1      24.683  10.765  23.900  0.00  0.00     0.033 H 
ATOM     35  H42 D7K d   1      24.560   8.593  23.735  0.00  0.00     0.033 H 
ATOM     36  H43 D7K d   1      23.701   8.761  22.166  0.00  0.00     0.033 H 
ATOM     37  H33 D7K d   1      25.230   8.304  21.049  0.00  0.00     0.045 H 
ENDBRANCH  10  21
ENDBRANCH   4  10
BRANCH   5  38
ATOM     38  C18 D7K d   1      26.937   3.608  22.258  0.00  0.00     0.094 C 
ATOM     39  H12 D7K d   1      26.540   3.972  21.299  0.00  0.00     0.076 H 
ATOM     40  H13 D7K d   1      26.510   2.619  22.480  0.00  0.00     0.076 H 
BRANCH  38  41
ATOM     41  C19 D7K d   1      28.459   3.475  22.143  0.00  0.00     0.045 A 
ATOM     42  C20 D7K d   1      29.122   2.160  22.429  0.00  0.00     0.092 A 
ATOM     43  N25 D7K d   1      30.566   2.045  22.288  0.00  0.00    -0.046 N 
ATOM     44  H15 D7K d   1      28.673   1.420  21.750  0.00  0.00     0.076 H 
ATOM     45  H16 D7K d   1      28.879   1.898  23.469  0.00  0.00     0.076 H 
ATOM     46  C24 D7K d   1      31.401   3.243  21.860  0.00  0.00     0.251 A 
ATOM     47  H24 D7K d   1      30.732   1.320  21.608  0.00  0.00     0.279 HD
ATOM     48  H25 D7K d   1      30.921   1.752  23.185  0.00  0.00     0.279 HD
ATOM     49  N23 D7K d   1      30.742   4.540  21.562  0.00  0.00    -0.017 N 
ATOM     50  H23 D7K d   1      31.523   3.532  22.914  0.00  0.00     0.129 H 
ATOM     51  C21 D7K d   1      29.306   4.648  21.692  0.00  0.00     0.259 A 
ATOM     52  H21 D7K d   1      31.146   5.225  22.181  0.00  0.00     0.282 HD
ATOM     53  H22 D7K d   1      30.970   4.774  20.608  0.00  0.00     0.282 HD
ATOM     54  H17 D7K d   1      29.175   4.331  20.647  0.00  0.00     0.130 H 
ATOM     55  H14 D7K d   1      28.575   3.779  23.194  0.00  0.00     0.051 H 
BRANCH  46  56
ATOM     56  CM2 D7K d   1      32.908   3.156  21.701  0.00  0.00    -0.026 C 
ATOM     57  H26 D7K d   1      33.301   4.134  21.387  0.00  0.00     0.032 H 
ATOM     58  H27 D7K d   1      33.153   2.401  20.940  0.00  0.00     0.032 H 
ATOM     59  H28 D7K d   1      33.362   2.870  22.661  0.00  0.00     0.032 H 
ENDBRANCH  46  56
BRANCH  51  60
ATOM     60  N22 D7K d   1      28.727   5.922  21.394  0.00  0.00    -0.050 N 
ATOM     61  H18 D7K d   1      29.452   6.563  21.114  0.00  0.00     0.276 HD
ATOM     62  H19 D7K d   1      28.261   6.279  22.213  0.00  0.00     0.276 HD
ATOM     63  H20 D7K d   1      28.060   5.821  20.645  0.00  0.00     0.276 HD
ENDBRANCH  51  60
ENDBRANCH  38  41
ENDBRANCH   5  38
BRANCH   1  64
ATOM     64  C05 D7K d   1      25.681   5.203  27.179  0.00  0.00    -0.031 C 
ATOM     65  H3  D7K d   1      24.771   5.758  27.450  0.00  0.00     0.037 H 
ATOM     66  H4  D7K d   1      25.575   4.152  27.487  0.00  0.00     0.037 H 
BRANCH  64  67
ATOM     67  C01 D7K d   1      26.876   5.818  27.905  0.00  0.00     0.033 C 
ATOM     68  H1  D7K d   1      27.808   5.289  27.655  0.00  0.00     0.075 H 
ATOM     69  H2  D7K d   1      26.983   6.885  27.661  0.00  0.00     0.075 H 
BRANCH  67  70
ATOM     70  O01 D7K d   1      26.539   5.639  29.252  0.00  0.00    -0.289 OA
BRANCH  70  71
ATOM     71  PA  D7K d   1      27.051   6.711  30.363  0.00  0.00     0.418 P 
ATOM     72  O1A D7K d   1      26.862   6.009  31.813  0.00  0.00    -0.624 OA
ATOM     73  O2A D7K d   1      28.421   7.145  30.111  0.00  0.00    -0.624 OA
BRANCH  71  74
ATOM     74  O3A D7K d   1      26.143   8.055  30.252  0.00  0.00    -0.173 OA
BRANCH  74  75
ATOM     75  PB  D7K d   1      24.522   8.186  30.406  0.00  0.00     0.431 P 
ATOM     76  O1B D7K d   1      24.325   9.766  30.788  0.00  0.00    -0.616 OA
ATOM     77  O2B D7K d   1      24.020   7.220  31.629  0.00  0.00    -0.616 OA
ATOM     78  O3B D7K d   1      23.921   7.860  29.105  0.00  0.00    -0.616 OA
ENDBRANCH  74  75
ENDBRANCH  71  74
ENDBRANCH  70  71
ENDBRANCH  67  70
ENDBRANCH  64  67
ENDBRANCH   1  64
BRANCH   2  79
ATOM     79  CM4 D7K d   1      27.038   2.801  25.357  0.00  0.00    -0.048 C 
ATOM     80  H7  D7K d   1      27.436   2.196  24.528  0.00  0.00     0.030 H 
ATOM     81  H8  D7K d   1      26.218   2.256  25.848  0.00  0.00     0.030 H 
ATOM     82  H9  D7K d   1      27.838   2.994  26.087  0.00  0.00     0.030 H 
ENDBRANCH   2  79
TORSDOF 17
