REMARK WARNING: 32 MAX_TORS EXCEEDED!!!
REMARK  36 active torsions:
REMARK  status: ('A' for Active; 'I' for Inactive)
REMARK    1  A    between atoms: C_1  and  CH3_3 
REMARK       I    between atoms: C_1  and  N_4 
REMARK    2  A    between atoms: N_4  and  CA_5 
REMARK    3  A    between atoms: CA_5  and  C1_6 
REMARK    4  A    between atoms: CA_5  and  CB_8 
REMARK       I    between atoms: C1_6  and  N1_11 
REMARK    5  A    between atoms: CB_8  and  OG1_9 
REMARK    6  A    between atoms: CB_8  and  CG2_10 
REMARK    7  A    between atoms: N1_11  and  CA1_12 
REMARK    8  A    between atoms: CA1_12  and  C2_13 
REMARK    9  A    between atoms: CA1_12  and  CB1_15 
REMARK       I    between atoms: C2_13  and  N2_19 
REMARK   10  A    between atoms: CB1_15  and  CG1_16 
REMARK   11  A    between atoms: CB1_15  and  CG21_17 
REMARK   12  A    between atoms: CG1_16  and  CD1_18 
REMARK   13  A    between atoms: N2_19  and  CA2_20 
REMARK   14  A    between atoms: CA2_20  and  C3_21 
REMARK   15  A    between atoms: CA2_20  and  CB2_22 
REMARK   16  A    between atoms: C3_21  and  N3_26 
REMARK   17  A    between atoms: CB2_22  and  CG_23 
REMARK   18  A    between atoms: CG_23  and  CD_24 
REMARK   19  A    between atoms: CD_24  and  CE_25 
REMARK   20  A    between atoms: N3_26  and  CA3_27 
REMARK   21  A    between atoms: CA3_27  and  C4_28 
REMARK   22  A    between atoms: CA3_27  and  CB3_30 
REMARK       I    between atoms: C4_28  and  N4_34 
REMARK   23  A    between atoms: CB3_30  and  CG3_31 
REMARK   24  A    between atoms: CG3_31  and  CD2_32 
REMARK   25  A    between atoms: CD2_32  and  CE1_33 
REMARK   26  A    between atoms: N4_34  and  CA4_35 
REMARK   27  A    between atoms: CA4_35  and  C5_36 
REMARK   28  A    between atoms: CA4_35  and  CB4_38 
REMARK       I    between atoms: C5_36  and  N5_43 
REMARK   29  A    between atoms: CB4_38  and  CG4_39 
REMARK   30  A    between atoms: CG4_39  and  CD3_40 
REMARK       I    between atoms: CD3_40  and  NE2_42 
REMARK   31  A    between atoms: N5_43  and  CA5_44 
REMARK   32  A    between atoms: CA5_44  and  C6_45 
REMARK   33  A    between atoms: CA5_44  and  CB5_47 
REMARK       I    between atoms: C6_45  and  N6_54 
REMARK   34  A    between atoms: CB5_47  and  CG5_48 
REMARK   35  A    between atoms: CG5_48  and  CD4_49 
REMARK   36  A    between atoms: CD4_49  and  NE_50 
REMARK       I    between atoms: NE_50  and  CZ_51 
REMARK       I    between atoms: CZ_51  and  NH1_52 
ROOT
ATOM      1  N3  2NC d   1       5.892  -0.690  14.860  0.00  0.00    -0.060 N 
ATOM      2  H   2NC d   1       6.149  -1.478  14.266  0.00  0.00     0.278 HD
ATOM      3  H   2NC d   1       6.519  -0.451  15.628  0.00  0.00     0.278 HD
ENDROOT
BRANCH   1   4
ATOM      4  C3  2NC d   1       4.632  -1.069  15.489  0.00  0.00     0.101 C 
ATOM      5  H   2NC d   1       4.629  -0.632  16.488  0.00  0.00     0.078 H 
ATOM      6  H   2NC d   1       3.832  -0.715  14.839  0.00  0.00     0.078 H 
BRANCH   4   7
ATOM      7  CA2 2NC d   1       4.439  -2.565  15.658  0.00  0.00     0.035 C 
ATOM      8  H   2NC d   1       4.396  -2.929  14.631  0.00  0.00     0.075 H 
BRANCH   7   9
ATOM      9  N2  2NC d   1       5.562  -3.257  16.299  0.00  0.00    -0.353 N 
ATOM     10  C2  2NC d   1       6.416  -3.883  15.534  0.00  0.00     0.241 C 
ATOM     11  O2  2NC d   1       6.311  -3.788  14.308  0.00  0.00    -0.271 OA
ATOM     12  H   2NC d   1       5.673  -3.250  17.313  0.00  0.00     0.163 HD
BRANCH  10  13
ATOM     13  CA1 2NC d   1       7.462  -4.788  16.225  0.00  0.00     0.092 C 
ATOM     14  H   2NC d   1       7.679  -4.330  17.190  0.00  0.00     0.088 H 
BRANCH  13  15
ATOM     15  N1  2NC d   1       6.941  -6.106  16.488  0.00  0.00    -0.346 N 
ATOM     16  C1  2NC d   1       6.798  -6.573  17.713  0.00  0.00     0.243 C 
ATOM     17  O1  2NC d   1       7.058  -5.865  18.703  0.00  0.00    -0.271 OA
ATOM     18  H   2NC d   1       6.674  -6.697  15.701  0.00  0.00     0.163 HD
BRANCH  16  19
ATOM     19  CA  2NC d   1       6.205  -8.001  17.894  0.00  0.00     0.113 C 
ATOM     20  H   2NC d   1       5.293  -7.888  18.481  0.00  0.00     0.091 H 
BRANCH  19  21
ATOM     21  N   2NC d   1       5.707  -8.690  16.684  0.00  0.00    -0.346 N 
ATOM     22  C   2NC d   1       4.401  -8.845  16.370  0.00  0.00     0.214 C 
ATOM     23  O   2NC d   1       3.521  -8.695  17.225  0.00  0.00    -0.274 OA
ATOM     24  H   2NC d   1       6.398  -9.076  16.040  0.00  0.00     0.163 HD
BRANCH  22  25
ATOM     25  CH3 2NC d   1       4.129  -9.566  15.067  0.00  0.00    -0.003 C 
ATOM     26  H   2NC d   1       3.812 -10.588  15.278  0.00  0.00     0.040 H 
ATOM     27  H   2NC d   1       3.341  -9.045  14.523  0.00  0.00     0.040 H 
ATOM     28  H   2NC d   1       5.038  -9.583  14.466  0.00  0.00     0.040 H 
ENDBRANCH  22  25
ENDBRANCH  19  21
BRANCH  19  29
ATOM     29  CB  2NC d   1       7.273  -8.824  18.575  0.00  0.00     0.060 C 
ATOM     30  H   2NC d   1       7.617  -8.267  19.446  0.00  0.00     0.086 H 
BRANCH  29  31
ATOM     31  OG1 2NC d   1       8.388  -9.043  17.705  0.00  0.00    -0.393 OA
ATOM     32  H   2NC d   1       8.093  -9.511  16.920  0.00  0.00     0.210 HD
ENDBRANCH  29  31
BRANCH  29  33
ATOM     33  CG2 2NC d   1       6.687 -10.205  19.041  0.00  0.00    -0.050 C 
ATOM     34  H   2NC d   1       6.361 -10.772  18.169  0.00  0.00     0.031 H 
ATOM     35  H   2NC d   1       7.457 -10.764  19.573  0.00  0.00     0.031 H 
ATOM     36  H   2NC d   1       5.838 -10.033  19.703  0.00  0.00     0.031 H 
ENDBRANCH  29  33
ENDBRANCH  19  29
ENDBRANCH  16  19
ENDBRANCH  13  15
BRANCH  13  37
ATOM     37  CB1 2NC d   1       8.817  -4.840  15.445  0.00  0.00    -0.030 C 
ATOM     38  H   2NC d   1       8.565  -5.175  14.439  0.00  0.00     0.043 H 
BRANCH  37  39
ATOM     39  CG1 2NC d   1       9.814  -5.837  16.061  0.00  0.00    -0.063 C 
ATOM     40  H   2NC d   1      10.731  -5.738  15.480  0.00  0.00     0.033 H 
ATOM     41  H   2NC d   1       9.317  -6.807  16.039  0.00  0.00     0.033 H 
BRANCH  39  42
ATOM     42  CD1 2NC d   1      10.203  -5.614  17.471  0.00  0.00    -0.076 C 
ATOM     43  H   2NC d   1      10.671  -4.634  17.567  0.00  0.00     0.027 H 
ATOM     44  H   2NC d   1       9.316  -5.658  18.103  0.00  0.00     0.027 H 
ATOM     45  H   2NC d   1      10.908  -6.386  17.779  0.00  0.00     0.027 H 
ENDBRANCH  39  42
ENDBRANCH  37  39
BRANCH  37  46
ATOM     46  CG2 2NC d   1       9.469  -3.484  15.383  0.00  0.00    -0.071 C 
ATOM     47  H   2NC d   1       8.804  -2.785  14.875  0.00  0.00     0.028 H 
ATOM     48  H   2NC d   1       9.666  -3.130  16.395  0.00  0.00     0.028 H 
ATOM     49  H   2NC d   1      10.408  -3.558  14.834  0.00  0.00     0.028 H 
ENDBRANCH  37  46
ENDBRANCH  13  37
ENDBRANCH  10  13
ENDBRANCH   7   9
BRANCH   7  50
ATOM     50  CB2 2NC d   1       3.110  -2.934  16.354  0.00  0.00    -0.045 C 
ATOM     51  H   2NC d   1       2.312  -2.636  15.674  0.00  0.00     0.036 H 
ATOM     52  H   2NC d   1       3.118  -2.432  17.321  0.00  0.00     0.036 H 
BRANCH  50  53
ATOM     53  CG  2NC d   1       2.904  -4.417  16.639  0.00  0.00    -0.064 C 
ATOM     54  H   2NC d   1       1.963  -4.502  17.182  0.00  0.00     0.033 H 
ATOM     55  H   2NC d   1       3.787  -4.756  17.180  0.00  0.00     0.033 H 
BRANCH  53  56
ATOM     56  CD  2NC d   1       2.778  -5.313  15.399  0.00  0.00    -0.068 C 
ATOM     57  H   2NC d   1       2.458  -6.319  15.671  0.00  0.00     0.032 H 
ATOM     58  H   2NC d   1       3.738  -5.427  14.896  0.00  0.00     0.032 H 
BRANCH  56  59
ATOM     59  CE  2NC d   1       1.765  -4.642  14.498  0.00  0.00    -0.077 C 
ATOM     60  H   2NC d   1       0.813  -4.559  15.022  0.00  0.00     0.027 H 
ATOM     61  H   2NC d   1       2.121  -3.647  14.230  0.00  0.00     0.027 H 
ATOM     62  H   2NC d   1       1.633  -5.238  13.595  0.00  0.00     0.027 H 
ENDBRANCH  56  59
ENDBRANCH  53  56
ENDBRANCH  50  53
ENDBRANCH   7  50
ENDBRANCH   4   7
ENDBRANCH   1   4
BRANCH   1  63
ATOM     63  CA3 2NC d   1       5.888   0.495  13.967  0.00  0.00     0.178 C 
ATOM     64  H   2NC d   1       5.603   1.380  14.536  0.00  0.00     0.099 H 
BRANCH  63  65
ATOM     65  C4  2NC d   1       4.811   0.409  12.895  0.00  0.00     0.249 C 
ATOM     66  O3  2NC d   1       4.543  -0.588  12.203  0.00  0.00    -0.271 OA
ATOM     67  N4  2NC d   1       4.196   1.540  12.673  0.00  0.00    -0.346 N 
ATOM     68  H   2NC d   1       4.402   2.347  13.261  0.00  0.00     0.163 HD
BRANCH  67  69
ATOM     69  CA4 2NC d   1       3.222   1.666  11.601  0.00  0.00     0.090 C 
ATOM     70  H   2NC d   1       3.503   0.978  10.804  0.00  0.00     0.087 H 
BRANCH  69  71
ATOM     71  C5  2NC d   1       3.249   3.078  10.989  0.00  0.00     0.241 C 
ATOM     72  O4  2NC d   1       3.320   4.108  11.665  0.00  0.00    -0.271 OA
ATOM     73  N5  2NC d   1       3.227   3.090   9.688  0.00  0.00    -0.346 N 
ATOM     74  H   2NC d   1       3.136   2.205   9.190  0.00  0.00     0.163 HD
BRANCH  73  75
ATOM     75  CA5 2NC d   1       3.326   4.307   8.927  0.00  0.00     0.089 C 
ATOM     76  H   2NC d   1       3.436   5.200   9.542  0.00  0.00     0.087 H 
BRANCH  75  77
ATOM     77  C6  2NC d   1       2.058   4.417   8.123  0.00  0.00     0.238 C 
ATOM     78  O5  2NC d   1       1.773   3.525   7.276  0.00  0.00    -0.271 OA
ATOM     79  N6  2NC d   1       1.396   5.585   8.075  0.00  0.00    -0.368 N 
ATOM     80  H   2NC d   1       0.680   5.737   7.364  0.00  0.00     0.159 HD
ATOM     81  H   2NC d   1       1.609   6.320   8.749  0.00  0.00     0.159 HD
ENDBRANCH  75  77
BRANCH  75  82
ATOM     82  CB5 2NC d   1       4.555   4.176   8.032  0.00  0.00    -0.036 C 
ATOM     83  H   2NC d   1       4.721   5.139   7.549  0.00  0.00     0.036 H 
ATOM     84  H   2NC d   1       4.365   3.374   7.319  0.00  0.00     0.036 H 
BRANCH  82  85
ATOM     85  CG5 2NC d   1       5.805   3.823   8.804  0.00  0.00    -0.048 C 
ATOM     86  H   2NC d   1       5.811   2.741   8.940  0.00  0.00     0.035 H 
ATOM     87  H   2NC d   1       5.779   4.380   9.741  0.00  0.00     0.035 H 
BRANCH  85  88
ATOM     88  CD4 2NC d   1       7.072   4.194   8.095  0.00  0.00     0.009 C 
ATOM     89  H   2NC d   1       7.306   3.395   7.391  0.00  0.00     0.064 H 
ATOM     90  H   2NC d   1       7.847   4.335   8.849  0.00  0.00     0.064 H 
BRANCH  88  91
ATOM     91  NE  2NC d   1       6.954   5.442   7.334  0.00  0.00    -0.227 N 
ATOM     92  CZ  2NC d   1       7.985   6.110   6.835  0.00  0.00     0.665 C 
ATOM     93  NH1 2NC d   1       7.783   7.227   6.141  0.00  0.00    -0.235 N 
ATOM     94  NH2 2NC d   1       9.218   5.686   7.064  0.00  0.00    -0.235 N 
ATOM     95  H   2NC d   1       6.834   7.571   5.992  0.00  0.00     0.174 HD
ATOM     96  H   2NC d   1       8.577   7.740   5.758  0.00  0.00     0.174 HD
ATOM     97  H   2NC d   1       9.373   4.847   7.623  0.00  0.00     0.174 HD
ATOM     98  H   2NC d   1      10.013   6.198   6.681  0.00  0.00     0.174 HD
ATOM     99  H   2NC d   1       6.019   5.820   7.179  0.00  0.00     0.177 HD
ENDBRANCH  88  91
ENDBRANCH  85  88
ENDBRANCH  82  85
ENDBRANCH  75  82
ENDBRANCH  73  75
ENDBRANCH  69  71
BRANCH  69 100
ATOM    100  CB4 2NC d   1       1.825   1.238  12.059  0.00  0.00    -0.030 C 
ATOM    101  H   2NC d   1       1.552   1.874  12.901  0.00  0.00     0.037 H 
ATOM    102  H   2NC d   1       1.876   0.177  12.302  0.00  0.00     0.037 H 
BRANCH 100 103
ATOM    103  CG4 2NC d   1       0.730   1.409  10.983  0.00  0.00     0.011 C 
ATOM    104  H   2NC d   1      -0.066   0.705  11.226  0.00  0.00     0.047 H 
ATOM    105  H   2NC d   1       1.206   1.243  10.017  0.00  0.00     0.047 H 
BRANCH 103 106
ATOM    106  CD3 2NC d   1       0.108   2.770  10.934  0.00  0.00     0.215 C 
ATOM    107  OE1 2NC d   1       0.157   3.510  11.899  0.00  0.00    -0.274 OA
ATOM    108  NE2 2NC d   1      -0.517   3.100   9.828  0.00  0.00    -0.370 N 
ATOM    109  H   2NC d   1      -0.984   4.004   9.756  0.00  0.00     0.159 HD
ATOM    110  H   2NC d   1      -0.536   2.452   9.040  0.00  0.00     0.159 HD
ENDBRANCH 103 106
ENDBRANCH 100 103
ENDBRANCH  69 100
ENDBRANCH  67  69
ENDBRANCH  63  65
BRANCH  63 111
ATOM    111  CB3 2NC d   1       7.306   0.754  13.448  0.00  0.00    -0.030 C 
ATOM    112  H   2NC d   1       7.588  -0.144  12.898  0.00  0.00     0.036 H 
ATOM    113  H   2NC d   1       7.900   1.009  14.326  0.00  0.00     0.036 H 
BRANCH 111 114
ATOM    114  CG3 2NC d   1       7.494   1.919  12.466  0.00  0.00    -0.063 C 
ATOM    115  H   2NC d   1       8.417   2.446  12.709  0.00  0.00     0.033 H 
ATOM    116  H   2NC d   1       6.644   2.596  12.547  0.00  0.00     0.033 H 
BRANCH 114 117
ATOM    117  CD2 2NC d   1       7.580   1.390  11.032  0.00  0.00    -0.068 C 
ATOM    118  H   2NC d   1       7.749   2.249  10.383  0.00  0.00     0.032 H 
ATOM    119  H   2NC d   1       6.653   0.852  10.833  0.00  0.00     0.032 H 
BRANCH 117 120
ATOM    120  CE1 2NC d   1       8.724   0.415  10.791  0.00  0.00    -0.077 C 
ATOM    121  H   2NC d   1       9.672   0.908  11.007  0.00  0.00     0.027 H 
ATOM    122  H   2NC d   1       8.606  -0.450  11.444  0.00  0.00     0.027 H 
ATOM    123  H   2NC d   1       8.710   0.091   9.750  0.00  0.00     0.027 H 
ENDBRANCH 117 120
ENDBRANCH 114 117
ENDBRANCH 111 114
ENDBRANCH  63 111
ENDBRANCH   1  63
TORSDOF 36
