REMARK WARNING: 32 MAX_TORS EXCEEDED!!!
REMARK  45 active torsions:
REMARK  status: ('A' for Active; 'I' for Inactive)
REMARK    1  A    between atoms: CA_2  and  N_1 
REMARK    2  A    between atoms: C_3  and  CA_2 
REMARK    3  A    between atoms: CA_2  and  CB_5 
REMARK       I    between atoms: N_8  and  C_3 
REMARK    4  A    between atoms: CB_5  and  CG1_6 
REMARK    5  A    between atoms: CB_5  and  CG2_7 
REMARK    6  A    between atoms: CA_9  and  N_8 
REMARK    7  A    between atoms: C_10  and  CA_9 
REMARK    8  A    between atoms: CA_9  and  CB_12 
REMARK       I    between atoms: N2_19  and  C_10 
REMARK    9  A    between atoms: CB_12  and  CG_13 
REMARK   10  A    between atoms: CG_13  and  CD1_14 
REMARK   11  A    between atoms: CG_13  and  CD2_15 
REMARK   12  A    between atoms: C2_18  and  C1_16 
REMARK       I    between atoms: C1_16  and  N_27 
REMARK   13  A    between atoms: C2_18  and  N2_19 
REMARK   14  A    between atoms: C2_18  and  C3_20 
REMARK   15  A    between atoms: C3_20  and  C4_21 
REMARK   16  A    between atoms: C4_21  and  C5_22 
REMARK   17  A    between atoms: C5_22  and  N6_23 
REMARK       I    between atoms: N6_23  and  C7_24 
REMARK       I    between atoms: C7_24  and  N8_26 
REMARK   18  A    between atoms: N_27  and  CA_28 
REMARK   19  A    between atoms: CA_28  and  C_29 
REMARK   20  A    between atoms: CA_28  and  CB_31 
REMARK       I    between atoms: C_29  and  N_35 
REMARK   21  A    between atoms: CB_31  and  CG_32 
REMARK   22  A    between atoms: N_35  and  CA_36 
REMARK   23  A    between atoms: CA_36  and  C_37 
REMARK   24  A    between atoms: CA_36  and  CB_39 
REMARK       I    between atoms: C_37  and  N_43 
REMARK   25  A    between atoms: CB_39  and  CG_40 
REMARK   26  A    between atoms: N_43  and  CA_44 
REMARK   27  A    between atoms: CA_44  and  C_45 
REMARK   28  A    between atoms: CA_44  and  CB_47 
REMARK       I    between atoms: C_45  and  N_51 
REMARK   29  A    between atoms: CB_47  and  CG_48 
REMARK   30  A    between atoms: CG_48  and  CD1_49 
REMARK   31  A    between atoms: CG_48  and  CD2_50 
REMARK   32  A    between atoms: N_51  and  CA_52 
REMARK   33  A    between atoms: CA_52  and  C_53 
REMARK   34  A    between atoms: CA_52  and  CB_55 
REMARK       I    between atoms: C_53  and  N_59 
REMARK   35  A    between atoms: CB_55  and  CG_56 
REMARK   36  A    between atoms: CG_56  and  CD1_57 
REMARK   37  A    between atoms: CG_56  and  CD2_58 
REMARK   38  A    between atoms: N_59  and  CA_60 
REMARK   39  A    between atoms: CA_60  and  C_61 
REMARK   40  A    between atoms: CA_60  and  CB_63 
REMARK       I    between atoms: C_61  and  N_68 
REMARK   41  A    between atoms: CB_63  and  CG_64 
REMARK   42  A    between atoms: CG_64  and  CD_65 
REMARK   43  A    between atoms: N_68  and  CA_69 
REMARK   44  A    between atoms: CA_69  and  C_70 
REMARK   45  A    between atoms: CA_69  and  CB_72 
ROOT
ATOM      1  CA  ASP d   1     -17.275  13.802  12.077  0.00  0.00     0.098 C 
ATOM      2  H39 ASP d   1     -16.894  14.151  11.106  0.00  0.00     0.088 H 
ENDROOT
BRANCH   1   3
ATOM      3  N   ASP d   1     -17.803  12.447  11.896  0.00  0.00    -0.345 N 
ATOM      4  C   ASP d   1     -18.493  12.110  10.804  0.00  0.00     0.241 C 
ATOM      5  O   ASP d   1     -18.689  12.884   9.862  0.00  0.00    -0.271 OA
ATOM      6  H38 ASP d   1     -17.643  11.761  12.605  0.00  0.00     0.163 HD
BRANCH   4   7
ATOM      7  CA  ASP d   1     -19.072  10.699  10.764  0.00  0.00     0.098 C 
ATOM      8  H35 ASP d   1     -19.149  10.394   9.710  0.00  0.00     0.088 H 
BRANCH   7   9
ATOM      9  N   ASP d   1     -18.209   9.696  11.462  0.00  0.00    -0.346 N 
ATOM     10  C1  CIR d   1     -16.979   9.404  11.039  0.00  0.00     0.241 C 
ATOM     11  O1  CIR d   1     -16.387   9.963  10.085  0.00  0.00    -0.271 OA
ATOM     12  H34 ASP d   1     -18.566   9.230  12.271  0.00  0.00     0.163 HD
BRANCH  10  13
ATOM     13  C2  CIR d   1     -16.218   8.437  11.911  0.00  0.00     0.089 C 
ATOM     14  H23 CIR d   1     -16.936   7.787  12.433  0.00  0.00     0.087 H 
BRANCH  13  15
ATOM     15  N2  CIR d   1     -15.317   7.596  11.127  0.00  0.00    -0.346 N 
ATOM     16  C   LEU d   1     -15.666   6.891  10.042  0.00  0.00     0.241 C 
ATOM     17  O   LEU d   1     -16.846   6.648   9.772  0.00  0.00    -0.271 OA
ATOM     18  H24 CIR d   1     -14.364   7.542  11.424  0.00  0.00     0.163 HD
BRANCH  16  19
ATOM     19  CA  LEU d   1     -14.555   6.383   9.134  0.00  0.00     0.089 C 
ATOM     20  H13 LEU d   1     -13.709   6.056   9.757  0.00  0.00     0.087 H 
BRANCH  19  21
ATOM     21  N   LEU d   1     -15.014   5.239   8.339  0.00  0.00    -0.346 N 
ATOM     22  C   VAL d   1     -15.314   4.057   8.888  0.00  0.00     0.249 C 
ATOM     23  O   VAL d   1     -15.146   3.810  10.081  0.00  0.00    -0.271 OA
ATOM     24  H12 LEU d   1     -15.106   5.347   7.349  0.00  0.00     0.163 HD
BRANCH  22  25
ATOM     25  CA  VAL d   1     -15.890   2.978   7.947  0.00  0.00     0.178 C 
ATOM     26  H4  VAL d   1     -15.616   3.271   6.923  0.00  0.00     0.099 H 
BRANCH  25  27
ATOM     27  N   VAL d   1     -15.295   1.642   8.217  0.00  0.00    -0.066 N 
ATOM     28  H1  VAL d   1     -14.290   1.710   8.190  0.00  0.00     0.275 HD
ATOM     29  H2  VAL d   1     -15.607   0.988   7.516  0.00  0.00     0.275 HD
ATOM     30  H3  VAL d   1     -15.585   1.323   9.128  0.00  0.00     0.275 HD
ENDBRANCH  25  27
BRANCH  25  31
ATOM     31  CB  VAL d   1     -17.445   2.846   7.995  0.00  0.00    -0.025 C 
ATOM     32  H5  VAL d   1     -17.646   1.829   8.364  0.00  0.00     0.042 H 
BRANCH  31  33
ATOM     33  CG1 VAL d   1     -18.113   3.770   9.000  0.00  0.00    -0.071 C 
ATOM     34  H6  VAL d   1     -19.202   3.616   8.972  0.00  0.00     0.028 H 
ATOM     35  H7  VAL d   1     -17.884   4.815   8.746  0.00  0.00     0.028 H 
ATOM     36  H8  VAL d   1     -17.737   3.547  10.009  0.00  0.00     0.028 H 
ENDBRANCH  31  33
BRANCH  31  37
ATOM     37  CG2 VAL d   1     -18.044   2.900   6.591  0.00  0.00    -0.071 C 
ATOM     38  H9  VAL d   1     -17.502   2.204   5.934  0.00  0.00     0.028 H 
ATOM     39  H10 VAL d   1     -17.956   3.922   6.194  0.00  0.00     0.028 H 
ATOM     40  H11 VAL d   1     -19.105   2.613   6.634  0.00  0.00     0.028 H 
ENDBRANCH  31  37
ENDBRANCH  25  31
ENDBRANCH  22  25
ENDBRANCH  19  21
BRANCH  19  41
ATOM     41  CB  LEU d   1     -14.088   7.529   8.232  0.00  0.00    -0.035 C 
ATOM     42  H14 LEU d   1     -13.913   8.395   8.887  0.00  0.00     0.037 H 
ATOM     43  H15 LEU d   1     -14.919   7.750   7.546  0.00  0.00     0.037 H 
BRANCH  41  44
ATOM     44  CG  LEU d   1     -12.840   7.374   7.370  0.00  0.00    -0.059 C 
ATOM     45  H16 LEU d   1     -12.899   6.435   6.801  0.00  0.00     0.038 H 
BRANCH  44  46
ATOM     46  CD1 LEU d   1     -12.814   8.541   6.422  0.00  0.00    -0.073 C 
ATOM     47  H17 LEU d   1     -11.926   8.470   5.777  0.00  0.00     0.028 H 
ATOM     48  H18 LEU d   1     -12.777   9.479   6.996  0.00  0.00     0.028 H 
ATOM     49  H19 LEU d   1     -13.721   8.528   5.800  0.00  0.00     0.028 H 
ENDBRANCH  44  46
BRANCH  44  50
ATOM     50  CD2 LEU d   1     -11.573   7.353   8.232  0.00  0.00    -0.073 C 
ATOM     51  H20 LEU d   1     -11.610   6.494   8.918  0.00  0.00     0.028 H 
ATOM     52  H21 LEU d   1     -11.510   8.284   8.814  0.00  0.00     0.028 H 
ATOM     53  H22 LEU d   1     -10.689   7.266   7.583  0.00  0.00     0.028 H 
ENDBRANCH  44  50
ENDBRANCH  41  44
ENDBRANCH  19  41
ENDBRANCH  16  19
ENDBRANCH  13  15
BRANCH  13  54
ATOM     54  C3  CIR d   1     -15.428   9.245  12.942  0.00  0.00    -0.036 C 
ATOM     55  H25 CIR d   1     -16.101   9.983  13.403  0.00  0.00     0.036 H 
ATOM     56  H26 CIR d   1     -14.608   9.768  12.428  0.00  0.00     0.036 H 
BRANCH  54  57
ATOM     57  C4  CIR d   1     -14.839   8.373  14.035  0.00  0.00    -0.048 C 
ATOM     58  H27 CIR d   1     -14.151   7.636  13.594  0.00  0.00     0.035 H 
ATOM     59  H28 CIR d   1     -15.645   7.848  14.568  0.00  0.00     0.035 H 
BRANCH  57  60
ATOM     60  C5  CIR d   1     -14.077   9.277  15.007  0.00  0.00    -0.003 C 
ATOM     61  H29 CIR d   1     -14.806   9.835  15.613  0.00  0.00     0.064 H 
ATOM     62  H30 CIR d   1     -13.466   9.983  14.425  0.00  0.00     0.064 H 
BRANCH  60  63
ATOM     63  N6  CIR d   1     -13.202   8.533  15.901  0.00  0.00    -0.343 N 
ATOM     64  C7  CIR d   1     -13.596   7.853  16.970  0.00  0.00     0.313 C 
ATOM     65  O7  CIR d   1     -12.767   7.327  17.700  0.00  0.00    -0.248 OA
ATOM     66  N8  CIR d   1     -14.903   7.772  17.230  0.00  0.00    -0.352 N 
ATOM     67  H32 CIR d   1     -15.223   7.265  18.030  0.00  0.00     0.160 HD
ATOM     68  H33 CIR d   1     -15.562   8.219  16.625  0.00  0.00     0.160 HD
ATOM     69  H31 CIR d   1     -12.224   8.534  15.693  0.00  0.00     0.164 HD
ENDBRANCH  60  63
ENDBRANCH  57  60
ENDBRANCH  54  57
ENDBRANCH  13  54
ENDBRANCH  10  13
ENDBRANCH   7   9
BRANCH   7  70
ATOM     70  CB  ASP d   1     -20.481  10.722  11.362  0.00  0.00     0.043 C 
ATOM     71  H36 ASP d   1     -20.986  11.643  11.034  0.00  0.00     0.052 H 
ATOM     72  H37 ASP d   1     -20.396  10.721  12.459  0.00  0.00     0.052 H 
BRANCH  70  73
ATOM     73  CG  ASP d   1     -21.330   9.526  10.940  0.00  0.00     0.175 C 
ATOM     74  OD1 ASP d   1     -20.915   8.757  10.041  0.00  0.00    -0.648 OA
ATOM     75  OD2 ASP d   1     -22.430   9.359  11.514  0.00  0.00    -0.648 OA
ENDBRANCH  70  73
ENDBRANCH   7  70
ENDBRANCH   4   7
ENDBRANCH   1   3
BRANCH   1  76
ATOM     76  C   ASP d   1     -16.115  13.854  13.084  0.00  0.00     0.241 C 
ATOM     77  O   ASP d   1     -15.989  12.981  13.947  0.00  0.00    -0.271 OA
ATOM     78  N   LEU d   1     -15.266  14.874  12.959  0.00  0.00    -0.346 N 
ATOM     79  H42 LEU d   1     -15.319  15.455  12.147  0.00  0.00     0.163 HD
BRANCH  78  80
ATOM     80  CA  LEU d   1     -14.257  15.166  13.982  0.00  0.00     0.089 C 
ATOM     81  H43 LEU d   1     -14.456  14.529  14.856  0.00  0.00     0.087 H 
BRANCH  80  82
ATOM     82  C   LEU d   1     -14.340  16.625  14.407  0.00  0.00     0.241 C 
ATOM     83  O   LEU d   1     -14.365  17.525  13.554  0.00  0.00    -0.271 OA
ATOM     84  N   LEU d   1     -14.366  16.858  15.715  0.00  0.00    -0.346 N 
ATOM     85  H53 LEU d   1     -14.387  16.084  16.348  0.00  0.00     0.163 HD
BRANCH  84  86
ATOM     86  CA  LEU d   1     -14.364  18.217  16.251  0.00  0.00     0.089 C 
ATOM     87  H54 LEU d   1     -14.942  18.854  15.565  0.00  0.00     0.087 H 
BRANCH  86  88
ATOM     88  C   LEU d   1     -12.935  18.759  16.319  0.00  0.00     0.241 C 
ATOM     89  O   LEU d   1     -11.988  18.023  16.619  0.00  0.00    -0.271 OA
ATOM     90  N   GLU d   1     -12.804  20.053  16.045  0.00  0.00    -0.346 N 
ATOM     91  H64 GLU d   1     -13.621  20.576  15.800  0.00  0.00     0.163 HD
BRANCH  90  92
ATOM     92  CA  GLU d   1     -11.516  20.745  16.087  0.00  0.00     0.090 C 
ATOM     93  H65 GLU d   1     -10.806  20.187  15.459  0.00  0.00     0.087 H 
BRANCH  92  94
ATOM     94  C   GLU d   1     -10.953  20.783  17.513  0.00  0.00     0.241 C 
ATOM     95  O   GLU d   1     -11.706  20.843  18.482  0.00  0.00    -0.271 OA
ATOM     96  N   ALA d   1      -9.626  20.733  17.615  0.00  0.00    -0.345 N 
ATOM     97  H70 ALA d   1      -9.098  20.646  16.770  0.00  0.00     0.163 HD
BRANCH  96  98
ATOM     98  CA  ALA d   1      -8.884  20.796  18.881  0.00  0.00     0.093 C 
ATOM     99  H71 ALA d   1      -9.399  20.142  19.600  0.00  0.00     0.089 H 
BRANCH  98 100
ATOM    100  C   ALA d   1      -8.810  22.189  19.496  0.00  0.00     0.196 C 
ATOM    101  O   ALA d   1      -9.259  23.167  18.909  0.00  0.00    -0.646 OA
ATOM    102  OXT ALA d   1      -8.269  22.380  20.605  0.00  0.00    -0.646 OA
ENDBRANCH  98 100
BRANCH  98 103
ATOM    103  CB  ALA d   1      -7.471  20.266  18.668  0.00  0.00    -0.048 C 
ATOM    104  H72 ALA d   1      -6.915  20.313  19.616  0.00  0.00     0.030 H 
ATOM    105  H73 ALA d   1      -6.959  20.880  17.912  0.00  0.00     0.030 H 
ATOM    106  H74 ALA d   1      -7.519  19.223  18.322  0.00  0.00     0.030 H 
ENDBRANCH  98 103
ENDBRANCH  96  98
ENDBRANCH  92  94
BRANCH  92 107
ATOM    107  CB  GLU d   1     -11.661  22.164  15.501  0.00  0.00    -0.029 C 
ATOM    108  H66 GLU d   1     -10.695  22.683  15.595  0.00  0.00     0.037 H 
ATOM    109  H67 GLU d   1     -12.426  22.705  16.078  0.00  0.00     0.037 H 
BRANCH 107 110
ATOM    110  CG  GLU d   1     -12.077  22.162  14.010  0.00  0.00     0.018 C 
ATOM    111  H68 GLU d   1     -12.894  21.436  13.885  0.00  0.00     0.049 H 
ATOM    112  H69 GLU d   1     -11.209  21.843  13.414  0.00  0.00     0.049 H 
BRANCH 110 113
ATOM    113  CD  GLU d   1     -12.556  23.516  13.466  0.00  0.00     0.172 C 
ATOM    114  OE1 GLU d   1     -12.597  24.525  14.214  0.00  0.00    -0.648 OA
ATOM    115  OE2 GLU d   1     -12.896  23.564  12.259  0.00  0.00    -0.648 OA
ENDBRANCH 110 113
ENDBRANCH 107 110
ENDBRANCH  92 107
ENDBRANCH  90  92
ENDBRANCH  86  88
BRANCH  86 116
ATOM    116  CB  LEU d   1     -15.029  18.282  17.631  0.00  0.00    -0.035 C 
ATOM    117  H55 LEU d   1     -14.375  17.750  18.337  0.00  0.00     0.037 H 
ATOM    118  H56 LEU d   1     -15.993  17.758  17.557  0.00  0.00     0.037 H 
BRANCH 116 119
ATOM    119  CG  LEU d   1     -15.308  19.682  18.224  0.00  0.00    -0.059 C 
ATOM    120  H57 LEU d   1     -14.500  20.350  17.890  0.00  0.00     0.038 H 
BRANCH 119 121
ATOM    121  CD1 LEU d   1     -16.622  20.248  17.718  0.00  0.00    -0.073 C 
ATOM    122  H58 LEU d   1     -16.787  21.242  18.159  0.00  0.00     0.028 H 
ATOM    123  H59 LEU d   1     -17.445  19.578  18.006  0.00  0.00     0.028 H 
ATOM    124  H60 LEU d   1     -16.586  20.335  16.622  0.00  0.00     0.028 H 
ENDBRANCH 119 121
BRANCH 119 125
ATOM    125  CD2 LEU d   1     -15.303  19.669  19.744  0.00  0.00    -0.073 C 
ATOM    126  H61 LEU d   1     -14.348  19.258  20.104  0.00  0.00     0.028 H 
ATOM    127  H62 LEU d   1     -16.132  19.044  20.108  0.00  0.00     0.028 H 
ATOM    128  H63 LEU d   1     -15.425  20.695  20.120  0.00  0.00     0.028 H 
ENDBRANCH 119 125
ENDBRANCH 116 119
ENDBRANCH  86 116
ENDBRANCH  84  86
ENDBRANCH  80  82
BRANCH  80 129
ATOM    129  CB  LEU d   1     -12.840  14.877  13.479  0.00  0.00    -0.035 C 
ATOM    130  H44 LEU d   1     -12.158  15.329  14.215  0.00  0.00     0.037 H 
ATOM    131  H45 LEU d   1     -12.745  15.405  12.518  0.00  0.00     0.037 H 
BRANCH 129 132
ATOM    132  CG  LEU d   1     -12.320  13.463  13.236  0.00  0.00    -0.059 C 
ATOM    133  H46 LEU d   1     -12.937  12.993  12.456  0.00  0.00     0.038 H 
BRANCH 132 134
ATOM    134  CD1 LEU d   1     -10.898  13.558  12.739  0.00  0.00    -0.073 C 
ATOM    135  H47 LEU d   1     -10.505  12.547  12.558  0.00  0.00     0.028 H 
ATOM    136  H48 LEU d   1     -10.278  14.062  13.495  0.00  0.00     0.028 H 
ATOM    137  H49 LEU d   1     -10.875  14.134  11.802  0.00  0.00     0.028 H 
ENDBRANCH 132 134
BRANCH 132 138
ATOM    138  CD2 LEU d   1     -12.404  12.599  14.486  0.00  0.00    -0.073 C 
ATOM    139  H50 LEU d   1     -13.449  12.547  14.826  0.00  0.00     0.028 H 
ATOM    140  H51 LEU d   1     -11.782  13.040  15.279  0.00  0.00     0.028 H 
ATOM    141  H52 LEU d   1     -12.042  11.586  14.257  0.00  0.00     0.028 H 
ENDBRANCH 132 138
ENDBRANCH 129 132
ENDBRANCH  80 129
ENDBRANCH  78  80
ENDBRANCH   1  76
BRANCH   1 142
ATOM    142  CB  ASP d   1     -18.408  14.741  12.521  0.00  0.00     0.043 C 
ATOM    143  H40 ASP d   1     -18.684  14.493  13.557  0.00  0.00     0.052 H 
ATOM    144  H41 ASP d   1     -19.274  14.582  11.862  0.00  0.00     0.052 H 
BRANCH 142 145
ATOM    145  CG  ASP d   1     -18.015  16.216  12.461  0.00  0.00     0.175 C 
ATOM    146  OD1 ASP d   1     -17.321  16.630  11.504  0.00  0.00    -0.648 OA
ATOM    147  OD2 ASP d   1     -18.408  16.961  13.383  0.00  0.00    -0.648 OA
ENDBRANCH 142 145
ENDBRANCH   1 142
TORSDOF 45
