REMARK WARNING: 32 MAX_TORS EXCEEDED!!!
REMARK  43 active torsions:
REMARK  status: ('A' for Active; 'I' for Inactive)
REMARK    1  A    between atoms: N_1  and  CA_2 
REMARK    2  A    between atoms: CA_2  and  C_3 
REMARK    3  A    between atoms: CA_2  and  CB_5 
REMARK       I    between atoms: C_3  and  N_8 
REMARK    4  A    between atoms: CB_5  and  CG1_6 
REMARK    5  A    between atoms: CB_5  and  CG2_7 
REMARK    6  A    between atoms: N_8  and  CA_9 
REMARK    7  A    between atoms: CA_9  and  C_10 
REMARK    8  A    between atoms: CA_9  and  CB_12 
REMARK       I    between atoms: C_10  and  N_16 
REMARK    9  A    between atoms: CB_12  and  CG_13 
REMARK   10  A    between atoms: CG_13  and  CD1_14 
REMARK   11  A    between atoms: CG_13  and  CD2_15 
REMARK   12  A    between atoms: N_16  and  CA_17 
REMARK   13  A    between atoms: CA_17  and  C_18 
REMARK   14  A    between atoms: CA_17  and  CB_20 
REMARK       I    between atoms: C_18  and  N_26 
REMARK   15  A    between atoms: CB_20  and  CG_21 
REMARK   16  A    between atoms: N_26  and  CA_27 
REMARK   17  A    between atoms: CA_27  and  C_28 
REMARK   18  A    between atoms: CA_27  and  CB_30 
REMARK       I    between atoms: C_28  and  N_34 
REMARK   19  A    between atoms: CB_30  and  CG_31 
REMARK   20  A    between atoms: N_34  and  CA_35 
REMARK   21  A    between atoms: CA_35  and  C_36 
REMARK   22  A    between atoms: CA_35  and  CB_38 
REMARK       I    between atoms: C_36  and  N_42 
REMARK   23  A    between atoms: CB_38  and  CG_39 
REMARK   24  A    between atoms: N_42  and  CA_43 
REMARK   25  A    between atoms: CA_43  and  C_44 
REMARK   26  A    between atoms: CA_43  and  CB_46 
REMARK       I    between atoms: C_44  and  N_50 
REMARK   27  A    between atoms: CB_46  and  CG_47 
REMARK   28  A    between atoms: CG_47  and  CD1_48 
REMARK   29  A    between atoms: CG_47  and  CD2_49 
REMARK   30  A    between atoms: N_50  and  CA_51 
REMARK   31  A    between atoms: CA_51  and  C_52 
REMARK   32  A    between atoms: CA_51  and  CB_54 
REMARK       I    between atoms: C_52  and  N_58 
REMARK   33  A    between atoms: CB_54  and  CG_55 
REMARK   34  A    between atoms: CG_55  and  CD1_56 
REMARK   35  A    between atoms: CG_55  and  CD2_57 
REMARK   36  A    between atoms: N_58  and  CA_59 
REMARK   37  A    between atoms: CA_59  and  C_60 
REMARK   38  A    between atoms: CA_59  and  CB_62 
REMARK       I    between atoms: C_60  and  N_67 
REMARK   39  A    between atoms: CB_62  and  CG_63 
REMARK   40  A    between atoms: CG_63  and  CD_64 
REMARK   41  A    between atoms: N_67  and  CA_68 
REMARK   42  A    between atoms: CA_68  and  C_69 
REMARK   43  A    between atoms: CA_68  and  CB_71 
ROOT
ATOM      1  CA  ASP d   1     -17.485  13.912  12.562  0.00  0.00     0.098 C 
ATOM      2  H35 ASP d   1     -17.034  14.328  11.649  0.00  0.00     0.088 H 
ENDROOT
BRANCH   1   3
ATOM      3  N   ASP d   1     -17.775  12.491  12.309  0.00  0.00    -0.345 N 
ATOM      4  C   ASP d   1     -18.165  12.080  11.108  0.00  0.00     0.241 C 
ATOM      5  O   ASP d   1     -18.186  12.825  10.118  0.00  0.00    -0.271 OA
ATOM      6  H34 ASP d   1     -17.677  11.827  13.050  0.00  0.00     0.163 HD
BRANCH   4   7
ATOM      7  CA  ASP d   1     -18.601  10.620  10.986  0.00  0.00     0.098 C 
ATOM      8  H31 ASP d   1     -18.416  10.323   9.943  0.00  0.00     0.088 H 
BRANCH   7   9
ATOM      9  N   ASP d   1     -17.851   9.687  11.826  0.00  0.00    -0.345 N 
ATOM     10  C   HIS d   1     -16.609   9.323  11.518  0.00  0.00     0.241 C 
ATOM     11  O   HIS d   1     -15.943   9.862  10.625  0.00  0.00    -0.271 OA
ATOM     12  H30 ASP d   1     -18.280   9.315  12.649  0.00  0.00     0.163 HD
BRANCH  10  13
ATOM     13  CA  HIS d   1     -16.006   8.173  12.332  0.00  0.00     0.094 C 
ATOM     14  H24 HIS d   1     -16.819   7.514  12.670  0.00  0.00     0.088 H 
BRANCH  13  15
ATOM     15  N   HIS d   1     -15.108   7.413  11.468  0.00  0.00    -0.346 N 
ATOM     16  C   LEU d   1     -15.558   6.772  10.394  0.00  0.00     0.241 C 
ATOM     17  O   LEU d   1     -16.747   6.608  10.159  0.00  0.00    -0.271 OA
ATOM     18  H23 HIS d   1     -14.133   7.374  11.689  0.00  0.00     0.163 HD
BRANCH  16  19
ATOM     19  CA  LEU d   1     -14.510   6.245   9.440  0.00  0.00     0.089 C 
ATOM     20  H13 LEU d   1     -13.612   5.964  10.010  0.00  0.00     0.087 H 
BRANCH  19  21
ATOM     21  N   LEU d   1     -14.972   5.079   8.693  0.00  0.00    -0.346 N 
ATOM     22  C   VAL d   1     -15.212   3.872   9.218  0.00  0.00     0.249 C 
ATOM     23  O   VAL d   1     -15.036   3.586  10.413  0.00  0.00    -0.271 OA
ATOM     24  H12 LEU d   1     -15.121   5.191   7.711  0.00  0.00     0.163 HD
BRANCH  22  25
ATOM     25  CA  VAL d   1     -15.696   2.801   8.222  0.00  0.00     0.178 C 
ATOM     26  H4  VAL d   1     -15.411   3.128   7.211  0.00  0.00     0.099 H 
BRANCH  25  27
ATOM     27  N   VAL d   1     -15.042   1.490   8.494  0.00  0.00    -0.066 N 
ATOM     28  H1  VAL d   1     -14.041   1.604   8.474  0.00  0.00     0.275 HD
ATOM     29  H2  VAL d   1     -15.319   0.824   7.790  0.00  0.00     0.275 HD
ATOM     30  H3  VAL d   1     -15.324   1.156   9.402  0.00  0.00     0.275 HD
ENDBRANCH  25  27
BRANCH  25  31
ATOM     31  CB  VAL d   1     -17.247   2.619   8.254  0.00  0.00    -0.025 C 
ATOM     32  H5  VAL d   1     -17.435   1.684   8.802  0.00  0.00     0.042 H 
BRANCH  31  33
ATOM     33  CG1 VAL d   1     -17.944   3.694   9.025  0.00  0.00    -0.071 C 
ATOM     34  H6  VAL d   1     -19.029   3.511   9.011  0.00  0.00     0.028 H 
ATOM     35  H7  VAL d   1     -17.731   4.671   8.566  0.00  0.00     0.028 H 
ATOM     36  H8  VAL d   1     -17.585   3.691  10.065  0.00  0.00     0.028 H 
ENDBRANCH  31  33
BRANCH  31  37
ATOM     37  CG2 VAL d   1     -17.825   2.413   6.851  0.00  0.00    -0.071 C 
ATOM     38  H9  VAL d   1     -17.270   1.612   6.340  0.00  0.00     0.028 H 
ATOM     39  H10 VAL d   1     -17.734   3.346   6.276  0.00  0.00     0.028 H 
ATOM     40  H11 VAL d   1     -18.886   2.132   6.929  0.00  0.00     0.028 H 
ENDBRANCH  31  37
ENDBRANCH  25  31
ENDBRANCH  22  25
ENDBRANCH  19  21
BRANCH  19  41
ATOM     41  CB  LEU d   1     -14.170   7.381   8.468  0.00  0.00    -0.035 C 
ATOM     42  H14 LEU d   1     -14.054   8.302   9.058  0.00  0.00     0.037 H 
ATOM     43  H15 LEU d   1     -15.018   7.493   7.776  0.00  0.00     0.037 H 
BRANCH  41  44
ATOM     44  CG  LEU d   1     -12.906   7.205   7.629  0.00  0.00    -0.059 C 
ATOM     45  H16 LEU d   1     -13.002   6.282   7.039  0.00  0.00     0.038 H 
BRANCH  44  46
ATOM     46  CD1 LEU d   1     -12.752   8.377   6.670  0.00  0.00    -0.073 C 
ATOM     47  H17 LEU d   1     -11.840   8.242   6.070  0.00  0.00     0.028 H 
ATOM     48  H18 LEU d   1     -12.679   9.313   7.243  0.00  0.00     0.028 H 
ATOM     49  H19 LEU d   1     -13.626   8.423   6.003  0.00  0.00     0.028 H 
ENDBRANCH  44  46
BRANCH  44  50
ATOM     50  CD2 LEU d   1     -11.689   7.076   8.526  0.00  0.00    -0.073 C 
ATOM     51  H20 LEU d   1     -11.825   6.224   9.208  0.00  0.00     0.028 H 
ATOM     52  H21 LEU d   1     -11.566   7.999   9.112  0.00  0.00     0.028 H 
ATOM     53  H22 LEU d   1     -10.794   6.912   7.908  0.00  0.00     0.028 H 
ENDBRANCH  44  50
ENDBRANCH  41  44
ENDBRANCH  19  41
ENDBRANCH  16  19
ENDBRANCH  13  15
BRANCH  13  54
ATOM     54  CB  HIS d   1     -15.261   8.693  13.565  0.00  0.00     0.004 C 
ATOM     55  H25 HIS d   1     -14.544   9.462  13.241  0.00  0.00     0.046 H 
ATOM     56  H26 HIS d   1     -14.717   7.854  14.023  0.00  0.00     0.046 H 
BRANCH  54  57
ATOM     57  CG  HIS d   1     -16.166   9.292  14.597  0.00  0.00     0.053 A 
ATOM     58  ND1 HIS d   1     -15.887  10.475  15.246  0.00  0.00    -0.247 NA
ATOM     59  CE1 HIS d   1     -16.870  10.759  16.081  0.00  0.00     0.064 A 
ATOM     60  NE2 HIS d   1     -17.784   9.813  15.986  0.00  0.00    -0.359 N 
ATOM     61  H28 HIS d   1     -16.918  11.627  16.737  0.00  0.00     0.143 H 
ATOM     62  CD2 HIS d   1     -17.371   8.889  15.058  0.00  0.00     0.002 A 
ATOM     63  H29 HIS d   1     -18.664   9.774  16.520  0.00  0.00     0.166 HD
ATOM     64  H27 HIS d   1     -17.914   7.997  14.750  0.00  0.00     0.114 H 
ENDBRANCH  54  57
ENDBRANCH  13  54
ENDBRANCH  10  13
ENDBRANCH   7   9
BRANCH   7  65
ATOM     65  CB  ASP d   1     -20.107  10.485  11.241  0.00  0.00     0.043 C 
ATOM     66  H32 ASP d   1     -20.434   9.492  10.898  0.00  0.00     0.052 H 
ATOM     67  H33 ASP d   1     -20.632  11.263  10.668  0.00  0.00     0.052 H 
BRANCH  65  68
ATOM     68  CG  ASP d   1     -20.467  10.635  12.702  0.00  0.00     0.175 C 
ATOM     69  OD1 ASP d   1     -20.045  11.633  13.323  0.00  0.00    -0.648 OA
ATOM     70  OD2 ASP d   1     -21.176   9.757  13.235  0.00  0.00    -0.648 OA
ENDBRANCH  65  68
ENDBRANCH   7  65
ENDBRANCH   4   7
ENDBRANCH   1   3
BRANCH   1  71
ATOM     71  C   ASP d   1     -16.496  14.109  13.703  0.00  0.00     0.241 C 
ATOM     72  O   ASP d   1     -16.843  13.908  14.861  0.00  0.00    -0.271 OA
ATOM     73  N   LEU d   1     -15.274  14.520  13.365  0.00  0.00    -0.346 N 
ATOM     74  H38 LEU d   1     -15.040  14.586  12.395  0.00  0.00     0.163 HD
BRANCH  73  75
ATOM     75  CA  LEU d   1     -14.259  14.879  14.364  0.00  0.00     0.089 C 
ATOM     76  H39 LEU d   1     -14.424  14.257  15.256  0.00  0.00     0.087 H 
BRANCH  75  77
ATOM     77  C   LEU d   1     -14.315  16.348  14.786  0.00  0.00     0.241 C 
ATOM     78  O   LEU d   1     -14.420  17.244  13.946  0.00  0.00    -0.271 OA
ATOM     79  N   LEU d   1     -14.203  16.610  16.082  0.00  0.00    -0.346 N 
ATOM     80  H49 LEU d   1     -14.166  15.858  16.740  0.00  0.00     0.163 HD
BRANCH  79  81
ATOM     81  CA  LEU d   1     -14.134  17.994  16.552  0.00  0.00     0.089 C 
ATOM     82  H50 LEU d   1     -14.786  18.602  15.908  0.00  0.00     0.087 H 
BRANCH  81  83
ATOM     83  C   LEU d   1     -12.710  18.557  16.451  0.00  0.00     0.241 C 
ATOM     84  O   LEU d   1     -11.730  17.854  16.692  0.00  0.00    -0.271 OA
ATOM     85  N   GLU d   1     -12.611  19.834  16.106  0.00  0.00    -0.346 N 
ATOM     86  H60 GLU d   1     -13.446  20.343  15.898  0.00  0.00     0.163 HD
BRANCH  85  87
ATOM     87  CA  GLU d   1     -11.330  20.523  16.019  0.00  0.00     0.090 C 
ATOM     88  H61 GLU d   1     -10.675  19.972  15.328  0.00  0.00     0.087 H 
BRANCH  87  89
ATOM     89  C   GLU d   1     -10.651  20.577  17.395  0.00  0.00     0.241 C 
ATOM     90  O   GLU d   1     -11.331  20.631  18.402  0.00  0.00    -0.271 OA
ATOM     91  N   ALA d   1      -9.319  20.553  17.427  0.00  0.00    -0.345 N 
ATOM     92  H66 ALA d   1      -8.816  20.464  16.568  0.00  0.00     0.163 HD
BRANCH  91  93
ATOM     93  CA  ALA d   1      -8.567  20.653  18.685  0.00  0.00     0.093 C 
ATOM     94  H67 ALA d   1      -9.051  19.980  19.408  0.00  0.00     0.089 H 
BRANCH  93  95
ATOM     95  C   ALA d   1      -8.565  22.056  19.295  0.00  0.00     0.196 C 
ATOM     96  O   ALA d   1      -8.121  22.247  20.436  0.00  0.00    -0.646 OA
ATOM     97  OXT ALA d   1      -8.966  23.039  18.665  0.00  0.00    -0.646 OA
ENDBRANCH  93  95
BRANCH  93  98
ATOM     98  CB  ALA d   1      -7.135  20.182  18.489  0.00  0.00    -0.048 C 
ATOM     99  H68 ALA d   1      -6.589  20.264  19.440  0.00  0.00     0.030 H 
ATOM    100  H69 ALA d   1      -6.644  20.808  17.729  0.00  0.00     0.030 H 
ATOM    101  H70 ALA d   1      -7.136  19.134  18.156  0.00  0.00     0.030 H 
ENDBRANCH  93  98
ENDBRANCH  91  93
ENDBRANCH  87  89
BRANCH  87 102
ATOM    102  CB  GLU d   1     -11.556  21.929  15.467  0.00  0.00    -0.029 C 
ATOM    103  H62 GLU d   1     -10.631  22.510  15.600  0.00  0.00     0.037 H 
ATOM    104  H63 GLU d   1     -12.370  22.401  16.036  0.00  0.00     0.037 H 
BRANCH 102 105
ATOM    105  CG  GLU d   1     -11.930  21.940  13.979  0.00  0.00     0.018 C 
ATOM    106  H64 GLU d   1     -12.690  21.163  13.807  0.00  0.00     0.049 H 
ATOM    107  H65 GLU d   1     -11.029  21.707  13.393  0.00  0.00     0.049 H 
BRANCH 105 108
ATOM    108  CD  GLU d   1     -12.487  23.273  13.495  0.00  0.00     0.172 C 
ATOM    109  OE1 GLU d   1     -12.400  24.291  14.228  0.00  0.00    -0.648 OA
ATOM    110  OE2 GLU d   1     -13.024  23.299  12.366  0.00  0.00    -0.648 OA
ENDBRANCH 105 108
ENDBRANCH 102 105
ENDBRANCH  87 102
ENDBRANCH  85  87
ENDBRANCH  81  83
BRANCH  81 111
ATOM    111  CB  LEU d   1     -14.648  18.104  17.991  0.00  0.00    -0.035 C 
ATOM    112  H51 LEU d   1     -13.854  17.736  18.657  0.00  0.00     0.037 H 
ATOM    113  H52 LEU d   1     -15.531  17.454  18.080  0.00  0.00     0.037 H 
BRANCH 111 114
ATOM    114  CG  LEU d   1     -15.049  19.500  18.474  0.00  0.00    -0.059 C 
ATOM    115  H53 LEU d   1     -14.243  20.200  18.208  0.00  0.00     0.038 H 
BRANCH 114 116
ATOM    116  CD1 LEU d   1     -16.332  19.963  17.781  0.00  0.00    -0.073 C 
ATOM    117  H54 LEU d   1     -16.602  20.966  18.142  0.00  0.00     0.028 H 
ATOM    118  H55 LEU d   1     -17.146  19.260  18.009  0.00  0.00     0.028 H 
ATOM    119  H56 LEU d   1     -16.170  19.996  16.694  0.00  0.00     0.028 H 
ENDBRANCH 114 116
BRANCH 114 120
ATOM    120  CD2 LEU d   1     -15.217  19.521  20.001  0.00  0.00    -0.073 C 
ATOM    121  H57 LEU d   1     -14.284  19.185  20.477  0.00  0.00     0.028 H 
ATOM    122  H58 LEU d   1     -16.038  18.848  20.289  0.00  0.00     0.028 H 
ATOM    123  H59 LEU d   1     -15.449  20.545  20.330  0.00  0.00     0.028 H 
ENDBRANCH 114 120
ENDBRANCH 111 114
ENDBRANCH  81 111
ENDBRANCH  79  81
ENDBRANCH  75  77
BRANCH  75 124
ATOM    124  CB  LEU d   1     -12.866  14.594  13.808  0.00  0.00    -0.035 C 
ATOM    125  H40 LEU d   1     -12.135  15.002  14.521  0.00  0.00     0.037 H 
ATOM    126  H41 LEU d   1     -12.777  15.124  12.848  0.00  0.00     0.037 H 
BRANCH 124 127
ATOM    127  CG  LEU d   1     -12.501  13.135  13.561  0.00  0.00    -0.059 C 
ATOM    128  H42 LEU d   1     -13.187  12.716  12.810  0.00  0.00     0.038 H 
BRANCH 127 129
ATOM    129  CD1 LEU d   1     -11.089  13.059  13.028  0.00  0.00    -0.073 C 
ATOM    130  H43 LEU d   1     -10.821  12.007  12.848  0.00  0.00     0.028 H 
ATOM    131  H44 LEU d   1     -10.396  13.493  13.763  0.00  0.00     0.028 H 
ATOM    132  H45 LEU d   1     -11.022  13.621  12.085  0.00  0.00     0.028 H 
ENDBRANCH 127 129
BRANCH 127 133
ATOM    133  CD2 LEU d   1     -12.641  12.331  14.855  0.00  0.00    -0.073 C 
ATOM    134  H46 LEU d   1     -13.676  12.403  15.221  0.00  0.00     0.028 H 
ATOM    135  H47 LEU d   1     -11.955  12.735  15.614  0.00  0.00     0.028 H 
ATOM    136  H48 LEU d   1     -12.393  11.277  14.661  0.00  0.00     0.028 H 
ENDBRANCH 127 133
ENDBRANCH 124 127
ENDBRANCH  75 124
ENDBRANCH  73  75
ENDBRANCH   1  71
BRANCH   1 137
ATOM    137  CB  ASP d   1     -18.785  14.694  12.856  0.00  0.00     0.043 C 
ATOM    138  H36 ASP d   1     -19.170  14.376  13.836  0.00  0.00     0.052 H 
ATOM    139  H37 ASP d   1     -19.522  14.452  12.076  0.00  0.00     0.052 H 
BRANCH 137 140
ATOM    140  CG  ASP d   1     -18.581  16.233  12.882  0.00  0.00     0.175 C 
ATOM    141  OD1 ASP d   1     -17.435  16.704  13.088  0.00  0.00    -0.648 OA
ATOM    142  OD2 ASP d   1     -19.584  16.971  12.695  0.00  0.00    -0.648 OA
ENDBRANCH 137 140
ENDBRANCH   1 137
TORSDOF 43
