REMARK WARNING: 32 MAX_TORS EXCEEDED!!!
REMARK  45 active torsions:
REMARK  status: ('A' for Active; 'I' for Inactive)
REMARK    1  A    between atoms: N_1  and  CA_2 
REMARK    2  A    between atoms: CA_2  and  C_3 
REMARK    3  A    between atoms: CA_2  and  CB_5 
REMARK       I    between atoms: C_3  and  N_8 
REMARK    4  A    between atoms: CB_5  and  CG1_6 
REMARK    5  A    between atoms: CB_5  and  CG2_7 
REMARK    6  A    between atoms: N_8  and  CA_9 
REMARK    7  A    between atoms: CA_9  and  C_10 
REMARK    8  A    between atoms: CA_9  and  CB_12 
REMARK       I    between atoms: C_10  and  N_16 
REMARK    9  A    between atoms: CB_12  and  CG_13 
REMARK   10  A    between atoms: CG_13  and  CD1_14 
REMARK   11  A    between atoms: CG_13  and  CD2_15 
REMARK   12  A    between atoms: N_16  and  CA_17 
REMARK   13  A    between atoms: CA_17  and  C_18 
REMARK   14  A    between atoms: CA_17  and  CB_20 
REMARK       I    between atoms: C_18  and  N_27 
REMARK   15  A    between atoms: CB_20  and  CG_21 
REMARK   16  A    between atoms: CG_21  and  CD_22 
REMARK   17  A    between atoms: CD_22  and  NE_23 
REMARK       I    between atoms: NE_23  and  CZ_24 
REMARK       I    between atoms: CZ_24  and  NH1_25 
REMARK   18  A    between atoms: N_27  and  CA_28 
REMARK   19  A    between atoms: CA_28  and  C_29 
REMARK   20  A    between atoms: CA_28  and  CB_31 
REMARK       I    between atoms: C_29  and  N_35 
REMARK   21  A    between atoms: CB_31  and  CG_32 
REMARK   22  A    between atoms: N_35  and  CA_36 
REMARK   23  A    between atoms: CA_36  and  C_37 
REMARK   24  A    between atoms: CA_36  and  CB_39 
REMARK       I    between atoms: C_37  and  N_43 
REMARK   25  A    between atoms: CB_39  and  CG_40 
REMARK   26  A    between atoms: N_43  and  CA_44 
REMARK   27  A    between atoms: CA_44  and  C_45 
REMARK   28  A    between atoms: CA_44  and  CB_47 
REMARK       I    between atoms: C_45  and  N_51 
REMARK   29  A    between atoms: CB_47  and  CG_48 
REMARK   30  A    between atoms: CG_48  and  CD1_49 
REMARK   31  A    between atoms: CG_48  and  CD2_50 
REMARK   32  A    between atoms: N_51  and  CA_52 
REMARK   33  A    between atoms: CA_52  and  C_53 
REMARK   34  A    between atoms: CA_52  and  CB_55 
REMARK       I    between atoms: C_53  and  N_59 
REMARK   35  A    between atoms: CB_55  and  CG_56 
REMARK   36  A    between atoms: CG_56  and  CD1_57 
REMARK   37  A    between atoms: CG_56  and  CD2_58 
REMARK   38  A    between atoms: N_59  and  CA_60 
REMARK   39  A    between atoms: CA_60  and  C_61 
REMARK   40  A    between atoms: CA_60  and  CB_63 
REMARK       I    between atoms: C_61  and  N_68 
REMARK   41  A    between atoms: CB_63  and  CG_64 
REMARK   42  A    between atoms: CG_64  and  CD_65 
REMARK   43  A    between atoms: N_68  and  CA_69 
REMARK   44  A    between atoms: CA_69  and  C_70 
REMARK   45  A    between atoms: CA_69  and  CB_72 
ROOT
ATOM      1  C   ASP d   1     -18.410  12.156  11.010  0.00  0.00     0.241 C 
ATOM      2  O   ASP d   1     -18.629  12.966  10.096  0.00  0.00    -0.271 OA
ATOM      3  N   ASP d   1     -17.811  12.503  12.147  0.00  0.00    -0.345 N 
ATOM      4  H40 ASP d   1     -17.648  11.811  12.851  0.00  0.00     0.163 HD
ENDROOT
BRANCH   3   5
ATOM      5  CA  ASP d   1     -17.388  13.886  12.380  0.00  0.00     0.098 C 
ATOM      6  H41 ASP d   1     -16.950  14.267  11.445  0.00  0.00     0.088 H 
BRANCH   5   7
ATOM      7  C   ASP d   1     -16.322  13.986  13.474  0.00  0.00     0.241 C 
ATOM      8  O   ASP d   1     -16.390  13.291  14.486  0.00  0.00    -0.271 OA
ATOM      9  N   LEU d   1     -15.331  14.840  13.250  0.00  0.00    -0.346 N 
ATOM     10  H44 LEU d   1     -15.297  15.325  12.376  0.00  0.00     0.163 HD
BRANCH   9  11
ATOM     11  CA  LEU d   1     -14.293  15.092  14.237  0.00  0.00     0.089 C 
ATOM     12  H45 LEU d   1     -14.456  14.430  15.100  0.00  0.00     0.087 H 
BRANCH  11  13
ATOM     13  C   LEU d   1     -14.342  16.538  14.701  0.00  0.00     0.241 C 
ATOM     14  O   LEU d   1     -14.286  17.463  13.883  0.00  0.00    -0.271 OA
ATOM     15  N   LEU d   1     -14.437  16.741  16.009  0.00  0.00    -0.346 N 
ATOM     16  H55 LEU d   1     -14.540  15.960  16.626  0.00  0.00     0.163 HD
BRANCH  15  17
ATOM     17  CA  LEU d   1     -14.392  18.093  16.555  0.00  0.00     0.089 C 
ATOM     18  H56 LEU d   1     -15.039  18.740  15.944  0.00  0.00     0.087 H 
BRANCH  17  19
ATOM     19  C   LEU d   1     -12.965  18.650  16.519  0.00  0.00     0.241 C 
ATOM     20  O   LEU d   1     -12.008  17.914  16.734  0.00  0.00    -0.271 OA
ATOM     21  N   GLU d   1     -12.834  19.951  16.263  0.00  0.00    -0.346 N 
ATOM     22  H66 GLU d   1     -13.656  20.496  16.098  0.00  0.00     0.163 HD
BRANCH  21  23
ATOM     23  CA  GLU d   1     -11.525  20.611  16.215  0.00  0.00     0.090 C 
ATOM     24  H67 GLU d   1     -10.868  20.037  15.544  0.00  0.00     0.087 H 
BRANCH  23  25
ATOM     25  C   GLU d   1     -10.896  20.617  17.614  0.00  0.00     0.241 C 
ATOM     26  O   GLU d   1     -11.610  20.579  18.613  0.00  0.00    -0.271 OA
ATOM     27  N   ALA d   1      -9.569  20.637  17.673  0.00  0.00    -0.345 N 
ATOM     28  H72 ALA d   1      -9.053  20.599  16.817  0.00  0.00     0.163 HD
BRANCH  27  29
ATOM     29  CA  ALA d   1      -8.826  20.713  18.936  0.00  0.00     0.093 C 
ATOM     30  H73 ALA d   1      -9.339  20.071  19.668  0.00  0.00     0.089 H 
BRANCH  29  31
ATOM     31  C   ALA d   1      -8.776  22.134  19.509  0.00  0.00     0.196 C 
ATOM     32  O   ALA d   1      -9.137  23.099  18.826  0.00  0.00    -0.646 OA
ATOM     33  OXT ALA d   1      -8.350  22.356  20.659  0.00  0.00    -0.646 OA
ENDBRANCH  29  31
BRANCH  29  34
ATOM     34  CB  ALA d   1      -7.407  20.185  18.743  0.00  0.00    -0.048 C 
ATOM     35  H74 ALA d   1      -6.860  20.247  19.695  0.00  0.00     0.030 H 
ATOM     36  H75 ALA d   1      -6.891  20.791  17.984  0.00  0.00     0.030 H 
ATOM     37  H76 ALA d   1      -7.448  19.137  18.411  0.00  0.00     0.030 H 
ENDBRANCH  29  34
ENDBRANCH  27  29
ENDBRANCH  23  25
BRANCH  23  38
ATOM     38  CB  GLU d   1     -11.665  22.040  15.645  0.00  0.00    -0.029 C 
ATOM     39  H68 GLU d   1     -10.704  22.562  15.766  0.00  0.00     0.037 H 
ATOM     40  H69 GLU d   1     -12.444  22.570  16.213  0.00  0.00     0.037 H 
BRANCH  38  41
ATOM     41  CG  GLU d   1     -12.049  22.054  14.151  0.00  0.00     0.018 C 
ATOM     42  H70 GLU d   1     -12.840  21.305  13.998  0.00  0.00     0.049 H 
ATOM     43  H71 GLU d   1     -11.159  21.771  13.570  0.00  0.00     0.049 H 
BRANCH  41  44
ATOM     44  CD  GLU d   1     -12.561  23.403  13.609  0.00  0.00     0.172 C 
ATOM     45  OE1 GLU d   1     -12.477  24.446  14.298  0.00  0.00    -0.648 OA
ATOM     46  OE2 GLU d   1     -13.054  23.417  12.455  0.00  0.00    -0.648 OA
ENDBRANCH  41  44
ENDBRANCH  38  41
ENDBRANCH  23  38
ENDBRANCH  21  23
ENDBRANCH  17  19
BRANCH  17  47
ATOM     47  CB  LEU d   1     -14.905  18.097  17.992  0.00  0.00    -0.035 C 
ATOM     48  H57 LEU d   1     -14.190  17.543  18.617  0.00  0.00     0.037 H 
ATOM     49  H58 LEU d   1     -15.881  17.590  18.013  0.00  0.00     0.037 H 
BRANCH  47  50
ATOM     50  CG  LEU d   1     -15.077  19.497  18.582  0.00  0.00    -0.059 C 
ATOM     51  H59 LEU d   1     -14.110  20.020  18.549  0.00  0.00     0.038 H 
BRANCH  50  52
ATOM     52  CD1 LEU d   1     -16.088  20.288  17.757  0.00  0.00    -0.073 C 
ATOM     53  H60 LEU d   1     -16.206  21.293  18.188  0.00  0.00     0.028 H 
ATOM     54  H61 LEU d   1     -17.057  19.768  17.768  0.00  0.00     0.028 H 
ATOM     55  H62 LEU d   1     -15.729  20.373  16.721  0.00  0.00     0.028 H 
ENDBRANCH  50  52
BRANCH  50  56
ATOM     56  CD2 LEU d   1     -15.525  19.389  20.031  0.00  0.00    -0.073 C 
ATOM     57  H63 LEU d   1     -14.781  18.816  20.603  0.00  0.00     0.028 H 
ATOM     58  H64 LEU d   1     -16.497  18.876  20.077  0.00  0.00     0.028 H 
ATOM     59  H65 LEU d   1     -15.621  20.397  20.461  0.00  0.00     0.028 H 
ENDBRANCH  50  56
ENDBRANCH  47  50
ENDBRANCH  17  47
ENDBRANCH  15  17
ENDBRANCH  11  13
BRANCH  11  60
ATOM     60  CB  LEU d   1     -12.914  14.812  13.644  0.00  0.00    -0.035 C 
ATOM     61  H46 LEU d   1     -12.178  15.264  14.325  0.00  0.00     0.037 H 
ATOM     62  H47 LEU d   1     -12.877  15.324  12.671  0.00  0.00     0.037 H 
BRANCH  60  63
ATOM     63  CG  LEU d   1     -12.467  13.378  13.403  0.00  0.00    -0.059 C 
ATOM     64  H48 LEU d   1     -13.146  12.909  12.676  0.00  0.00     0.038 H 
BRANCH  63  65
ATOM     65  CD1 LEU d   1     -11.062  13.412  12.823  0.00  0.00    -0.073 C 
ATOM     66  H49 LEU d   1     -10.716  12.384  12.640  0.00  0.00     0.028 H 
ATOM     67  H50 LEU d   1     -10.383  13.906  13.534  0.00  0.00     0.028 H 
ATOM     68  H51 LEU d   1     -11.070  13.971  11.876  0.00  0.00     0.028 H 
ENDBRANCH  63  65
BRANCH  63  69
ATOM     69  CD2 LEU d   1     -12.497  12.562  14.685  0.00  0.00    -0.073 C 
ATOM     70  H52 LEU d   1     -13.521  12.550  15.088  0.00  0.00     0.028 H 
ATOM     71  H53 LEU d   1     -11.818  13.014  15.423  0.00  0.00     0.028 H 
ATOM     72  H54 LEU d   1     -12.175  11.532  14.472  0.00  0.00     0.028 H 
ENDBRANCH  63  69
ENDBRANCH  60  63
ENDBRANCH  11  60
ENDBRANCH   9  11
ENDBRANCH   5   7
BRANCH   5  73
ATOM     73  CB  ASP d   1     -18.599  14.764  12.737  0.00  0.00     0.043 C 
ATOM     74  H42 ASP d   1     -18.893  14.552  13.776  0.00  0.00     0.052 H 
ATOM     75  H43 ASP d   1     -19.429  14.509  12.062  0.00  0.00     0.052 H 
BRANCH  73  76
ATOM     76  CG  ASP d   1     -18.306  16.261  12.608  0.00  0.00     0.175 C 
ATOM     77  OD1 ASP d   1     -17.202  16.626  12.149  0.00  0.00    -0.648 OA
ATOM     78  OD2 ASP d   1     -19.188  17.074  12.958  0.00  0.00    -0.648 OA
ENDBRANCH  73  76
ENDBRANCH   5  73
ENDBRANCH   3   5
BRANCH   1  79
ATOM     79  CA  ASP d   1     -18.839  10.692  10.859  0.00  0.00     0.098 C 
ATOM     80  H37 ASP d   1     -18.681  10.412   9.807  0.00  0.00     0.088 H 
BRANCH  79  81
ATOM     81  N   ASP d   1     -18.065   9.758  11.679  0.00  0.00    -0.346 N 
ATOM     82  C   ARG d   1     -16.808   9.423  11.393  0.00  0.00     0.241 C 
ATOM     83  O   ARG d   1     -16.144   9.970  10.513  0.00  0.00    -0.271 OA
ATOM     84  H36 ASP d   1     -18.497   9.356  12.486  0.00  0.00     0.163 HD
BRANCH  82  85
ATOM     85  CA  ARG d   1     -16.207   8.295  12.219  0.00  0.00     0.089 C 
ATOM     86  H24 ARG d   1     -17.012   7.622  12.549  0.00  0.00     0.087 H 
BRANCH  85  87
ATOM     87  N   ARG d   1     -15.276   7.548  11.379  0.00  0.00    -0.346 N 
ATOM     88  C   LEU d   1     -15.698   6.847  10.330  0.00  0.00     0.241 C 
ATOM     89  O   LEU d   1     -16.887   6.631  10.095  0.00  0.00    -0.271 OA
ATOM     90  H23 ARG d   1     -14.300   7.564  11.597  0.00  0.00     0.163 HD
BRANCH  88  91
ATOM     91  CA  LEU d   1     -14.618   6.313   9.403  0.00  0.00     0.089 C 
ATOM     92  H13 LEU d   1     -13.744   6.019  10.004  0.00  0.00     0.087 H 
BRANCH  91  93
ATOM     93  N   LEU d   1     -15.070   5.148   8.642  0.00  0.00    -0.346 N 
ATOM     94  C   VAL d   1     -15.337   3.974   9.214  0.00  0.00     0.249 C 
ATOM     95  O   VAL d   1     -15.141   3.755  10.415  0.00  0.00    -0.271 OA
ATOM     96  H12 LEU d   1     -15.183   5.236   7.652  0.00  0.00     0.163 HD
BRANCH  94  97
ATOM     97  CA  VAL d   1     -15.853   2.856   8.291  0.00  0.00     0.178 C 
ATOM     98  H4  VAL d   1     -15.561   3.114   7.262  0.00  0.00     0.099 H 
BRANCH  97  99
ATOM     99  N   VAL d   1     -15.219   1.548   8.643  0.00  0.00    -0.066 N 
ATOM    100  H1  VAL d   1     -14.216   1.644   8.622  0.00  0.00     0.275 HD
ATOM    101  H2  VAL d   1     -15.503   0.847   7.977  0.00  0.00     0.275 HD
ATOM    102  H3  VAL d   1     -15.510   1.271   9.568  0.00  0.00     0.275 HD
ENDBRANCH  97  99
BRANCH  97 103
ATOM    103  CB  VAL d   1     -17.404   2.711   8.323  0.00  0.00    -0.025 C 
ATOM    104  H5  VAL d   1     -17.635   1.861   8.982  0.00  0.00     0.042 H 
BRANCH 103 105
ATOM    105  CG1 VAL d   1     -18.077   3.904   8.905  0.00  0.00    -0.071 C 
ATOM    106  H6  VAL d   1     -19.166   3.748   8.903  0.00  0.00     0.028 H 
ATOM    107  H7  VAL d   1     -17.833   4.792   8.304  0.00  0.00     0.028 H 
ATOM    108  H8  VAL d   1     -17.730   4.053   9.938  0.00  0.00     0.028 H 
ENDBRANCH 103 105
BRANCH 103 109
ATOM    109  CG2 VAL d   1     -17.947   2.368   6.937  0.00  0.00    -0.071 C 
ATOM    110  H9  VAL d   1     -17.423   1.483   6.547  0.00  0.00     0.028 H 
ATOM    111  H10 VAL d   1     -17.785   3.219   6.259  0.00  0.00     0.028 H 
ATOM    112  H11 VAL d   1     -19.024   2.155   7.008  0.00  0.00     0.028 H 
ENDBRANCH 103 109
ENDBRANCH  97 103
ENDBRANCH  94  97
ENDBRANCH  91  93
BRANCH  91 113
ATOM    113  CB  LEU d   1     -14.223   7.444   8.452  0.00  0.00    -0.035 C 
ATOM    114  H14 LEU d   1     -14.077   8.348   9.062  0.00  0.00     0.037 H 
ATOM    115  H15 LEU d   1     -15.065   7.599   7.762  0.00  0.00     0.037 H 
BRANCH 113 116
ATOM    116  CG  LEU d   1     -12.967   7.263   7.602  0.00  0.00    -0.059 C 
ATOM    117  H16 LEU d   1     -13.057   6.338   7.014  0.00  0.00     0.038 H 
BRANCH 116 118
ATOM    118  CD1 LEU d   1     -12.828   8.445   6.664  0.00  0.00    -0.073 C 
ATOM    119  H17 LEU d   1     -11.925   8.320   6.049  0.00  0.00     0.028 H 
ATOM    120  H18 LEU d   1     -12.747   9.372   7.251  0.00  0.00     0.028 H 
ATOM    121  H19 LEU d   1     -13.711   8.501   6.011  0.00  0.00     0.028 H 
ENDBRANCH 116 118
BRANCH 116 122
ATOM    122  CD2 LEU d   1     -11.747   7.173   8.483  0.00  0.00    -0.073 C 
ATOM    123  H20 LEU d   1     -11.849   6.315   9.164  0.00  0.00     0.028 H 
ATOM    124  H21 LEU d   1     -11.650   8.098   9.071  0.00  0.00     0.028 H 
ATOM    125  H22 LEU d   1     -10.852   7.041   7.857  0.00  0.00     0.028 H 
ENDBRANCH 116 122
ENDBRANCH 113 116
ENDBRANCH  91 113
ENDBRANCH  88  91
ENDBRANCH  85  87
BRANCH  85 126
ATOM    126  CB  ARG d   1     -15.497   8.856  13.461  0.00  0.00    -0.036 C 
ATOM    127  H25 ARG d   1     -14.619   9.430  13.129  0.00  0.00     0.036 H 
ATOM    128  H26 ARG d   1     -15.169   8.011  14.084  0.00  0.00     0.036 H 
BRANCH 126 129
ATOM    129  CG  ARG d   1     -16.371   9.764  14.307  0.00  0.00    -0.048 C 
ATOM    130  H27 ARG d   1     -17.425   9.493  14.145  0.00  0.00     0.035 H 
ATOM    131  H28 ARG d   1     -16.208  10.806  13.993  0.00  0.00     0.035 H 
BRANCH 129 132
ATOM    132  CD  ARG d   1     -16.058   9.645  15.791  0.00  0.00     0.009 C 
ATOM    133  H29 ARG d   1     -15.079  10.107  15.983  0.00  0.00     0.064 H 
ATOM    134  H30 ARG d   1     -16.019   8.579  16.059  0.00  0.00     0.064 H 
BRANCH 132 135
ATOM    135  NE  ARG d   1     -17.060  10.303  16.629  0.00  0.00    -0.227 N 
ATOM    136  CZ  ARG d   1     -18.323  10.531  16.273  0.00  0.00     0.665 C 
ATOM    137  NH1 ARG d   1     -18.774  10.147  15.090  0.00  0.00    -0.235 N 
ATOM    138  NH2 ARG d   1     -19.148  11.143  17.112  0.00  0.00    -0.235 N 
ATOM    139  H32 ARG d   1     -19.753  10.330  14.828  0.00  0.00     0.174 HD
ATOM    140  H33 ARG d   1     -18.146   9.665  14.431  0.00  0.00     0.174 HD
ATOM    141  H34 ARG d   1     -18.810  11.447  18.036  0.00  0.00     0.174 HD
ATOM    142  H35 ARG d   1     -20.126  11.314  16.839  0.00  0.00     0.174 HD
ATOM    143  H31 ARG d   1     -16.767  10.614  17.566  0.00  0.00     0.177 HD
ENDBRANCH 132 135
ENDBRANCH 129 132
ENDBRANCH 126 129
ENDBRANCH  85 126
ENDBRANCH  82  85
ENDBRANCH  79  81
BRANCH  79 144
ATOM    144  CB  ASP d   1     -20.336  10.549  11.170  0.00  0.00     0.043 C 
ATOM    145  H38 ASP d   1     -20.581  11.199  12.023  0.00  0.00     0.052 H 
ATOM    146  H39 ASP d   1     -20.541   9.502  11.437  0.00  0.00     0.052 H 
BRANCH 144 147
ATOM    147  CG  ASP d   1     -21.226  10.934   9.993  0.00  0.00     0.175 C 
ATOM    148  OD1 ASP d   1     -20.729  11.536   9.018  0.00  0.00    -0.648 OA
ATOM    149  OD2 ASP d   1     -22.438  10.629  10.047  0.00  0.00    -0.648 OA
ENDBRANCH 144 147
ENDBRANCH  79 144
ENDBRANCH   1  79
TORSDOF 45
