REMARK  1 active torsions:
REMARK  status: ('A' for Active; 'I' for Inactive)
REMARK    1  A    between atoms: C7_4  and  C12_5 
ROOT
ATOM      1  N11 MO8 d   1      29.069  11.469  23.736  0.00  0.00    -0.231 N 
ATOM      2  C9  MO8 d   1      30.137  10.879  24.318  0.00  0.00     0.720 A 
ATOM      3  N8  MO8 d   1      29.922  10.188  25.446  0.00  0.00    -0.068 NA
ATOM      4  C7  MO8 d   1      30.893   9.542  26.113  0.00  0.00     0.059 A 
ATOM      5  C2  MO8 d   1      32.257   9.640  25.574  0.00  0.00     0.001 A 
ATOM      6  N10 MO8 d   1      31.364  10.991  23.748  0.00  0.00    -0.067 NA
ATOM      7  C3  MO8 d   1      32.445  10.413  24.342  0.00  0.00     0.063 A 
ATOM      8  C4  MO8 d   1      33.815  10.585  23.726  0.00  0.00    -0.016 C 
ATOM      9  C5  MO8 d   1      34.567   9.284  23.528  0.00  0.00    -0.018 C 
ATOM     10  S6  MO8 d   1      34.201   8.165  24.826  0.00  0.00    -0.164 SA
ATOM     11  C1  MO8 d   1      33.429   8.957  26.213  0.00  0.00     0.004 C 
ATOM     12  H1  MO8 d   1      28.137  11.386  24.166  0.00  0.00     0.174 HD
ATOM     13  H2  MO8 d   1      29.188  12.002  22.863  0.00  0.00     0.174 HD
ATOM     14  H6  MO8 d   1      34.412  11.233  24.384  0.00  0.00     0.043 H 
ATOM     15  H7  MO8 d   1      33.696  11.069  22.745  0.00  0.00     0.043 H 
ATOM     16  H8  MO8 d   1      35.648   9.488  23.519  0.00  0.00     0.049 H 
ATOM     17  H9  MO8 d   1      34.270   8.836  22.568  0.00  0.00     0.049 H 
ATOM     18  H10 MO8 d   1      33.102   8.221  26.962  0.00  0.00     0.056 H 
ATOM     19  H11 MO8 d   1      34.106   9.684  26.685  0.00  0.00     0.056 H 
ENDROOT
BRANCH   4  20
ATOM     20  C12 MO8 d   1      30.572   8.768  27.370  0.00  0.00    -0.034 C 
ATOM     21  H3  MO8 d   1      31.492   8.314  27.766  0.00  0.00     0.035 H 
ATOM     22  H4  MO8 d   1      29.843   7.977  27.138  0.00  0.00     0.035 H 
ATOM     23  H5  MO8 d   1      30.147   9.449  28.122  0.00  0.00     0.035 H 
ENDBRANCH   4  20
TORSDOF 1
