REMARK  6 active torsions:
REMARK  status: ('A' for Active; 'I' for Inactive)
REMARK    1  A    between atoms: C12_4  and  C17_5 
REMARK    2  A    between atoms: C11_13  and  C9_14 
REMARK    3  A    between atoms: C7_16  and  N24_17 
REMARK    4  A    between atoms: N24_17  and  O25_18 
REMARK    5  A    between atoms: C5_23  and  N27_24 
REMARK    6  A    between atoms: C1_26  and  C26_27 
ROOT
ATOM      1  C9  MOJ d   1       3.352  10.820  25.009  0.00  0.00    -0.017 C 
ATOM      2  C8  MOJ d   1       3.290   9.638  25.978  0.00  0.00    -0.014 C 
ATOM      3  C7  MOJ d   1       1.918   9.486  26.628  0.00  0.00     0.076 C 
ATOM      4  C2  MOJ d   1       0.688  10.123  26.011  0.00  0.00     0.041 A 
ATOM      5  C10 MOJ d   1       2.185  10.775  24.005  0.00  0.00    -0.016 C 
ATOM      6  C3  MOJ d   1       0.835  10.755  24.694  0.00  0.00     0.068 A 
ATOM      7  N4  MOJ d   1      -0.243  11.325  24.124  0.00  0.00    -0.067 NA
ATOM      8  C5  MOJ d   1      -1.458  11.281  24.717  0.00  0.00     0.720 A 
ATOM      9  N6  MOJ d   1      -1.659  10.736  25.944  0.00  0.00    -0.067 NA
ATOM     10  C1  MOJ d   1      -0.650  10.152  26.640  0.00  0.00     0.064 A 
ATOM     11  H8  MOJ d   1       3.306  11.767  25.567  0.00  0.00     0.048 H 
ATOM     12  H9  MOJ d   1       4.040   9.790  26.768  0.00  0.00     0.043 H 
ATOM     13  H10 MOJ d   1       3.522   8.716  25.425  0.00  0.00     0.043 H 
ATOM     14  H12 MOJ d   1       2.282   9.868  23.390  0.00  0.00     0.043 H 
ATOM     15  H13 MOJ d   1       2.239  11.664  23.359  0.00  0.00     0.043 H 
ENDROOT
BRANCH   1  16
ATOM     16  C11 MOJ d   1       4.664  10.700  24.317  0.00  0.00    -0.042 A 
ATOM     17  C12 MOJ d   1       5.662  11.806  24.317  0.00  0.00    -0.015 A 
ATOM     18  C13 MOJ d   1       6.860  11.588  23.650  0.00  0.00    -0.034 A 
ATOM     19  C14 MOJ d   1       7.143  10.384  22.992  0.00  0.00     0.117 A 
ATOM     20  H1  MOJ d   1       7.603  12.377  23.638  0.00  0.00     0.089 H 
ATOM     21  F23 MOJ d   1       8.326  10.234  22.360  0.00  0.00    -0.206 F 
ATOM     22  C15 MOJ d   1       6.209   9.362  22.969  0.00  0.00    -0.045 A 
ATOM     23  C16 MOJ d   1       4.979   9.518  23.632  0.00  0.00    -0.073 A 
ATOM     24  H6  MOJ d   1       6.426   8.441  22.440  0.00  0.00     0.088 H 
ATOM     25  H7  MOJ d   1       4.259   8.708  23.613  0.00  0.00     0.084 H 
BRANCH  17  26
ATOM     26  C17 MOJ d   1       5.469  13.121  25.024  0.00  0.00    -0.008 A 
ATOM     27  C22 MOJ d   1       6.478  13.590  25.869  0.00  0.00     0.013 A 
ATOM     28  N21 MOJ d   1       6.338  14.765  26.497  0.00  0.00    -0.272 NA
ATOM     29  H2  MOJ d   1       7.376  13.002  26.017  0.00  0.00     0.116 H 
ATOM     30  C20 MOJ d   1       5.234  15.524  26.325  0.00  0.00     0.002 A 
ATOM     31  C19 MOJ d   1       4.203  15.132  25.492  0.00  0.00    -0.065 A 
ATOM     32  H3  MOJ d   1       5.154  16.466  26.855  0.00  0.00     0.114 H 
ATOM     33  C18 MOJ d   1       4.330  13.898  24.841  0.00  0.00    -0.070 A 
ATOM     34  H4  MOJ d   1       3.329  15.756  25.348  0.00  0.00     0.085 H 
ATOM     35  H5  MOJ d   1       3.537  13.547  24.191  0.00  0.00     0.085 H 
ENDBRANCH  17  26
ENDBRANCH   1  16
BRANCH   3  36
ATOM     36  N24 MOJ d   1       1.813   8.736  27.637  0.00  0.00    -0.140 NA
BRANCH  36  37
ATOM     37  O25 MOJ d   1       2.933   8.147  28.236  0.00  0.00    -0.266 OA
ATOM     38  H11 MOJ d   1       2.655   7.621  28.977  0.00  0.00     0.247 HD
ENDBRANCH  36  37
ENDBRANCH   3  36
BRANCH  10  39
ATOM     39  C26 MOJ d   1      -0.944   9.557  27.991  0.00  0.00    -0.034 C 
ATOM     40  H16 MOJ d   1      -2.006   9.707  28.234  0.00  0.00     0.035 H 
ATOM     41  H17 MOJ d   1      -0.321  10.049  28.752  0.00  0.00     0.035 H 
ATOM     42  H18 MOJ d   1      -0.720   8.480  27.974  0.00  0.00     0.035 H 
ENDBRANCH  10  39
BRANCH   8  43
ATOM     43  N27 MOJ d   1      -2.501  11.830  24.065  0.00  0.00    -0.231 N 
ATOM     44  H14 MOJ d   1      -2.364  12.247  23.133  0.00  0.00     0.174 HD
ATOM     45  H15 MOJ d   1      -3.436  11.832  24.498  0.00  0.00     0.174 HD
ENDBRANCH   8  43
TORSDOF 6
