REMARK  11 active torsions:
REMARK  status: ('A' for Active; 'I' for Inactive)
REMARK    1  A    between atoms: PG_1  and  N3B_5 
REMARK    2  A    between atoms: N3B_5  and  PB_6 
REMARK    3  A    between atoms: PB_6  and  O3A_9 
REMARK    4  A    between atoms: O3A_9  and  PA_10 
REMARK    5  A    between atoms: PA_10  and  O5'_13 
REMARK    6  A    between atoms: O5'_13  and  C5'_14 
REMARK    7  A    between atoms: C5'_14  and  C4'_15 
REMARK    8  A    between atoms: C3'_17  and  O3'_18 
REMARK    9  A    between atoms: C2'_19  and  O2'_20 
REMARK   10  A    between atoms: C1'_21  and  N9_22 
REMARK   11  A    between atoms: C2_29  and  N2_30 
ROOT
ATOM      1  C4' GNP d   1      36.388   6.847   3.426  0.00  0.00     0.089 C 
ATOM      2  O4' GNP d   1      35.350   6.024   4.022  0.00  0.00    -0.353 OA
ATOM      3  C3' GNP d   1      36.585   6.238   2.049  0.00  0.00     0.091 C 
ATOM      4  C2' GNP d   1      36.354   4.748   2.260  0.00  0.00     0.105 C 
ATOM      5  C1' GNP d   1      35.456   4.706   3.502  0.00  0.00     0.139 C 
ATOM      6  H4  GNP d   1      37.318   6.797   4.012  0.00  0.00     0.090 H 
ATOM      7  H5  GNP d   1      35.873   6.643   1.315  0.00  0.00     0.091 H 
ATOM      8  H7  GNP d   1      35.865   4.287   1.389  0.00  0.00     0.093 H 
ATOM      9  H9  GNP d   1      35.903   4.033   4.248  0.00  0.00     0.122 H 
ENDROOT
BRANCH   1  10
ATOM     10  C5' GNP d   1      35.924   8.281   3.336  0.00  0.00     0.058 C 
ATOM     11  H2  GNP d   1      35.472   8.590   4.290  0.00  0.00     0.079 H 
ATOM     12  H3  GNP d   1      36.776   8.937   3.104  0.00  0.00     0.079 H 
BRANCH  10  13
ATOM     13  O5' GNP d   1      34.954   8.353   2.291  0.00  0.00    -0.287 OA
BRANCH  13  14
ATOM     14  PA  GNP d   1      34.397   9.714   1.745  0.00  0.00     0.417 P 
ATOM     15  O1A GNP d   1      33.370   9.336   0.747  0.00  0.00    -0.624 OA
ATOM     16  O2A GNP d   1      35.577  10.460   1.273  0.00  0.00    -0.624 OA
BRANCH  14  17
ATOM     17  O3A GNP d   1      33.708  10.440   2.916  0.00  0.00    -0.186 OA
BRANCH  17  18
ATOM     18  PB  GNP d   1      33.197  11.897   2.892  0.00  0.00     0.379 P 
ATOM     19  O1B GNP d   1      31.979  11.985   3.746  0.00  0.00    -0.629 OA
ATOM     20  O2B GNP d   1      33.030  12.320   1.482  0.00  0.00    -0.629 OA
BRANCH  18  21
ATOM     21  N3B GNP d   1      34.360  12.796   3.512  0.00  0.00    -0.218 N 
ATOM     22  H1  GNP d   1      35.095  12.318   3.993  0.00  0.00     0.179 HD
BRANCH  21  23
ATOM     23  PG  GNP d   1      34.459  14.390   3.435  0.00  0.00     0.381 P 
ATOM     24  O1G GNP d   1      34.895  14.759   2.037  0.00  0.00    -0.622 OA
ATOM     25  O2G GNP d   1      33.138  14.956   3.909  0.00  0.00    -0.622 OA
ATOM     26  O3G GNP d   1      35.633  14.764   4.312  0.00  0.00    -0.622 OA
ENDBRANCH  21  23
ENDBRANCH  18  21
ENDBRANCH  17  18
ENDBRANCH  14  17
ENDBRANCH  13  14
ENDBRANCH  10  13
ENDBRANCH   1  10
BRANCH   3  27
ATOM     27  O3' GNP d   1      37.895   6.526   1.661  0.00  0.00    -0.390 OA
ATOM     28  H6  GNP d   1      38.500   6.146   2.287  0.00  0.00     0.210 HD
ENDBRANCH   3  27
BRANCH   5  29
ATOM     29  N9  GNP d   1      34.108   4.274   3.206  0.00  0.00    -0.295 N 
ATOM     30  C8  GNP d   1      33.336   4.734   2.162  0.00  0.00     0.071 A 
ATOM     31  N7  GNP d   1      32.147   4.200   2.101  0.00  0.00    -0.234 NA
ATOM     32  H10 GNP d   1      33.688   5.479   1.449  0.00  0.00     0.144 H 
ATOM     33  C5  GNP d   1      32.140   3.339   3.179  0.00  0.00     0.171 A 
ATOM     34  C6  GNP d   1      31.107   2.511   3.607  0.00  0.00     0.292 A 
ATOM     35  C4  GNP d   1      33.325   3.366   3.883  0.00  0.00     0.161 A 
ATOM     36  O6  GNP d   1      30.002   2.378   3.094  0.00  0.00    -0.265 OA
ATOM     37  N1  GNP d   1      31.451   1.791   4.740  0.00  0.00    -0.154 N 
ATOM     38  C2  GNP d   1      32.653   1.870   5.385  0.00  0.00     0.680 A 
ATOM     39  H11 GNP d   1      30.767   1.165   5.114  0.00  0.00     0.187 HD
ATOM     40  N3  GNP d   1      33.653   2.659   4.998  0.00  0.00    -0.174 N 
ATOM     41  H14 GNP d   1      34.560   2.726   5.481  0.00  0.00     0.186 HD
BRANCH  38  42
ATOM     42  N2  GNP d   1      32.752   1.086   6.460  0.00  0.00    -0.234 N 
ATOM     43  H12 GNP d   1      33.621   1.077   7.012  0.00  0.00     0.174 HD
ATOM     44  H13 GNP d   1      31.959   0.490   6.738  0.00  0.00     0.174 HD
ENDBRANCH  38  42
ENDBRANCH   5  29
BRANCH   4  45
ATOM     45  O2' GNP d   1      37.575   4.099   2.534  0.00  0.00    -0.388 OA
ATOM     46  H8  GNP d   1      38.169   4.221   1.802  0.00  0.00     0.210 HD
ENDBRANCH   4  45
TORSDOF 11
