REMARK  5 active torsions:
REMARK  status: ('A' for Active; 'I' for Inactive)
REMARK    1  A    between atoms: C1_1  and  O3_17 
REMARK    2  A    between atoms: C3_3  and  O2_16 
REMARK    3  A    between atoms: C5_5  and  C7_7 
REMARK    4  A    between atoms: C8_8  and  C9_9 
REMARK    5  A    between atoms: C12_12  and  O1_15 
ROOT
ATOM      1  C7  STL d   1     -24.622   1.153  -1.940  0.00  0.00    -0.072 C 
ATOM      2  C8  STL d   1     -25.599   0.216  -1.904  0.00  0.00    -0.072 C 
ATOM      3  H4  STL d   1     -24.449   1.789  -1.073  0.00  0.00     0.084 H 
ATOM      4  H5  STL d   1     -25.687  -0.513  -2.709  0.00  0.00     0.084 H 
ENDROOT
BRANCH   1   5
ATOM      5  C5  STL d   1     -23.786   1.318  -3.155  0.00  0.00    -0.031 A 
ATOM      6  C4  STL d   1     -23.701   0.348  -4.130  0.00  0.00    -0.041 A 
ATOM      7  C3  STL d   1     -22.994   0.596  -5.288  0.00  0.00     0.069 A 
ATOM      8  H2  STL d   1     -24.189  -0.609  -3.987  0.00  0.00     0.089 H 
ATOM      9  C2  STL d   1     -22.413   1.813  -5.495  0.00  0.00    -0.019 A 
ATOM     10  C1  STL d   1     -22.509   2.803  -4.566  0.00  0.00     0.069 A 
ATOM     11  H1  STL d   1     -21.866   1.994  -6.413  0.00  0.00     0.092 H 
ATOM     12  C6  STL d   1     -23.222   2.561  -3.409  0.00  0.00    -0.041 A 
ATOM     13  H3  STL d   1     -23.344   3.358  -2.684  0.00  0.00     0.089 H 
BRANCH   7  14
ATOM     14  O2  STL d   1     -22.844  -0.355  -6.248  0.00  0.00    -0.361 OA
ATOM     15  H11 STL d   1     -22.398  -1.108  -5.879  0.00  0.00     0.217 HD
ENDBRANCH   7  14
BRANCH  10  16
ATOM     16  O3  STL d   1     -21.882   3.999  -4.841  0.00  0.00    -0.361 OA
ATOM     17  H12 STL d   1     -21.454   3.944  -5.687  0.00  0.00     0.217 HD
ENDBRANCH  10  16
ENDBRANCH   1   5
BRANCH   2  18
ATOM     18  C9  STL d   1     -26.551   0.185  -0.763  0.00  0.00    -0.036 A 
ATOM     19  C10 STL d   1     -26.202   0.659   0.495  0.00  0.00    -0.070 A 
ATOM     20  C11 STL d   1     -27.154   0.684   1.528  0.00  0.00    -0.050 A 
ATOM     21  H6  STL d   1     -25.193   1.010   0.680  0.00  0.00     0.084 H 
ATOM     22  C12 STL d   1     -28.470   0.296   1.285  0.00  0.00     0.065 A 
ATOM     23  H7  STL d   1     -26.863   1.007   2.521  0.00  0.00     0.087 H 
ATOM     24  C13 STL d   1     -28.825  -0.136   0.006  0.00  0.00    -0.050 A 
ATOM     25  C14 STL d   1     -27.872  -0.177  -1.004  0.00  0.00    -0.070 A 
ATOM     26  H8  STL d   1     -29.845  -0.440  -0.199  0.00  0.00     0.087 H 
ATOM     27  H9  STL d   1     -28.163  -0.497  -1.998  0.00  0.00     0.084 H 
BRANCH  22  28
ATOM     28  O1  STL d   1     -29.403   0.323   2.285  0.00  0.00    -0.361 OA
ATOM     29  H10 STL d   1     -29.741  -0.554   2.425  0.00  0.00     0.217 HD
ENDBRANCH  22  28
ENDBRANCH   2  18
TORSDOF 5
