REMARK  6 active torsions:
REMARK  status: ('A' for Active; 'I' for Inactive)
REMARK    1  A    between atoms: C2_1  and  O16_10 
REMARK    2  A    between atoms: C4_3  and  O17_9 
REMARK    3  A    between atoms: C7_5  and  C8_4 
REMARK    4  A    between atoms: C8_4  and  C9_11 
REMARK    5  A    between atoms: C6_7  and  C7_5 
REMARK    6  A    between atoms: C12_14  and  O15_15 
ROOT
ATOM      1  C7  RE2 d   1      24.563  -1.184  -1.744  0.00  0.00    -0.037 C 
ATOM      2  H4  RE2 d   1      23.906  -1.295  -0.869  0.00  0.00     0.040 H 
ATOM      3  H5  RE2 d   1      25.335  -1.967  -1.724  0.00  0.00     0.040 H 
ENDROOT
BRANCH   1   4
ATOM      4  C8  RE2 d   1      25.274   0.188  -1.633  0.00  0.00    -0.037 C 
ATOM      5  H2  RE2 d   1      24.559   0.968  -1.332  0.00  0.00     0.040 H 
ATOM      6  H3  RE2 d   1      25.731   0.462  -2.595  0.00  0.00     0.040 H 
BRANCH   4   7
ATOM      7  C9  RE2 d   1      26.343   0.011  -0.570  0.00  0.00    -0.058 A 
ATOM      8  C14 RE2 d   1      26.010  -0.287   0.748  0.00  0.00    -0.074 A 
ATOM      9  C13 RE2 d   1      27.020  -0.469   1.706  0.00  0.00    -0.051 A 
ATOM     10  H10 RE2 d   1      24.969  -0.379   1.035  0.00  0.00     0.084 H 
ATOM     11  C12 RE2 d   1      28.374  -0.347   1.362  0.00  0.00     0.065 A 
ATOM     12  H11 RE2 d   1      26.749  -0.708   2.728  0.00  0.00     0.087 H 
ATOM     13  C11 RE2 d   1      28.692  -0.035   0.049  0.00  0.00    -0.051 A 
ATOM     14  C10 RE2 d   1      27.679   0.152  -0.914  0.00  0.00    -0.074 A 
ATOM     15  H13 RE2 d   1      29.732   0.066  -0.241  0.00  0.00     0.087 H 
ATOM     16  H14 RE2 d   1      27.947   0.408  -1.933  0.00  0.00     0.084 H 
BRANCH  11  17
ATOM     17  O15 RE2 d   1      29.384  -0.523   2.302  0.00  0.00    -0.361 OA
ATOM     18  H12 RE2 d   1      29.280   0.113   3.000  0.00  0.00     0.217 HD
ENDBRANCH  11  17
ENDBRANCH   4   7
ENDBRANCH   1   4
BRANCH   1  19
ATOM     19  C6  RE2 d   1      23.711  -1.394  -3.003  0.00  0.00    -0.053 A 
ATOM     20  C5  RE2 d   1      23.466  -0.349  -3.885  0.00  0.00    -0.045 A 
ATOM     21  C4  RE2 d   1      22.708  -0.538  -5.030  0.00  0.00     0.068 A 
ATOM     22  H6  RE2 d   1      23.875   0.632  -3.674  0.00  0.00     0.088 H 
ATOM     23  C3  RE2 d   1      22.197  -1.795  -5.316  0.00  0.00    -0.019 A 
ATOM     24  C2  RE2 d   1      22.451  -2.854  -4.456  0.00  0.00     0.068 A 
ATOM     25  H1  RE2 d   1      21.601  -1.950  -6.208  0.00  0.00     0.092 H 
ATOM     26  C1  RE2 d   1      23.192  -2.648  -3.297  0.00  0.00    -0.045 A 
ATOM     27  H7  RE2 d   1      23.366  -3.474  -2.617  0.00  0.00     0.088 H 
BRANCH  21  28
ATOM     28  O17 RE2 d   1      22.469   0.521  -5.880  0.00  0.00    -0.361 OA
ATOM     29  H8  RE2 d   1      23.296   0.859  -6.204  0.00  0.00     0.217 HD
ENDBRANCH  21  28
BRANCH  24  30
ATOM     30  O16 RE2 d   1      21.924  -4.080  -4.730  0.00  0.00    -0.361 OA
ATOM     31  H9  RE2 d   1      21.452  -4.044  -5.554  0.00  0.00     0.217 HD
ENDBRANCH  24  30
ENDBRANCH   1  19
TORSDOF 6
