REMARK  3 active torsions:
REMARK  status: ('A' for Active; 'I' for Inactive)
REMARK    1  A    between atoms: N8_14  and  C9_4 
REMARK    2  A    between atoms: C7_12  and  C3_13 
REMARK    3  A    between atoms: C7_12  and  N8_14 
ROOT
ATOM      1  C7  11X d   1     -25.166   0.269   1.793  0.00  0.00     0.018 C 
ATOM      2  H10 11X d   1     -24.438   1.081   1.648  0.00  0.00     0.071 H 
ATOM      3  H11 11X d   1     -26.081   0.674   2.250  0.00  0.00     0.071 H 
ENDROOT
BRANCH   1   4
ATOM      4  C3  11X d   1     -24.558  -0.790   2.737  0.00  0.00    -0.023 A 
ATOM      5  C2  11X d   1     -24.138  -0.443   4.010  0.00  0.00     0.009 A 
ATOM      6  N1  11X d   1     -23.613  -1.316   4.849  0.00  0.00    -0.273 NA
ATOM      7  H6  11X d   1     -24.245   0.587   4.330  0.00  0.00     0.115 H 
ATOM      8  C6  11X d   1     -23.450  -2.578   4.504  0.00  0.00     0.002 A 
ATOM      9  C5  11X d   1     -23.850  -3.010   3.246  0.00  0.00    -0.065 A 
ATOM     10  H9  11X d   1     -23.004  -3.278   5.202  0.00  0.00     0.114 H 
ATOM     11  C4  11X d   1     -24.401  -2.107   2.337  0.00  0.00    -0.072 A 
ATOM     12  H8  11X d   1     -23.734  -4.052   2.970  0.00  0.00     0.085 H 
ATOM     13  H7  11X d   1     -24.698  -2.427   1.345  0.00  0.00     0.084 H 
ENDBRANCH   1   4
BRANCH   1  14
ATOM     14  N8  11X d   1     -25.503  -0.321   0.474  0.00  0.00    -0.386 N 
ATOM     15  H12 11X d   1     -24.736  -0.643  -0.134  0.00  0.00     0.160 HD
BRANCH  14  16
ATOM     16  C9  11X d   1     -26.761  -0.452   0.043  0.00  0.00     0.028 A 
ATOM     17  C10 11X d   1     -27.836  -0.332   0.913  0.00  0.00    -0.058 A 
ATOM     18  C11 11X d   1     -29.137  -0.495   0.414  0.00  0.00    -0.081 A 
ATOM     19  H1  11X d   1     -27.673  -0.116   1.962  0.00  0.00     0.086 H 
ATOM     20  C12 11X d   1     -29.368  -0.752  -0.933  0.00  0.00    -0.083 A 
ATOM     21  H2  11X d   1     -29.979  -0.419   1.092  0.00  0.00     0.083 H 
ATOM     22  C13 11X d   1     -28.289  -0.849  -1.813  0.00  0.00    -0.081 A 
ATOM     23  H4  11X d   1     -30.381  -0.876  -1.298  0.00  0.00     0.083 H 
ATOM     24  C14 11X d   1     -26.989  -0.713  -1.310  0.00  0.00    -0.058 A 
ATOM     25  H5  11X d   1     -28.455  -1.027  -2.869  0.00  0.00     0.083 H 
ATOM     26  H3  11X d   1     -26.145  -0.812  -1.983  0.00  0.00     0.086 H 
ENDBRANCH  14  16
ENDBRANCH   1  14
TORSDOF 3
