REMARK  3 active torsions:
REMARK  status: ('A' for Active; 'I' for Inactive)
REMARK    1  A    between atoms: N8_14  and  C9_4 
REMARK    2  A    between atoms: C7_12  and  C3_13 
REMARK    3  A    between atoms: C7_12  and  N8_14 
ROOT
ATOM      1  C7  11X d   1      13.988   0.379   1.787  0.00  0.00     0.018 C 
ATOM      2  H10 11X d   1      14.699   1.205   1.635  0.00  0.00     0.071 H 
ATOM      3  H11 11X d   1      13.075   0.764   2.265  0.00  0.00     0.071 H 
ENDROOT
BRANCH   1   4
ATOM      4  C3  11X d   1      14.634  -0.690   2.704  0.00  0.00    -0.023 A 
ATOM      5  C2  11X d   1      15.065  -0.392   3.985  0.00  0.00     0.009 A 
ATOM      6  N1  11X d   1      15.598  -1.312   4.778  0.00  0.00    -0.273 NA
ATOM      7  H6  11X d   1      14.964   0.623   4.351  0.00  0.00     0.115 H 
ATOM      8  C6  11X d   1      15.762  -2.566   4.392  0.00  0.00     0.002 A 
ATOM      9  C5  11X d   1      15.349  -2.939   3.138  0.00  0.00    -0.065 A 
ATOM     10  H9  11X d   1      16.217  -3.290   5.058  0.00  0.00     0.114 H 
ATOM     11  C4  11X d   1      14.779  -2.002   2.266  0.00  0.00    -0.072 A 
ATOM     12  H8  11X d   1      15.465  -3.968   2.819  0.00  0.00     0.085 H 
ATOM     13  H7  11X d   1      14.458  -2.293   1.272  0.00  0.00     0.084 H 
ENDBRANCH   1   4
BRANCH   1  14
ATOM     14  N8  11X d   1      13.638  -0.218   0.468  0.00  0.00    -0.386 N 
ATOM     15  H12 11X d   1      14.403  -0.548  -0.138  0.00  0.00     0.160 HD
BRANCH  14  16
ATOM     16  C9  11X d   1      12.384  -0.347   0.033  0.00  0.00     0.028 A 
ATOM     17  C10 11X d   1      11.332  -0.180   0.918  0.00  0.00    -0.058 A 
ATOM     18  C11 11X d   1      10.033  -0.317   0.439  0.00  0.00    -0.081 A 
ATOM     19  H1  11X d   1      11.517   0.052   1.961  0.00  0.00     0.086 H 
ATOM     20  C12 11X d   1       9.767  -0.608  -0.894  0.00  0.00    -0.083 A 
ATOM     21  H2  11X d   1       9.204  -0.193   1.126  0.00  0.00     0.083 H 
ATOM     22  C13 11X d   1      10.806  -0.751  -1.800  0.00  0.00    -0.081 A 
ATOM     23  H4  11X d   1       8.742  -0.724  -1.226  0.00  0.00     0.083 H 
ATOM     24  C14 11X d   1      12.121  -0.635  -1.321  0.00  0.00    -0.058 A 
ATOM     25  H5  11X d   1      10.609  -0.947  -2.848  0.00  0.00     0.083 H 
ATOM     26  H3  11X d   1      12.950  -0.770  -2.006  0.00  0.00     0.086 H 
ENDBRANCH  14  16
ENDBRANCH   1  14
TORSDOF 3
