REMARK  4 active torsions:
REMARK  status: ('A' for Active; 'I' for Inactive)
REMARK    1  A    between atoms: N1_1  and  C2_2 
REMARK    2  A    between atoms: C7_7  and  O8_8 
REMARK    3  A    between atoms: O8_8  and  C9_9 
REMARK    4  A    between atoms: C9_9  and  C10_10 
ROOT
ATOM      1  C9  3IP d   1      25.351  -0.447   0.889  0.00  0.00     0.050 C 
ATOM      2  H6  3IP d   1      24.562   0.223   0.517  0.00  0.00     0.082 H 
ATOM      3  H7  3IP d   1      25.140  -1.477   0.566  0.00  0.00     0.082 H 
ENDROOT
BRANCH   1   4
ATOM      4  O8  3IP d   1      25.276  -0.431   2.328  0.00  0.00    -0.343 OA
BRANCH   4   5
ATOM      5  C7  3IP d   1      24.411   0.401   3.031  0.00  0.00     0.114 A 
ATOM      6  C2  3IP d   1      23.738   1.465   2.441  0.00  0.00     0.154 A 
ATOM      7  N3  3IP d   1      22.925   2.256   3.183  0.00  0.00    -0.241 NA
ATOM      8  C4  3IP d   1      22.722   2.069   4.492  0.00  0.00     0.005 A 
ATOM      9  C5  3IP d   1      23.366   1.031   5.134  0.00  0.00    -0.063 A 
ATOM     10  H3  3IP d   1      22.058   2.726   5.043  0.00  0.00     0.114 H 
ATOM     11  C6  3IP d   1      24.199   0.204   4.392  0.00  0.00    -0.046 A 
ATOM     12  H4  3IP d   1      23.224   0.865   6.196  0.00  0.00     0.085 H 
ATOM     13  H5  3IP d   1      24.699  -0.620   4.888  0.00  0.00     0.088 H 
BRANCH   6  14
ATOM     14  N1  3IP d   1      23.893   1.721   1.122  0.00  0.00    -0.382 N 
ATOM     15  H1  3IP d   1      24.509   1.125   0.551  0.00  0.00     0.157 HD
ATOM     16  H2  3IP d   1      23.395   2.512   0.689  0.00  0.00     0.157 HD
ENDBRANCH   6  14
ENDBRANCH   4   5
ENDBRANCH   1   4
BRANCH   1  17
ATOM     17  C10 3IP d   1      26.653  -0.024   0.215  0.00  0.00    -0.034 A 
ATOM     18  C11 3IP d   1      27.879  -0.024   0.877  0.00  0.00    -0.075 A 
ATOM     19  C12 3IP d   1      29.044   0.365   0.198  0.00  0.00    -0.082 A 
ATOM     20  H8  3IP d   1      27.933  -0.325   1.917  0.00  0.00     0.084 H 
ATOM     21  C13 3IP d   1      29.015   0.741  -1.146  0.00  0.00    -0.083 A 
ATOM     22  H9  3IP d   1      29.989   0.374   0.730  0.00  0.00     0.083 H 
ATOM     23  C14 3IP d   1      27.793   0.725  -1.814  0.00  0.00    -0.082 A 
ATOM     24  H10 3IP d   1      29.923   1.039  -1.658  0.00  0.00     0.083 H 
ATOM     25  C15 3IP d   1      26.626   0.348  -1.139  0.00  0.00    -0.075 A 
ATOM     26  H11 3IP d   1      27.745   1.005  -2.860  0.00  0.00     0.083 H 
ATOM     27  H12 3IP d   1      25.682   0.343  -1.672  0.00  0.00     0.084 H 
ENDBRANCH   1  17
TORSDOF 4
