REMARK  4 active torsions:
REMARK  status: ('A' for Active; 'I' for Inactive)
REMARK    1  A    between atoms: N1_1  and  C2_2 
REMARK    2  A    between atoms: C7_4  and  O8_8 
REMARK    3  A    between atoms: O8_8  and  C9_9 
REMARK    4  A    between atoms: C9_9  and  C10_10 
ROOT
ATOM      1  O8  848 d   1      25.356  -0.498   2.409  0.00  0.00    -0.344 OA
ENDROOT
BRANCH   1   2
ATOM      2  C7  848 d   1      24.480   0.433   2.937  0.00  0.00     0.095 A 
ATOM      3  C2  848 d   1      23.995   1.507   2.203  0.00  0.00     0.059 A 
ATOM      4  C3  848 d   1      23.129   2.426   2.787  0.00  0.00    -0.055 A 
ATOM      5  C4  848 d   1      22.740   2.299   4.112  0.00  0.00    -0.081 A 
ATOM      6  H3  848 d   1      22.753   3.254   2.197  0.00  0.00     0.087 H 
ATOM      7  C5  848 d   1      23.227   1.239   4.856  0.00  0.00    -0.080 A 
ATOM      8  H6  848 d   1      22.064   3.020   4.558  0.00  0.00     0.083 H 
ATOM      9  C6  848 d   1      24.075   0.315   4.263  0.00  0.00    -0.049 A 
ATOM     10  H5  848 d   1      22.947   1.131   5.898  0.00  0.00     0.083 H 
ATOM     11  H4  848 d   1      24.433  -0.523   4.850  0.00  0.00     0.087 H 
BRANCH   3  12
ATOM     12  N1  848 d   1      24.358   1.659   0.914  0.00  0.00    -0.397 N 
ATOM     13  H1  848 d   1      23.999   2.455   0.368  0.00  0.00     0.156 HD
ATOM     14  H2  848 d   1      24.994   0.979   0.475  0.00  0.00     0.156 HD
ENDBRANCH   3  12
ENDBRANCH   1   2
BRANCH   1  15
ATOM     15  C9  848 d   1      25.496  -0.785   1.010  0.00  0.00     0.051 C 
ATOM     16  H7  848 d   1      24.597  -0.413   0.497  0.00  0.00     0.082 H 
ATOM     17  H8  848 d   1      25.559  -1.877   0.894  0.00  0.00     0.082 H 
BRANCH  15  18
ATOM     18  C10 848 d   1      26.712  -0.170   0.328  0.00  0.00    -0.017 A 
ATOM     19  C15 848 d   1      27.911   0.036   1.002  0.00  0.00    -0.072 A 
ATOM     20  C14 848 d   1      29.004   0.588   0.317  0.00  0.00    -0.065 A 
ATOM     21  H9  848 d   1      28.000  -0.228   2.050  0.00  0.00     0.084 H 
ATOM     22  C13 848 d   1      28.895   0.911  -1.035  0.00  0.00     0.002 A 
ATOM     23  H10 848 d   1      29.937   0.764   0.841  0.00  0.00     0.085 H 
ATOM     24  N12 848 d   1      27.730   0.688  -1.671  0.00  0.00    -0.272 NA
ATOM     25  H11 848 d   1      29.738   1.336  -1.567  0.00  0.00     0.114 H 
ATOM     26  C11 848 d   1      26.657   0.168  -1.030  0.00  0.00     0.010 A 
ATOM     27  H12 848 d   1      25.736   0.010  -1.579  0.00  0.00     0.115 H 
ENDBRANCH  15  18
ENDBRANCH   1  15
TORSDOF 4
