REMARK  2 active torsions:
REMARK  status: ('A' for Active; 'I' for Inactive)
REMARK    1  A    between atoms: C9_7  and  C7_8 
REMARK    2  A    between atoms: C7_8  and  C1_10 
ROOT
ATOM      1  C7  22F d   1      24.821  -0.417  -1.557  0.00  0.00     0.192 C 
ATOM      2  O8  22F d   1      24.004   0.262  -0.970  0.00  0.00    -0.287 OA
ENDROOT
BRANCH   1   3
ATOM      3  C9  22F d   1      26.181  -0.469  -0.888  0.00  0.00     0.015 A 
ATOM      4  C10 22F d   1      27.352   0.085  -1.383  0.00  0.00    -0.066 A 
ATOM      5  C11 22F d   1      28.536  -0.018  -0.635  0.00  0.00    -0.045 A 
ATOM      6  H2  22F d   1      27.353   0.594  -2.340  0.00  0.00     0.085 H 
ATOM      7  C12 22F d   1      28.566  -0.637   0.619  0.00  0.00     0.116 A 
ATOM      8  H1  22F d   1      29.453   0.394  -1.041  0.00  0.00     0.088 H 
ATOM      9  F15 22F d   1      29.691  -0.753   1.356  0.00  0.00    -0.206 F 
ATOM     10  C13 22F d   1      27.395  -1.153   1.122  0.00  0.00    -0.045 A 
ATOM     11  C14 22F d   1      26.233  -1.051   0.366  0.00  0.00    -0.066 A 
ATOM     12  H3  22F d   1      27.378  -1.632   2.094  0.00  0.00     0.088 H 
ATOM     13  H4  22F d   1      25.315  -1.450   0.783  0.00  0.00     0.085 H 
ENDBRANCH   1   3
BRANCH   1  14
ATOM     14  C1  22F d   1      24.295  -1.106  -2.809  0.00  0.00     0.018 A 
ATOM     15  C6  22F d   1      23.934  -2.448  -2.818  0.00  0.00    -0.052 A 
ATOM     16  C5  22F d   1      23.418  -3.030  -3.975  0.00  0.00     0.003 A 
ATOM     17  H5  22F d   1      24.054  -3.045  -1.921  0.00  0.00     0.087 H 
ATOM     18  N4  22F d   1      23.234  -2.315  -5.091  0.00  0.00    -0.273 NA
ATOM     19  H6  22F d   1      23.161  -4.083  -3.970  0.00  0.00     0.114 H 
ATOM     20  C3  22F d   1      23.540  -1.017  -5.112  0.00  0.00     0.003 A 
ATOM     21  C2  22F d   1      24.058  -0.389  -3.977  0.00  0.00    -0.052 A 
ATOM     22  H7  22F d   1      23.385  -0.444  -6.019  0.00  0.00     0.114 H 
ATOM     23  H8  22F d   1      24.278   0.672  -4.007  0.00  0.00     0.087 H 
ENDBRANCH   1  14
TORSDOF 2
