REMARK  3 active torsions:
REMARK  status: ('A' for Active; 'I' for Inactive)
REMARK    1  A    between atoms: C1_4  and  O7_1 
REMARK    2  A    between atoms: C8_8  and  C4_7 
REMARK    3  A    between atoms: C10_9  and  N13_13 
ROOT
ATOM      1  C5  92G d   1      -9.754  23.970  13.530  0.00  0.00    -0.068 A 
ATOM      2  C6  92G d   1      -9.278  23.274  12.426  0.00  0.00    -0.050 A 
ATOM      3  C1  92G d   1     -10.004  22.205  11.912  0.00  0.00     0.065 A 
ATOM      4  C3  92G d   1     -11.682  22.530  13.609  0.00  0.00    -0.068 A 
ATOM      5  C2  92G d   1     -11.206  21.833  12.504  0.00  0.00    -0.050 A 
ATOM      6  C4  92G d   1     -10.956  23.598  14.122  0.00  0.00    -0.007 A 
ATOM      7  H2  92G d   1      -9.188  24.803  13.930  0.00  0.00     0.085 H 
ATOM      8  H3  92G d   1      -8.341  23.564  11.965  0.00  0.00     0.087 H 
ATOM      9  H4  92G d   1     -12.619  22.240  14.070  0.00  0.00     0.085 H 
ATOM     10  H5  92G d   1     -11.772  21.000  12.104  0.00  0.00     0.087 H 
ENDROOT
BRANCH   6  11
ATOM     11  C8  92G d   1     -11.465  24.345  15.306  0.00  0.00     0.076 A 
ATOM     12  C12 92G d   1     -11.524  25.753  15.337  0.00  0.00    -0.013 A 
ATOM     13  S11 92G d   1     -12.189  26.253  16.920  0.00  0.00    -0.062 SA
ATOM     14  H6  92G d   1     -11.217  26.422  14.534  0.00  0.00     0.098 H 
ATOM     15  C10 92G d   1     -12.332  24.554  17.402  0.00  0.00     0.164 A 
ATOM     16  N9  92G d   1     -11.910  23.703  16.442  0.00  0.00    -0.224 NA
BRANCH  15  17
ATOM     17  N13 92G d   1     -12.811  24.152  18.604  0.00  0.00    -0.378 N 
ATOM     18  H7  92G d   1     -12.870  23.148  18.825  0.00  0.00     0.158 HD
ATOM     19  H8  92G d   1     -13.117  24.851  19.296  0.00  0.00     0.158 HD
ENDBRANCH  15  17
ENDBRANCH   6  11
BRANCH   3  20
ATOM     20  O7  92G d   1      -9.538  21.523  10.830  0.00  0.00    -0.361 OA
ATOM     21  H1  92G d   1      -8.690  21.148  11.035  0.00  0.00     0.217 HD
ENDBRANCH   3  20
TORSDOF 3
