REMARK  3 active torsions:
REMARK  status: ('A' for Active; 'I' for Inactive)
REMARK    1  A    between atoms: N18_1  and  C17_2 
REMARK    2  A    between atoms: C17_2  and  C8_3 
REMARK    3  A    between atoms: C6_5  and  C1_8 
ROOT
ATOM      1  C8  492 d   1      33.011   1.975  -0.254  0.00  0.00     0.009 A 
ATOM      2  S7  492 d   1      31.632   1.492   0.772  0.00  0.00    -0.092 SA
ATOM      3  C6  492 d   1      30.610   1.258  -0.667  0.00  0.00     0.022 A 
ATOM      4  C10 492 d   1      31.301   1.549  -1.843  0.00  0.00    -0.064 A 
ATOM      5  C9  492 d   1      32.637   1.943  -1.603  0.00  0.00    -0.067 A 
ATOM      6  H6  492 d   1      30.860   1.480  -2.836  0.00  0.00     0.085 H 
ATOM      7  H7  492 d   1      33.324   2.202  -2.407  0.00  0.00     0.085 H 
ENDROOT
BRANCH   3   8
ATOM      8  C1  492 d   1      29.178   0.823  -0.570  0.00  0.00     0.021 A 
ATOM      9  S2  492 d   1      27.984   0.959  -1.872  0.00  0.00    -0.101 SA
ATOM     10  C3  492 d   1      26.688   0.260  -0.836  0.00  0.00    -0.044 A 
ATOM     11  C4  492 d   1      27.253  -0.037   0.407  0.00  0.00    -0.075 A 
ATOM     12  H8  492 d   1      25.651   0.098  -1.126  0.00  0.00     0.095 H 
ATOM     13  C5  492 d   1      28.611   0.265   0.566  0.00  0.00    -0.065 A 
ATOM     14  H9  492 d   1      26.667  -0.481   1.211  0.00  0.00     0.084 H 
ATOM     15  H10 492 d   1      29.164   0.081   1.486  0.00  0.00     0.085 H 
ENDBRANCH   3   8
BRANCH   1  16
ATOM     16  C17 492 d   1      34.275   2.306   0.498  0.00  0.00     0.109 C 
ATOM     17  H4  492 d   1      35.144   2.125  -0.152  0.00  0.00     0.083 H 
ATOM     18  H5  492 d   1      34.255   3.364   0.797  0.00  0.00     0.083 H 
BRANCH  16  19
ATOM     19  N18 492 d   1      34.377   1.471   1.684  0.00  0.00    -0.075 N 
ATOM     20  H1  492 d   1      35.224   1.697   2.182  0.00  0.00     0.274 HD
ATOM     21  H2  492 d   1      34.396   0.501   1.411  0.00  0.00     0.274 HD
ATOM     22  H3  492 d   1      33.582   1.636   2.281  0.00  0.00     0.274 HD
ENDBRANCH  16  19
ENDBRANCH   1  16
TORSDOF 3
