REMARK  3 active torsions:
REMARK  status: ('A' for Active; 'I' for Inactive)
REMARK    1  A    between atoms: C7_7  and  C1_1 
REMARK    2  A    between atoms: C4_4  and  C12_11 
REMARK    3  A    between atoms: C12_11  and  N13_12 
ROOT
ATOM      1  C1  80G d   1      25.851   0.564   1.351  0.00  0.00    -0.019 A 
ATOM      2  C2  80G d   1      25.535   1.084   0.101  0.00  0.00    -0.071 A 
ATOM      3  C3  80G d   1      26.466   1.034  -0.929  0.00  0.00    -0.074 A 
ATOM      4  C4  80G d   1      27.714   0.462  -0.710  0.00  0.00    -0.033 A 
ATOM      5  C5  80G d   1      28.031  -0.058   0.540  0.00  0.00    -0.074 A 
ATOM      6  C6  80G d   1      27.099  -0.008   1.570  0.00  0.00    -0.071 A 
ATOM      7  H1  80G d   1      24.561   1.529  -0.070  0.00  0.00     0.084 H 
ATOM      8  H2  80G d   1      26.219   1.441  -1.903  0.00  0.00     0.084 H 
ATOM      9  H3  80G d   1      29.005  -0.502   0.711  0.00  0.00     0.084 H 
ATOM     10  H4  80G d   1      27.345  -0.415   2.544  0.00  0.00     0.084 H 
ENDROOT
BRANCH   1  11
ATOM     11  C7  80G d   1      24.852   0.618   2.455  0.00  0.00     0.015 A 
ATOM     12  C11 80G d   1      24.529  -0.215   3.521  0.00  0.00    -0.065 A 
ATOM     13  C10 80G d   1      23.483   0.270   4.321  0.00  0.00    -0.075 A 
ATOM     14  H7  80G d   1      25.040  -1.156   3.717  0.00  0.00     0.085 H 
ATOM     15  C9  80G d   1      22.917   1.492   3.953  0.00  0.00    -0.044 A 
ATOM     16  H6  80G d   1      23.129  -0.282   5.190  0.00  0.00     0.084 H 
ATOM     17  S8  80G d   1      23.787   2.042   2.492  0.00  0.00    -0.101 SA
ATOM     18  H5  80G d   1      22.103   2.010   4.458  0.00  0.00     0.095 H 
ENDBRANCH   1  11
BRANCH   4  19
ATOM     19  C12 80G d   1      28.727   0.407  -1.830  0.00  0.00     0.103 C 
ATOM     20  H8  80G d   1      28.235   0.656  -2.782  0.00  0.00     0.082 H 
ATOM     21  H9  80G d   1      29.152  -0.606  -1.891  0.00  0.00     0.082 H 
BRANCH  19  22
ATOM     22  N13 80G d   1      29.788   1.361  -1.570  0.00  0.00    -0.075 N 
ATOM     23  H10 80G d   1      30.463   1.324  -2.317  0.00  0.00     0.274 HD
ATOM     24  H11 80G d   1      30.239   1.133  -0.698  0.00  0.00     0.274 HD
ATOM     25  H12 80G d   1      29.399   2.289  -1.514  0.00  0.00     0.274 HD
ENDBRANCH  19  22
ENDBRANCH   4  19
TORSDOF 3
