REMARK  4 active torsions:
REMARK  status: ('A' for Active; 'I' for Inactive)
REMARK    1  A    between atoms: C14_1  and  N13_2 
REMARK    2  A    between atoms: N13_2  and  C12_3 
REMARK    3  A    between atoms: C12_3  and  C2_4 
REMARK    4  A    between atoms: C1_9  and  C7_10 
ROOT
ATOM      1  C2  692 d   1      -4.039  18.272 -20.765  0.00  0.00    -0.021 A 
ATOM      2  C3  692 d   1      -2.749  18.394 -21.298  0.00  0.00    -0.074 A 
ATOM      3  C4  692 d   1      -1.621  18.407 -20.485  0.00  0.00    -0.082 A 
ATOM      4  C5  692 d   1      -1.783  18.290 -19.112  0.00  0.00    -0.082 A 
ATOM      5  C6  692 d   1      -3.055  18.165 -18.561  0.00  0.00    -0.071 A 
ATOM      6  C1  692 d   1      -4.192  18.155 -19.374  0.00  0.00    -0.011 A 
ATOM      7  H8  692 d   1      -2.627  18.480 -22.372  0.00  0.00     0.084 H 
ATOM      8  H9  692 d   1      -0.632  18.507 -20.917  0.00  0.00     0.083 H 
ATOM      9  H10 692 d   1      -0.914  18.296 -18.465  0.00  0.00     0.083 H 
ATOM     10  H11 692 d   1      -3.166  18.074 -17.486  0.00  0.00     0.084 H 
ENDROOT
BRANCH   1  11
ATOM     11  C12 692 d   1      -5.212  18.267 -21.734  0.00  0.00     0.105 C 
ATOM     12  H6  692 d   1      -5.345  17.251 -22.133  0.00  0.00     0.083 H 
ATOM     13  H7  692 d   1      -6.123  18.573 -21.199  0.00  0.00     0.083 H 
BRANCH  11  14
ATOM     14  N13 692 d   1      -4.974  19.190 -22.842  0.00  0.00    -0.075 N 
ATOM     15  H4  692 d   1      -5.875  19.562 -23.100  0.00  0.00     0.277 HD
ATOM     16  H5  692 d   1      -4.397  19.931 -22.475  0.00  0.00     0.277 HD
BRANCH  14  17
ATOM     17  C14 692 d   1      -4.341  18.751 -24.081  0.00  0.00     0.065 C 
ATOM     18  H1  692 d   1      -4.261  19.602 -24.773  0.00  0.00     0.067 H 
ATOM     19  H2  692 d   1      -4.949  17.959 -24.543  0.00  0.00     0.067 H 
ATOM     20  H3  692 d   1      -3.336  18.361 -23.861  0.00  0.00     0.067 H 
ENDBRANCH  14  17
ENDBRANCH  11  14
ENDBRANCH   1  11
BRANCH   6  21
ATOM     21  C7  692 d   1      -5.504  18.009 -18.668  0.00  0.00     0.015 A 
ATOM     22  C11 692 d   1      -6.841  18.331 -18.886  0.00  0.00    -0.065 A 
ATOM     23  C10 692 d   1      -7.695  17.952 -17.827  0.00  0.00    -0.075 A 
ATOM     24  H12 692 d   1      -7.195  18.828 -19.788  0.00  0.00     0.085 H 
ATOM     25  C9  692 d   1      -7.132  17.314 -16.717  0.00  0.00    -0.044 A 
ATOM     26  H13 692 d   1      -8.765  18.151 -17.873  0.00  0.00     0.084 H 
ATOM     27  S8  692 d   1      -5.387  17.211 -17.084  0.00  0.00    -0.101 SA
ATOM     28  H14 692 d   1      -7.645  16.958 -15.825  0.00  0.00     0.095 H 
ENDBRANCH   6  21
TORSDOF 4
