REMARK  0 active torsions:
REMARK  status: ('A' for Active; 'I' for Inactive)
ROOT
ATOM      1  C8  11S d   1      22.482  -3.026  -5.577  0.00  0.00    -0.022 A 
ATOM      2  C9  11S d   1      22.870  -3.229  -4.255  0.00  0.00    -0.056 A 
ATOM      3  C1  11S d   1      24.320   0.037  -4.809  0.00  0.00    -0.055 A 
ATOM      4  C2  11S d   1      24.935   0.337  -3.604  0.00  0.00    -0.060 A 
ATOM      5  C3  11S d   1      24.899  -0.528  -2.534  0.00  0.00     0.035 A 
ATOM      6  C4  11S d   1      24.221  -1.753  -2.625  0.00  0.00    -0.050 A 
ATOM      7  C5  11S d   1      23.602  -2.066  -3.851  0.00  0.00    -0.007 A 
ATOM      8  C6  11S d   1      23.650  -1.181  -4.923  0.00  0.00     0.042 A 
ATOM      9 CL10 11S d   1      25.767   0.142  -1.110  0.00  0.00    -0.084 Cl
ATOM     10  N7  11S d   1      22.965  -1.782  -5.948  0.00  0.00    -0.365 N 
ATOM     11  H1  11S d   1      21.910  -3.713  -6.199  0.00  0.00     0.111 H 
ATOM     12  H2  11S d   1      22.657  -4.105  -3.644  0.00  0.00     0.086 H 
ATOM     13  H3  11S d   1      24.359   0.731  -5.641  0.00  0.00     0.087 H 
ATOM     14  H4  11S d   1      25.459   1.280  -3.501  0.00  0.00     0.086 H 
ATOM     15  H5  11S d   1      24.175  -2.434  -1.783  0.00  0.00     0.087 H 
ATOM     16  H6  11S d   1      22.827  -1.361  -6.878  0.00  0.00     0.165 HD
ENDROOT
TORSDOF 0
