REMARK  0 active torsions:
REMARK  status: ('A' for Active; 'I' for Inactive)
ROOT
ATOM      1  C1  14O d   1      14.275  -0.026   4.319  0.00  0.00    -0.053 A 
ATOM      2  C2  14O d   1      13.801   0.266   3.039  0.00  0.00    -0.043 A 
ATOM      3  C3  14O d   1      14.093  -0.540   1.948  0.00  0.00     0.117 A 
ATOM      4  C4  14O d   1      14.891  -1.676   2.115  0.00  0.00    -0.034 A 
ATOM      5  C5  14O d   1      15.383  -1.953   3.401  0.00  0.00    -0.005 A 
ATOM      6  C6  14O d   1      15.073  -1.140   4.488  0.00  0.00     0.042 A 
ATOM      7  C8  14O d   1      16.364  -2.825   5.184  0.00  0.00    -0.022 A 
ATOM      8  C9  14O d   1      16.205  -3.049   3.813  0.00  0.00    -0.056 A 
ATOM      9  F10 14O d   1      13.579  -0.167   0.765  0.00  0.00    -0.206 F 
ATOM     10  N7  14O d   1      15.700  -1.683   5.564  0.00  0.00    -0.365 N 
ATOM     11  H1  14O d   1      14.022   0.608   5.162  0.00  0.00     0.087 H 
ATOM     12  H2  14O d   1      13.187   1.148   2.893  0.00  0.00     0.088 H 
ATOM     13  H3  14O d   1      15.123  -2.323   1.277  0.00  0.00     0.089 H 
ATOM     14  H4  14O d   1      16.934  -3.465   5.856  0.00  0.00     0.111 H 
ATOM     15  H5  14O d   1      16.608  -3.859   3.207  0.00  0.00     0.086 H 
ATOM     16  H6  14O d   1      15.681  -1.298   6.519  0.00  0.00     0.165 HD
ENDROOT
TORSDOF 0
