REMARK  1 active torsions:
REMARK  status: ('A' for Active; 'I' for Inactive)
REMARK    1  A    between atoms: O10_1  and  C5_2 
ROOT
ATOM      1  C5  5H1 d   1      26.196  86.848  -0.771  0.00  0.00     0.066 A 
ATOM      2  C6  5H1 d   1      26.305  87.961  -1.614  0.00  0.00    -0.049 A 
ATOM      3  C7  5H1 d   1      25.465  88.066  -2.725  0.00  0.00    -0.054 A 
ATOM      4  C8  5H1 d   1      24.540  87.055  -2.988  0.00  0.00     0.042 A 
ATOM      5  N1  5H1 d   1      23.607  86.850  -3.957  0.00  0.00    -0.365 N 
ATOM      6  C4  5H1 d   1      25.255  85.839  -1.031  0.00  0.00    -0.039 A 
ATOM      7  C9  5H1 d   1      24.427  85.956  -2.145  0.00  0.00    -0.005 A 
ATOM      8  C3  5H1 d   1      23.419  85.050  -2.597  0.00  0.00    -0.056 A 
ATOM      9  C2  5H1 d   1      22.937  85.676  -3.740  0.00  0.00    -0.022 A 
ATOM     10  H2  5H1 d   1      27.035  88.735  -1.406  0.00  0.00     0.087 H 
ATOM     11  H3  5H1 d   1      25.531  88.928  -3.379  0.00  0.00     0.087 H 
ATOM     12  H4  5H1 d   1      23.429  87.490  -4.745  0.00  0.00     0.165 HD
ATOM     13  H5  5H1 d   1      25.174  84.981  -0.374  0.00  0.00     0.089 H 
ATOM     14  H6  5H1 d   1      23.106  84.105  -2.156  0.00  0.00     0.086 H 
ATOM     15  H7  5H1 d   1      22.140  85.288  -4.373  0.00  0.00     0.111 H 
ENDROOT
BRANCH   1  16
ATOM     16  O10 5H1 d   1      27.010  86.750   0.316  0.00  0.00    -0.361 OA
ATOM     17  H1  5H1 d   1      26.863  87.494   0.888  0.00  0.00     0.217 HD
ENDBRANCH   1  16
TORSDOF 1
