REMARK  6 active torsions:
REMARK  status: ('A' for Active; 'I' for Inactive)
REMARK    1  A    between atoms: C1P_5  and  C1O_6 
REMARK    2  A    between atoms: C1O_6  and  O1N_7 
REMARK    3  A    between atoms: O1N_7  and  C1K_8 
REMARK    4  A    between atoms: C1H_11  and  N1_14 
REMARK    5  A    between atoms: N1_14  and  C1G_15 
REMARK    6  A    between atoms: C1G_15  and  C1C_16 
ROOT
ATOM      1  C1K 812 d   1       9.977  -0.638  -0.770  0.00  0.00     0.069 A 
ATOM      2  C1J 812 d   1      11.044  -0.888  -1.643  0.00  0.00    -0.049 A 
ATOM      3  C1I 812 d   1      12.351  -0.767  -1.179  0.00  0.00    -0.055 A 
ATOM      4  C1H 812 d   1      12.615  -0.397   0.156  0.00  0.00     0.028 A 
ATOM      5  C1M 812 d   1      11.538  -0.139   1.006  0.00  0.00    -0.055 A 
ATOM      6  C1L 812 d   1      10.227  -0.251   0.553  0.00  0.00    -0.049 A 
ATOM      7  H12 812 d   1      10.853  -1.173  -2.671  0.00  0.00     0.087 H 
ATOM      8  H13 812 d   1      13.177  -0.960  -1.853  0.00  0.00     0.087 H 
ATOM      9  H14 812 d   1      11.726   0.153   2.033  0.00  0.00     0.087 H 
ATOM     10  H15 812 d   1       9.401  -0.039   1.222  0.00  0.00     0.087 H 
ENDROOT
BRANCH   1  11
ATOM     11  O1N 812 d   1       8.659  -0.785  -1.196  0.00  0.00    -0.349 OA
BRANCH  11  12
ATOM     12  C1O 812 d   1       8.312  -1.702  -2.224  0.00  0.00     0.052 C 
ATOM     13  H10 812 d   1       8.235  -1.138  -3.165  0.00  0.00     0.078 H 
ATOM     14  H11 812 d   1       9.124  -2.440  -2.304  0.00  0.00     0.078 H 
BRANCH  12  15
ATOM     15  C1P 812 d   1       6.999  -2.469  -2.029  0.00  0.00     0.122 C 
ATOM     16  N1T 812 d   1       5.793  -1.668  -1.929  0.00  0.00    -0.069 N 
ATOM     17  C1S 812 d   1       4.822  -2.295  -1.042  0.00  0.00     0.082 C 
ATOM     18  H3  812 d   1       6.031  -0.758  -1.567  0.00  0.00     0.277 HD
ATOM     19  H4  812 d   1       5.386  -1.569  -2.846  0.00  0.00     0.277 HD
ATOM     20  C1R 812 d   1       5.483  -3.561  -0.508  0.00  0.00    -0.041 C 
ATOM     21  H1  812 d   1       3.907  -2.549  -1.598  0.00  0.00     0.075 H 
ATOM     22  H2  812 d   1       4.571  -1.618  -0.212  0.00  0.00     0.075 H 
ATOM     23  C1Q 812 d   1       6.964  -3.340  -0.785  0.00  0.00    -0.035 C 
ATOM     24  H5  812 d   1       5.113  -4.450  -1.039  0.00  0.00     0.035 H 
ATOM     25  H6  812 d   1       5.298  -3.675   0.570  0.00  0.00     0.035 H 
ATOM     26  H7  812 d   1       7.471  -4.299  -0.969  0.00  0.00     0.036 H 
ATOM     27  H8  812 d   1       7.444  -2.827   0.061  0.00  0.00     0.036 H 
ATOM     28  H9  812 d   1       6.898  -3.121  -2.909  0.00  0.00     0.087 H 
ENDBRANCH  12  15
ENDBRANCH  11  12
ENDBRANCH   1  11
BRANCH   4  29
ATOM     29  N1  812 d   1      13.910  -0.282   0.585  0.00  0.00    -0.386 N 
ATOM     30  H16 812 d   1      14.662  -0.582  -0.051  0.00  0.00     0.160 HD
BRANCH  29  31
ATOM     31  C1G 812 d   1      14.282   0.242   1.895  0.00  0.00     0.016 C 
ATOM     32  H17 812 d   1      13.407   0.741   2.337  0.00  0.00     0.071 H 
ATOM     33  H18 812 d   1      15.095   0.972   1.766  0.00  0.00     0.071 H 
BRANCH  31  34
ATOM     34  C1C 812 d   1      14.758  -0.863   2.854  0.00  0.00    -0.041 A 
ATOM     35  C1D 812 d   1      15.147  -0.544   4.159  0.00  0.00    -0.075 A 
ATOM     36  C1E 812 d   1      15.579  -1.528   5.039  0.00  0.00    -0.082 A 
ATOM     37  H19 812 d   1      15.111   0.488   4.489  0.00  0.00     0.084 H 
ATOM     38  C1F 812 d   1      15.636  -2.840   4.619  0.00  0.00    -0.083 A 
ATOM     39  H20 812 d   1      15.870  -1.266   6.050  0.00  0.00     0.083 H 
ATOM     40  C1A 812 d   1      15.254  -3.177   3.325  0.00  0.00    -0.082 A 
ATOM     41  H21 812 d   1      15.979  -3.611   5.299  0.00  0.00     0.083 H 
ATOM     42  C1B 812 d   1      14.824  -2.201   2.439  0.00  0.00    -0.075 A 
ATOM     43  H22 812 d   1      15.293  -4.212   3.006  0.00  0.00     0.083 H 
ATOM     44  H23 812 d   1      14.540  -2.471   1.429  0.00  0.00     0.084 H 
ENDBRANCH  31  34
ENDBRANCH  29  31
ENDBRANCH   4  29
TORSDOF 6
