REMARK  4 active torsions:
REMARK  status: ('A' for Active; 'I' for Inactive)
REMARK    1  A    between atoms: N13_5  and  C12_6 
REMARK    2  A    between atoms: C12_6  and  C11_7 
REMARK    3  A    between atoms: C11_7  and  O10_8 
REMARK    4  A    between atoms: O10_8  and  C3_9 
ROOT
ATOM      1  O10 00G d   1     -28.585  -0.266  -0.636  0.00  0.00    -0.350 OA
ENDROOT
BRANCH   1   2
ATOM      2  C11 00G d   1     -28.844  -1.333  -1.564  0.00  0.00     0.041 C 
ATOM      3  H7  00G d   1     -28.094  -1.311  -2.368  0.00  0.00     0.077 H 
ATOM      4  H8  00G d   1     -28.790  -2.298  -1.039  0.00  0.00     0.077 H 
BRANCH   2   5
ATOM      5  C12 00G d   1     -30.244  -1.155  -2.165  0.00  0.00     0.019 C 
ATOM      6  H5  00G d   1     -30.511  -0.090  -2.103  0.00  0.00     0.068 H 
ATOM      7  H6  00G d   1     -30.206  -1.462  -3.220  0.00  0.00     0.068 H 
BRANCH   5   8
ATOM      8  N13 00G d   1     -31.295  -1.929  -1.502  0.00  0.00    -0.364 N 
ATOM      9  C17 00G d   1     -31.055  -2.913  -0.453  0.00  0.00    -0.021 A 
ATOM     10  C16 00G d   1     -32.466  -3.369  -0.069  0.00  0.00    -0.067 A 
ATOM     11  H1  00G d   1     -30.102  -3.244  -0.042  0.00  0.00     0.111 H 
ATOM     12  C15 00G d   1     -33.464  -2.703  -1.007  0.00  0.00    -0.067 A 
ATOM     13  H2  00G d   1     -32.714  -4.055   0.740  0.00  0.00     0.085 H 
ATOM     14  C14 00G d   1     -32.680  -1.759  -1.920  0.00  0.00    -0.021 A 
ATOM     15  H3  00G d   1     -34.540  -2.869  -1.024  0.00  0.00     0.085 H 
ATOM     16  H4  00G d   1     -33.068  -1.109  -2.703  0.00  0.00     0.111 H 
ENDBRANCH   5   8
ENDBRANCH   2   5
ENDBRANCH   1   2
BRANCH   1  17
ATOM     17  C3  00G d   1     -27.537  -0.181   0.271  0.00  0.00     0.069 A 
ATOM     18  C2  00G d   1     -27.672   0.805   1.241  0.00  0.00    -0.049 A 
ATOM     19  C1  00G d   1     -26.681   0.988   2.201  0.00  0.00    -0.054 A 
ATOM     20  H9  00G d   1     -28.554   1.435   1.250  0.00  0.00     0.087 H 
ATOM     21  C6  00G d   1     -25.561   0.191   2.227  0.00  0.00     0.042 A 
ATOM     22  H14 00G d   1     -26.794   1.772   2.941  0.00  0.00     0.087 H 
ATOM     23  C5  00G d   1     -25.413  -0.802   1.272  0.00  0.00    -0.005 A 
ATOM     24  N7  00G d   1     -24.483   0.138   3.034  0.00  0.00    -0.365 N 
ATOM     25  C4  00G d   1     -26.405  -0.995   0.279  0.00  0.00    -0.039 A 
ATOM     26  C9  00G d   1     -24.184  -1.498   1.489  0.00  0.00    -0.056 A 
ATOM     27  H10 00G d   1     -26.285  -1.770  -0.469  0.00  0.00     0.089 H 
ATOM     28  C8  00G d   1     -23.647  -0.875   2.621  0.00  0.00    -0.022 A 
ATOM     29  H11 00G d   1     -23.764  -2.319   0.910  0.00  0.00     0.086 H 
ATOM     30  H12 00G d   1     -22.710  -1.150   3.103  0.00  0.00     0.111 H 
ATOM     31  H13 00G d   1     -24.311   0.760   3.837  0.00  0.00     0.165 HD
ENDBRANCH   1  17
TORSDOF 4
