REMARK  5 active torsions:
REMARK  status: ('A' for Active; 'I' for Inactive)
REMARK    1  A    between atoms: C19_2  and  C16_4 
REMARK    2  A    between atoms: N13_9  and  C12_10 
REMARK    3  A    between atoms: C12_10  and  C11_11 
REMARK    4  A    between atoms: C11_11  and  O10_12 
REMARK    5  A    between atoms: O10_12  and  C3_13 
ROOT
ATOM      1  C12 58Z d   1     -32.393  -2.050  -1.596  0.00  0.00     0.103 C 
ATOM      2  H11 58Z d   1     -32.661  -0.984  -1.630  0.00  0.00     0.079 H 
ATOM      3  H12 58Z d   1     -32.596  -2.510  -2.574  0.00  0.00     0.079 H 
ENDROOT
BRANCH   1   4
ATOM      4  N13 58Z d   1     -33.189  -2.723  -0.562  0.00  0.00    -0.069 N 
ATOM      5  C14 58Z d   1     -32.609  -3.681   0.370  0.00  0.00     0.084 C 
ATOM      6  C15 58Z d   1     -33.503  -4.930   0.455  0.00  0.00    -0.030 C 
ATOM      7  H4  58Z d   1     -31.608  -3.971   0.019  0.00  0.00     0.076 H 
ATOM      8  H5  58Z d   1     -32.529  -3.220   1.366  0.00  0.00     0.076 H 
ATOM      9  C16 58Z d   1     -34.963  -4.644   0.798  0.00  0.00     0.034 C 
ATOM     10  H2  58Z d   1     -33.473  -5.440  -0.519  0.00  0.00     0.036 H 
ATOM     11  H3  58Z d   1     -33.092  -5.594   1.230  0.00  0.00     0.036 H 
ATOM     12  C17 58Z d   1     -35.429  -3.644  -0.255  0.00  0.00    -0.030 C 
ATOM     13  H1  58Z d   1     -35.532  -5.577   0.672  0.00  0.00     0.056 H 
ATOM     14  C18 58Z d   1     -34.597  -2.380  -0.446  0.00  0.00     0.084 C 
ATOM     15  H6  58Z d   1     -36.447  -3.330   0.018  0.00  0.00     0.036 H 
ATOM     16  H7  58Z d   1     -35.454  -4.170  -1.220  0.00  0.00     0.036 H 
ATOM     17  H8  58Z d   1     -34.740  -1.716   0.419  0.00  0.00     0.076 H 
ATOM     18  H9  58Z d   1     -34.923  -1.865  -1.362  0.00  0.00     0.076 H 
ATOM     19  H10 58Z d   1     -33.404  -3.471  -1.203  0.00  0.00     0.280 HD
BRANCH   9  20
ATOM     20  C19 58Z d   1     -35.223  -4.167   2.218  0.00  0.00     0.177 C 
ATOM     21  O21 58Z d   1     -36.369  -3.759   2.538  0.00  0.00    -0.648 OA
ATOM     22  O20 58Z d   1     -34.297  -4.195   3.058  0.00  0.00    -0.648 OA
ENDBRANCH   9  20
ENDBRANCH   1   4
BRANCH   1  23
ATOM     23  C11 58Z d   1     -30.903  -2.194  -1.262  0.00  0.00     0.049 C 
ATOM     24  H13 58Z d   1     -30.537  -3.122  -1.725  0.00  0.00     0.077 H 
ATOM     25  H14 58Z d   1     -30.803  -2.265  -0.169  0.00  0.00     0.077 H 
BRANCH  23  26
ATOM     26  O10 58Z d   1     -30.073  -1.110  -1.717  0.00  0.00    -0.349 OA
BRANCH  26  27
ATOM     27  C3  58Z d   1     -29.102  -0.667  -0.835  0.00  0.00     0.069 A 
ATOM     28  C2  58Z d   1     -29.411   0.342   0.084  0.00  0.00    -0.049 A 
ATOM     29  C1  58Z d   1     -28.462   0.797   1.002  0.00  0.00    -0.054 A 
ATOM     30  H15 58Z d   1     -30.404   0.778   0.083  0.00  0.00     0.087 H 
ATOM     31  C6  58Z d   1     -27.186   0.233   1.014  0.00  0.00     0.042 A 
ATOM     32  H20 58Z d   1     -28.716   1.585   1.702  0.00  0.00     0.087 H 
ATOM     33  C5  58Z d   1     -26.865  -0.764   0.119  0.00  0.00    -0.005 A 
ATOM     34  N9  58Z d   1     -26.060   0.432   1.753  0.00  0.00    -0.365 N 
ATOM     35  C4  58Z d   1     -27.815  -1.223  -0.809  0.00  0.00    -0.039 A 
ATOM     36  C7  58Z d   1     -25.516  -1.200   0.311  0.00  0.00    -0.056 A 
ATOM     37  H16 58Z d   1     -27.552  -2.010  -1.507  0.00  0.00     0.089 H 
ATOM     38  C8  58Z d   1     -25.058  -0.407   1.350  0.00  0.00    -0.022 A 
ATOM     39  H17 58Z d   1     -24.976  -1.974  -0.232  0.00  0.00     0.086 H 
ATOM     40  H18 58Z d   1     -24.058  -0.446   1.778  0.00  0.00     0.111 H 
ATOM     41  H19 58Z d   1     -25.974   1.122   2.513  0.00  0.00     0.165 HD
ENDBRANCH  26  27
ENDBRANCH  23  26
ENDBRANCH   1  23
TORSDOF 5
