REMARK  6 active torsions:
REMARK  status: ('A' for Active; 'I' for Inactive)
REMARK    1  A    between atoms: C7_2  and  C9_3 
REMARK    2  A    between atoms: C7_2  and  C6_9 
REMARK    3  A    between atoms: C3_13  and  O15_15 
REMARK    4  A    between atoms: O15_15  and  C16_16 
REMARK    5  A    between atoms: C16_16  and  C17_17 
REMARK    6  A    between atoms: C17_17  and  N23_18 
ROOT
ATOM      1  C6  52D d   1     -26.177  -0.165   1.351  0.00  0.00     0.015 A 
ATOM      2  C1  52D d   1     -27.493   0.286   1.555  0.00  0.00    -0.067 A 
ATOM      3  C5  52D d   1     -25.822  -0.730   0.147  0.00  0.00    -0.067 A 
ATOM      4  C4  52D d   1     -26.789  -0.882  -0.828  0.00  0.00    -0.050 A 
ATOM      5  C3  52D d   1     -28.104  -0.472  -0.624  0.00  0.00     0.068 A 
ATOM      6  C2  52D d   1     -28.469   0.123   0.576  0.00  0.00    -0.050 A 
ATOM      7  H5  52D d   1     -27.752   0.769   2.490  0.00  0.00     0.085 H 
ATOM      8  H6  52D d   1     -24.802  -1.050  -0.033  0.00  0.00     0.085 H 
ATOM      9  H7  52D d   1     -26.517  -1.332  -1.776  0.00  0.00     0.087 H 
ATOM     10  H8  52D d   1     -29.488   0.452   0.746  0.00  0.00     0.087 H 
ENDROOT
BRANCH   5  11
ATOM     11  O15 52D d   1     -28.980  -0.673  -1.668  0.00  0.00    -0.350 OA
BRANCH  11  12
ATOM     12  C16 52D d   1     -30.387  -0.682  -1.504  0.00  0.00     0.049 C 
ATOM     13  H9  52D d   1     -30.791   0.284  -1.842  0.00  0.00     0.077 H 
ATOM     14  H10 52D d   1     -30.620  -0.825  -0.439  0.00  0.00     0.077 H 
BRANCH  12  15
ATOM     15  C17 52D d   1     -31.037  -1.789  -2.299  0.00  0.00     0.103 C 
ATOM     16  H11 52D d   1     -30.324  -2.608  -2.472  0.00  0.00     0.079 H 
ATOM     17  H12 52D d   1     -31.398  -1.408  -3.265  0.00  0.00     0.079 H 
BRANCH  15  18
ATOM     18  N23 52D d   1     -32.162  -2.252  -1.477  0.00  0.00    -0.069 N 
ATOM     19  C19 52D d   1     -33.527  -1.883  -1.795  0.00  0.00     0.084 C 
ATOM     20  C20 52D d   1     -34.342  -2.907  -0.991  0.00  0.00    -0.041 C 
ATOM     21  H14 52D d   1     -33.724  -1.976  -2.873  0.00  0.00     0.076 H 
ATOM     22  H15 52D d   1     -33.747  -0.856  -1.470  0.00  0.00     0.076 H 
ATOM     23  C21 52D d   1     -33.394  -3.717  -0.124  0.00  0.00    -0.041 C 
ATOM     24  H20 52D d   1     -34.876  -3.577  -1.680  0.00  0.00     0.035 H 
ATOM     25  H21 52D d   1     -35.069  -2.382  -0.353  0.00  0.00     0.035 H 
ATOM     26  C22 52D d   1     -31.996  -3.143  -0.339  0.00  0.00     0.084 C 
ATOM     27  H18 52D d   1     -33.681  -3.629   0.934  0.00  0.00     0.035 H 
ATOM     28  H19 52D d   1     -33.419  -4.775  -0.423  0.00  0.00     0.035 H 
ATOM     29  H16 52D d   1     -31.659  -2.587   0.549  0.00  0.00     0.076 H 
ATOM     30  H17 52D d   1     -31.275  -3.942  -0.568  0.00  0.00     0.076 H 
ATOM     31  H13 52D d   1     -32.057  -1.445  -0.882  0.00  0.00     0.280 HD
ENDBRANCH  15  18
ENDBRANCH  12  15
ENDBRANCH  11  12
ENDBRANCH   5  11
BRANCH   1  32
ATOM     32  C7  52D d   1     -25.117   0.030   2.405  0.00  0.00     0.192 C 
ATOM     33  O8  52D d   1     -24.892   1.199   2.649  0.00  0.00    -0.287 OA
BRANCH  32  34
ATOM     34  C9  52D d   1     -24.344  -1.022   3.190  0.00  0.00     0.018 A 
ATOM     35  C14 52D d   1     -23.979  -2.255   2.665  0.00  0.00    -0.052 A 
ATOM     36  C13 52D d   1     -23.292  -3.147   3.492  0.00  0.00     0.003 A 
ATOM     37  H1  52D d   1     -24.221  -2.518   1.641  0.00  0.00     0.087 H 
ATOM     38  N12 52D d   1     -22.957  -2.833   4.747  0.00  0.00    -0.273 NA
ATOM     39  H2  52D d   1     -23.023  -4.123   3.104  0.00  0.00     0.114 H 
ATOM     40  C11 52D d   1     -23.281  -1.661   5.276  0.00  0.00     0.003 A 
ATOM     41  C10 52D d   1     -23.965  -0.744   4.506  0.00  0.00    -0.052 A 
ATOM     42  H3  52D d   1     -23.012  -1.427   6.300  0.00  0.00     0.114 H 
ATOM     43  H4  52D d   1     -24.216   0.220   4.934  0.00  0.00     0.087 H 
ENDBRANCH  32  34
ENDBRANCH   1  32
TORSDOF 6
