REMARK  7 active torsions:
REMARK  status: ('A' for Active; 'I' for Inactive)
REMARK    1  A    between atoms: C3_3  and  O15_15 
REMARK    2  A    between atoms: C6_6  and  C7_7 
REMARK    3  A    between atoms: C7_7  and  O8_8 
REMARK    4  A    between atoms: C7_7  and  C9_9 
REMARK    5  A    between atoms: O15_15  and  C16_16 
REMARK    6  A    between atoms: C16_16  and  C17_17 
REMARK    7  A    between atoms: C17_17  and  N23_18 
ROOT
ATOM      1  C1  80A d   1     -27.111  -0.315  -1.511  0.00  0.00    -0.071 A 
ATOM      2  C2  80A d   1     -28.171  -0.147  -0.617  0.00  0.00    -0.050 A 
ATOM      3  C3  80A d   1     -27.901   0.535   0.560  0.00  0.00     0.068 A 
ATOM      4  C4  80A d   1     -26.612   1.017   0.804  0.00  0.00    -0.050 A 
ATOM      5  C5  80A d   1     -25.568   0.857  -0.096  0.00  0.00    -0.071 A 
ATOM      6  C6  80A d   1     -25.824   0.204  -1.273  0.00  0.00    -0.025 A 
ATOM      7  H1  80A d   1     -27.287  -0.868  -2.426  0.00  0.00     0.084 H 
ATOM      8  H2  80A d   1     -29.161  -0.533  -0.834  0.00  0.00     0.087 H 
ATOM      9  H3  80A d   1     -26.420   1.538   1.735  0.00  0.00     0.087 H 
ATOM     10  H4  80A d   1     -24.578   1.238   0.126  0.00  0.00     0.084 H 
ENDROOT
BRANCH   3  11
ATOM     11  O15 80A d   1     -28.836   0.754   1.535  0.00  0.00    -0.350 OA
BRANCH  11  12
ATOM     12  C16 80A d   1     -30.187   0.914   1.206  0.00  0.00     0.049 C 
ATOM     13  H11 80A d   1     -30.677  -0.071   1.219  0.00  0.00     0.077 H 
ATOM     14  H12 80A d   1     -30.260   1.346   0.197  0.00  0.00     0.077 H 
BRANCH  12  15
ATOM     15  C17 80A d   1     -30.896   1.831   2.188  0.00  0.00     0.103 C 
ATOM     16  H13 80A d   1     -30.237   2.651   2.510  0.00  0.00     0.079 H 
ATOM     17  H14 80A d   1     -31.244   1.273   3.070  0.00  0.00     0.079 H 
BRANCH  15  18
ATOM     18  N23 80A d   1     -32.024   2.338   1.407  0.00  0.00    -0.069 N 
ATOM     19  C19 80A d   1     -33.371   1.934   1.727  0.00  0.00     0.084 C 
ATOM     20  C20 80A d   1     -34.222   2.799   0.778  0.00  0.00    -0.041 C 
ATOM     21  H16 80A d   1     -33.609   2.148   2.779  0.00  0.00     0.076 H 
ATOM     22  H17 80A d   1     -33.521   0.863   1.528  0.00  0.00     0.076 H 
ATOM     23  C21 80A d   1     -33.324   3.776   0.055  0.00  0.00    -0.041 C 
ATOM     24  H18 80A d   1     -34.974   3.352   1.360  0.00  0.00     0.035 H 
ATOM     25  H19 80A d   1     -34.727   2.153   0.045  0.00  0.00     0.035 H 
ATOM     26  C22 80A d   1     -31.898   3.260   0.281  0.00  0.00     0.084 C 
ATOM     27  H20 80A d   1     -33.439   4.787   0.473  0.00  0.00     0.035 H 
ATOM     28  H21 80A d   1     -33.561   3.795  -1.019  0.00  0.00     0.035 H 
ATOM     29  H22 80A d   1     -31.527   2.736  -0.612  0.00  0.00     0.076 H 
ATOM     30  H23 80A d   1     -31.218   4.088   0.529  0.00  0.00     0.076 H 
ATOM     31  H15 80A d   1     -31.921   1.556   0.780  0.00  0.00     0.280 HD
ENDBRANCH  15  18
ENDBRANCH  12  15
ENDBRANCH  11  12
ENDBRANCH   3  11
BRANCH   6  32
ATOM     32  C7  80A d   1     -24.699  -0.021  -2.234  0.00  0.00     0.086 C 
ATOM     33  H5  80A d   1     -23.849  -0.365  -1.627  0.00  0.00     0.098 H 
BRANCH  32  34
ATOM     34  O8  80A d   1     -25.141  -1.117  -3.062  0.00  0.00    -0.386 OA
ATOM     35  H6  80A d   1     -24.470  -1.318  -3.704  0.00  0.00     0.210 HD
ENDBRANCH  32  34
BRANCH  32  36
ATOM     36  C9  80A d   1     -24.139   1.083  -3.092  0.00  0.00    -0.022 A 
ATOM     37  C14 80A d   1     -23.785   0.812  -4.414  0.00  0.00    -0.057 A 
ATOM     38  C13 80A d   1     -23.253   1.770  -5.240  0.00  0.00     0.002 A 
ATOM     39  H7  80A d   1     -23.935  -0.189  -4.802  0.00  0.00     0.086 H 
ATOM     40  N12 80A d   1     -23.039   2.981  -4.741  0.00  0.00    -0.273 NA
ATOM     41  H8  80A d   1     -23.014   1.544  -6.273  0.00  0.00     0.114 H 
ATOM     42  C11 80A d   1     -23.337   3.293  -3.472  0.00  0.00     0.002 A 
ATOM     43  C10 80A d   1     -23.882   2.353  -2.604  0.00  0.00    -0.057 A 
ATOM     44  H9  80A d   1     -23.149   4.299  -3.115  0.00  0.00     0.114 H 
ATOM     45  H10 80A d   1     -24.100   2.608  -1.573  0.00  0.00     0.086 H 
ENDBRANCH  32  36
ENDBRANCH   6  32
TORSDOF 7
