REMARK  6 active torsions:
REMARK  status: ('A' for Active; 'I' for Inactive)
REMARK    1  A    between atoms: C7_2  and  C9_3 
REMARK    2  A    between atoms: C7_2  and  C6_14 
REMARK    3  A    between atoms: C12_6  and  C15_7 
REMARK    4  A    between atoms: C3_17  and  O20_20 
REMARK    5  A    between atoms: O20_20  and  C21_21 
REMARK    6  A    between atoms: C21_21  and  C22_22 
ROOT
ATOM      1  C6  798 d   1     -26.703  -0.040   0.458  0.00  0.00     0.015 A 
ATOM      2  C5  798 d   1     -26.818  -0.492  -0.857  0.00  0.00    -0.067 A 
ATOM      3  C4  798 d   1     -28.093  -0.834  -1.370  0.00  0.00    -0.050 A 
ATOM      4  C3  798 d   1     -29.182  -0.709  -0.518  0.00  0.00     0.068 A 
ATOM      5  C2  798 d   1     -29.034  -0.240   0.777  0.00  0.00    -0.050 A 
ATOM      6  C1  798 d   1     -27.790   0.090   1.292  0.00  0.00    -0.067 A 
ATOM      7  H8  798 d   1     -25.937  -0.581  -1.482  0.00  0.00     0.085 H 
ATOM      8  H9  798 d   1     -28.214  -1.181  -2.390  0.00  0.00     0.087 H 
ATOM      9  H10 798 d   1     -29.912  -0.128   1.403  0.00  0.00     0.087 H 
ATOM     10  H11 798 d   1     -27.678   0.437   2.313  0.00  0.00     0.085 H 
ENDROOT
BRANCH   1  11
ATOM     11  C7  798 d   1     -25.366   0.320   0.982  0.00  0.00     0.192 C 
ATOM     12  O8  798 d   1     -24.815   1.258   0.469  0.00  0.00    -0.287 OA
BRANCH  11  13
ATOM     13  C9  798 d   1     -24.752  -0.475   2.100  0.00  0.00     0.015 A 
ATOM     14  C10 798 d   1     -24.428   0.124   3.311  0.00  0.00    -0.068 A 
ATOM     15  C11 798 d   1     -23.868  -0.644   4.340  0.00  0.00    -0.071 A 
ATOM     16  H1  798 d   1     -24.608   1.183   3.459  0.00  0.00     0.085 H 
ATOM     17  C12 798 d   1     -23.624  -2.012   4.168  0.00  0.00    -0.025 A 
ATOM     18  H2  798 d   1     -23.620  -0.172   5.284  0.00  0.00     0.084 H 
ATOM     19  C13 798 d   1     -23.962  -2.595   2.956  0.00  0.00    -0.071 A 
ATOM     20  C14 798 d   1     -24.510  -1.830   1.921  0.00  0.00    -0.068 A 
ATOM     21  H6  798 d   1     -23.799  -3.657   2.809  0.00  0.00     0.084 H 
ATOM     22  H7  798 d   1     -24.747  -2.299   0.973  0.00  0.00     0.085 H 
BRANCH  17  23
ATOM     23  C15 798 d   1     -23.021  -2.845   5.272  0.00  0.00    -0.019 A 
ATOM     24  C16 798 d   1     -23.250  -2.465   6.600  0.00  0.00    -0.034 A 
ATOM     25  S17 798 d   1     -22.425  -3.631   7.644  0.00  0.00    -0.113 SA
ATOM     26  H3  798 d   1     -23.832  -1.606   6.931  0.00  0.00     0.096 H 
ATOM     27  C18 798 d   1     -21.705  -4.627   6.322  0.00  0.00    -0.044 A 
ATOM     28  C19 798 d   1     -22.167  -3.994   5.125  0.00  0.00    -0.066 A 
ATOM     29  H4  798 d   1     -21.067  -5.505   6.414  0.00  0.00     0.095 H 
ATOM     30  H5  798 d   1     -21.884  -4.367   4.142  0.00  0.00     0.085 H 
ENDBRANCH  17  23
ENDBRANCH  11  13
ENDBRANCH   1  11
BRANCH   4  31
ATOM     31  O20 798 d   1     -30.461  -1.041  -0.915  0.00  0.00    -0.349 OA
BRANCH  31  32
ATOM     32  C21 798 d   1     -30.653  -1.884  -2.030  0.00  0.00     0.052 C 
ATOM     33  H12 798 d   1     -29.861  -2.647  -2.063  0.00  0.00     0.078 H 
ATOM     34  H13 798 d   1     -30.630  -1.290  -2.956  0.00  0.00     0.078 H 
BRANCH  32  35
ATOM     35  C22 798 d   1     -32.001  -2.550  -1.881  0.00  0.00     0.122 C 
ATOM     36  N23 798 d   1     -33.119  -1.651  -1.653  0.00  0.00    -0.069 N 
ATOM     37  C24 798 d   1     -34.239  -2.476  -1.178  0.00  0.00     0.082 C 
ATOM     38  H15 798 d   1     -33.370  -1.186  -2.511  0.00  0.00     0.277 HD
ATOM     39  H16 798 d   1     -32.875  -0.964  -0.957  0.00  0.00     0.277 HD
ATOM     40  C25 798 d   1     -33.598  -3.671  -0.486  0.00  0.00    -0.041 C 
ATOM     41  H17 798 d   1     -34.858  -2.808  -2.024  0.00  0.00     0.075 H 
ATOM     42  H18 798 d   1     -34.861  -1.909  -0.469  0.00  0.00     0.075 H 
ATOM     43  C26 798 d   1     -32.088  -3.505  -0.694  0.00  0.00    -0.035 C 
ATOM     44  H19 798 d   1     -33.947  -4.610  -0.939  0.00  0.00     0.035 H 
ATOM     45  H20 798 d   1     -33.840  -3.669   0.587  0.00  0.00     0.035 H 
ATOM     46  H21 798 d   1     -31.613  -3.070   0.198  0.00  0.00     0.036 H 
ATOM     47  H22 798 d   1     -31.614  -4.470  -0.928  0.00  0.00     0.036 H 
ATOM     48  H14 798 d   1     -32.181  -3.111  -2.810  0.00  0.00     0.087 H 
ENDBRANCH  32  35
ENDBRANCH  31  32
ENDBRANCH   4  31
TORSDOF 6
