REMARK  6 active torsions:
REMARK  status: ('A' for Active; 'I' for Inactive)
REMARK    1  A    between atoms: C1_1  and  N8_13 
REMARK    2  A    between atoms: C6_5  and  C7_12 
REMARK       I    between atoms: N3_6  and  C20_8 
REMARK    3  A    between atoms: C20_8  and  C22_9 
REMARK    4  A    between atoms: C22_9  and  C23_10 
REMARK    5  A    between atoms: N8_13  and  C9_14 
REMARK    6  A    between atoms: N8_13  and  C10_15 
ROOT
ATOM      1  C1  MI1 d   1     -57.434   9.478   0.531  0.00  0.00     0.031 C 
ATOM      2  C2  MI1 d   1     -56.322   8.432   0.438  0.00  0.00     0.017 C 
ATOM      3  C4  MI1 d   1     -55.840   8.795   2.918  0.00  0.00    -0.002 C 
ATOM      4  C5  MI1 d   1     -56.856   9.957   3.018  0.00  0.00    -0.045 C 
ATOM      5  C6  MI1 d   1     -57.175  10.568   1.634  0.00  0.00    -0.035 C 
ATOM      6  N3  MI1 d   1     -56.152   7.900   1.788  0.00  0.00    -0.349 N 
ATOM      7  O21 MI1 d   1     -56.506   5.899   0.978  0.00  0.00    -0.272 OA
ATOM      8  C20 MI1 d   1     -56.265   6.617   1.940  0.00  0.00     0.232 C 
ATOM      9  H1  MI1 d   1     -58.375   8.960   0.769  0.00  0.00     0.075 H 
ATOM     10  H2  MI1 d   1     -55.388   8.898   0.091  0.00  0.00     0.067 H 
ATOM     11  H3  MI1 d   1     -56.611   7.628  -0.255  0.00  0.00     0.067 H 
ATOM     12  H4  MI1 d   1     -55.868   8.214   3.852  0.00  0.00     0.064 H 
ATOM     13  H5  MI1 d   1     -54.832   9.213   2.776  0.00  0.00     0.064 H 
ATOM     14  H6  MI1 d   1     -56.436  10.742   3.664  0.00  0.00     0.036 H 
ATOM     15  H7  MI1 d   1     -57.788   9.577   3.462  0.00  0.00     0.036 H 
ATOM     16  H8  MI1 d   1     -58.133  11.097   1.745  0.00  0.00     0.042 H 
ENDROOT
BRANCH   1  17
ATOM     17  N8  MI1 d   1     -57.570  10.159  -0.764  0.00  0.00    -0.363 N 
BRANCH  17  18
ATOM     18  C9  MI1 d   1     -56.441  10.259  -1.727  0.00  0.00    -0.017 C 
ATOM     19  H14 MI1 d   1     -56.770  10.807  -2.622  0.00  0.00     0.056 H 
ATOM     20  H15 MI1 d   1     -56.114   9.249  -2.015  0.00  0.00     0.056 H 
ATOM     21  H16 MI1 d   1     -55.604  10.795  -1.256  0.00  0.00     0.056 H 
ENDBRANCH  17  18
BRANCH  17  22
ATOM     22  C10 MI1 d   1     -58.802  10.687  -1.090  0.00  0.00     0.141 A 
ATOM     23  C15 MI1 d   1     -59.892  10.610  -0.215  0.00  0.00     0.057 A 
ATOM     24  C16 MI1 d   1     -60.111  10.040   1.099  0.00  0.00    -0.051 A 
ATOM     25  C14 MI1 d   1     -61.123  11.265  -0.671  0.00  0.00     0.142 A 
ATOM     26  C11 MI1 d   1     -61.456  10.350   1.332  0.00  0.00    -0.020 A 
ATOM     27  H17 MI1 d   1     -59.410   9.508   1.740  0.00  0.00     0.087 H 
ATOM     28  N12 MI1 d   1     -62.025  11.051   0.299  0.00  0.00    -0.350 N 
ATOM     29  H18 MI1 d   1     -61.993  10.065   2.236  0.00  0.00     0.111 H 
ATOM     30  H19 MI1 d   1     -63.005  11.368   0.272  0.00  0.00     0.166 HD
ATOM     31  N17 MI1 d   1     -61.161  11.862  -1.874  0.00  0.00    -0.223 NA
ATOM     32  C18 MI1 d   1     -60.095  11.903  -2.654  0.00  0.00     0.091 A 
ATOM     33  N19 MI1 d   1     -58.960  11.343  -2.277  0.00  0.00    -0.224 NA
ATOM     34  H20 MI1 d   1     -60.153  12.402  -3.615  0.00  0.00     0.146 H 
ENDBRANCH  17  22
ENDBRANCH   1  17
BRANCH   5  35
ATOM     35  C7  MI1 d   1     -56.149  11.645   1.284  0.00  0.00    -0.071 C 
ATOM     36  H11 MI1 d   1     -56.387  12.071   0.298  0.00  0.00     0.028 H 
ATOM     37  H12 MI1 d   1     -55.144  11.199   1.258  0.00  0.00     0.028 H 
ATOM     38  H13 MI1 d   1     -56.178  12.440   2.044  0.00  0.00     0.028 H 
ENDBRANCH   5  35
BRANCH   8  39
ATOM     39  C22 MI1 d   1     -56.083   6.111   3.300  0.00  0.00     0.088 C 
ATOM     40  H9  MI1 d   1     -56.577   6.824   3.976  0.00  0.00     0.069 H 
ATOM     41  H10 MI1 d   1     -55.001   6.107   3.498  0.00  0.00     0.069 H 
BRANCH  39  42
ATOM     42  C23 MI1 d   1     -56.517   4.959   3.598  0.00  0.00     0.068 C 
ATOM     43  N24 MI1 d   1     -56.677   3.826   3.813  0.00  0.00    -0.197 NA
ENDBRANCH  39  42
ENDBRANCH   8  39
TORSDOF 6
