REMARK  12 active torsions:
REMARK  status: ('A' for Active; 'I' for Inactive)
REMARK    1  A    between atoms: N3_25  and  C1_1 
REMARK    2  A    between atoms: C5_5  and  C9_9 
REMARK    3  A    between atoms: C6_6  and  N2_18 
REMARK    4  A    between atoms: C9_9  and  O1_20 
REMARK    5  A    between atoms: C10_10  and  C11_11 
REMARK    6  A    between atoms: C10_10  and  C12_12 
REMARK    7  A    between atoms: N2_18  and  C10_10 
REMARK    8  A    between atoms: C12_12  and  C13_13 
REMARK    9  A    between atoms: C12_12  and  C14_14 
REMARK   10  A    between atoms: C12_12  and  S1_27 
REMARK   11  A    between atoms: C15_15  and  O6_19 
REMARK       I    between atoms: C15_15  and  N3_25 
REMARK   12  A    between atoms: O6_19  and  C16_16 
ROOT
ATOM      1  C1  MXS d   1     107.183  32.759  27.171  0.00  0.00     0.066 A 
ATOM      2  C2  MXS d   1     106.437  31.462  27.196  0.00  0.00    -0.029 A 
ATOM      3  C3  MXS d   1     105.191  31.388  28.008  0.00  0.00     0.038 A 
ATOM      4  C4  MXS d   1     104.276  30.296  28.232  0.00  0.00    -0.049 A 
ATOM      5  C5  MXS d   1     103.297  30.716  29.061  0.00  0.00    -0.005 A 
ATOM      6  C6  MXS d   1     103.516  32.215  29.463  0.00  0.00     0.197 A 
ATOM      7  C7  MXS d   1     105.463  33.831  28.715  0.00  0.00    -0.015 A 
ATOM      8  C8  MXS d   1     106.695  33.955  27.928  0.00  0.00    -0.040 A 
ATOM      9  N1  MXS d   1     104.792  32.542  28.703  0.00  0.00    -0.325 N 
ATOM     10  H   MXS d   1     106.795  30.598  26.637  0.00  0.00     0.090 H 
ATOM     11  H   MXS d   1     104.361  29.297  27.803  0.00  0.00     0.087 H 
ATOM     12  H   MXS d   1     102.954  32.895  30.103  0.00  0.00     0.126 H 
ATOM     13  H   MXS d   1     105.067  34.671  29.285  0.00  0.00     0.111 H 
ATOM     14  H   MXS d   1     107.243  34.897  27.895  0.00  0.00     0.089 H 
ENDROOT
BRANCH   6  15
ATOM     15  N2  MXS d   1     102.729  33.020  30.303  0.00  0.00    -0.034 N 
ATOM     16  H   MXS d   1     101.892  32.437  30.293  0.00  0.00     0.281 HD
ATOM     17  H   MXS d   1     103.035  33.922  29.939  0.00  0.00     0.281 HD
BRANCH  15  18
ATOM     18  C10 MXS d   1     102.669  33.411  31.752  0.00  0.00     0.206 C 
ATOM     19  H   MXS d   1     103.184  32.702  32.400  0.00  0.00     0.104 H 
BRANCH  18  20
ATOM     20  C11 MXS d   1     103.400  34.767  31.938  0.00  0.00     0.206 C 
ATOM     21  O2  MXS d   1     103.926  35.393  31.039  0.00  0.00    -0.646 OA
ATOM     22  O3  MXS d   1     103.484  35.407  33.301  0.00  0.00    -0.646 OA
ENDBRANCH  18  20
BRANCH  18  23
ATOM     23  C12 MXS d   1     101.138  33.417  32.200  0.00  0.00     0.093 C 
BRANCH  23  24
ATOM     24  C13 MXS d   1     100.403  34.755  31.807  0.00  0.00    -0.054 C 
ATOM     25  H   MXS d   1     100.424  34.875  30.724  0.00  0.00     0.029 H 
ATOM     26  H   MXS d   1      99.369  34.714  32.149  0.00  0.00     0.029 H 
ATOM     27  H   MXS d   1     100.909  35.598  32.278  0.00  0.00     0.029 H 
ENDBRANCH  23  24
BRANCH  23  28
ATOM     28  C14 MXS d   1     101.061  33.214  33.754  0.00  0.00    -0.054 C 
ATOM     29  H   MXS d   1     100.018  33.231  34.070  0.00  0.00     0.029 H 
ATOM     30  H   MXS d   1     101.506  32.254  34.016  0.00  0.00     0.029 H 
ATOM     31  H   MXS d   1     101.606  34.016  34.251  0.00  0.00     0.029 H 
ENDBRANCH  23  28
BRANCH  23  32
ATOM     32  S1  MXS d   1     100.217  32.061  31.364  0.00  0.00     0.148 S 
ATOM     33  O4  MXS d   1      98.902  31.912  32.012  0.00  0.00    -0.230 OA
ATOM     34  O5  MXS d   1     101.086  30.621  31.477  0.00  0.00    -0.230 OA
ATOM     35  H   MXS d   1     100.052  32.353  30.077  0.00  0.00     0.172 HD
ENDBRANCH  23  32
ENDBRANCH  18  23
ENDBRANCH  15  18
ENDBRANCH   6  15
BRANCH   5  36
ATOM     36  C9  MXS d   1     102.029  29.908  29.636  0.00  0.00     0.041 C 
ATOM     37  H   MXS d   1     101.578  30.314  30.541  0.00  0.00     0.081 H 
ATOM     38  H   MXS d   1     102.236  28.909  30.019  0.00  0.00     0.081 H 
BRANCH  36  39
ATOM     39  O1  MXS d   1     101.208  29.970  28.435  0.00  0.00    -0.397 OA
ATOM     40  H   MXS d   1     101.040  30.888  28.211  0.00  0.00     0.209 HD
ENDBRANCH  36  39
ENDBRANCH   5  36
BRANCH   1  41
ATOM     41  N3  MXS d   1     108.348  32.811  26.433  0.00  0.00    -0.188 NA
ATOM     42  C15 MXS d   1     109.188  32.092  25.640  0.00  0.00     0.386 C 
ATOM     43  O7  MXS d   1     110.408  32.240  25.739  0.00  0.00    -0.236 OA
BRANCH  42  44
ATOM     44  O6  MXS d   1     108.606  31.176  24.732  0.00  0.00    -0.307 OA
BRANCH  44  45
ATOM     45  C16 MXS d   1     109.262  30.003  24.306  0.00  0.00     0.015 C 
ATOM     46  H   MXS d   1     110.194  30.270  23.808  0.00  0.00     0.067 H 
ATOM     47  H   MXS d   1     109.478  29.375  25.170  0.00  0.00     0.067 H 
ATOM     48  H   MXS d   1     108.620  29.461  23.612  0.00  0.00     0.067 H 
ENDBRANCH  44  45
ENDBRANCH  42  44
ENDBRANCH   1  41
TORSDOF 12
