REMARK  5 active torsions:
REMARK  status: ('A' for Active; 'I' for Inactive)
REMARK    1  A    between atoms: C07_7  and  C06_6 
REMARK       I    between atoms: N09_9  and  C07_7 
REMARK    2  A    between atoms: C10_10  and  N09_9 
REMARK    3  A    between atoms: C16_15  and  N17_16 
REMARK    4  A    between atoms: N22_21  and  C23_22 
REMARK    5  A    between atoms: C23_22  and  C24_23 
ROOT
ATOM      1  N17 JK3 d   1     -11.707 -32.743  13.502  0.00  0.00    -0.374 N 
ATOM      2  C18 JK3 d   1     -12.270 -34.014  13.975  0.00  0.00     0.018 C 
ATOM      3  C19 JK3 d   1     -13.589 -33.886  14.582  0.00  0.00     0.098 C 
ATOM      4  C20 JK3 d   1     -12.604 -31.579  13.090  0.00  0.00     0.018 C 
ATOM      5  C21 JK3 d   1     -14.185 -31.888  13.129  0.00  0.00     0.098 C 
ATOM      6  N22 JK3 d   1     -14.549 -33.301  13.638  0.00  0.00    -0.065 N 
ATOM      7  H7  JK3 d   1     -11.585 -34.440  14.723  0.00  0.00     0.066 H 
ATOM      8  H8  JK3 d   1     -12.348 -34.699  13.118  0.00  0.00     0.066 H 
ATOM      9  H9  JK3 d   1     -13.516 -33.238  15.468  0.00  0.00     0.078 H 
ATOM     10  H10 JK3 d   1     -13.944 -34.882  14.884  0.00  0.00     0.078 H 
ATOM     11  H11 JK3 d   1     -12.338 -31.291  12.062  0.00  0.00     0.066 H 
ATOM     12  H12 JK3 d   1     -12.404 -30.738  13.770  0.00  0.00     0.066 H 
ATOM     13  H13 JK3 d   1     -14.582 -31.777  12.109  0.00  0.00     0.078 H 
ATOM     14  H14 JK3 d   1     -14.663 -31.151  13.791  0.00  0.00     0.078 H 
ATOM     15  H15 JK3 d   1     -14.383 -33.858  12.815  0.00  0.00     0.280 HD
ENDROOT
BRANCH   1  16
ATOM     16  C16 JK3 d   1     -10.263 -32.637  13.420  0.00  0.00     0.079 A 
ATOM     17  C10 JK3 d   1      -9.555 -33.390  12.405  0.00  0.00     0.063 A 
ATOM     18  C11 JK3 d   1      -8.182 -33.349  12.327  0.00  0.00    -0.055 A 
ATOM     19  C12 JK3 d   1      -7.474 -32.571  13.254  0.00  0.00    -0.079 A 
ATOM     20  H4  JK3 d   1      -7.657 -33.909  11.562  0.00  0.00     0.087 H 
ATOM     21  C13 JK3 d   1      -8.167 -31.832  14.270  0.00  0.00    -0.060 A 
ATOM     22  H5  JK3 d   1      -6.392 -32.527  13.203  0.00  0.00     0.083 H 
ATOM     23  C14 JK3 d   1      -9.577 -31.894  14.325  0.00  0.00     0.062 A 
ATOM     24  H6  JK3 d   1      -7.615 -31.234  14.986  0.00  0.00     0.086 H 
ATOM     25 CL15 JK3 d   1     -10.514 -30.990  15.544  0.00  0.00    -0.082 Cl
BRANCH  17  26
ATOM     26  N09 JK3 d   1     -10.404 -34.151  11.533  0.00  0.00    -0.319 N 
ATOM     27  C07 JK3 d   1     -10.067 -34.997  10.411  0.00  0.00     0.280 C 
ATOM     28  O08 JK3 d   1      -8.972 -35.213  10.041  0.00  0.00    -0.265 OA
ATOM     29  H3  JK3 d   1     -11.382 -34.086  11.733  0.00  0.00     0.169 HD
BRANCH  27  30
ATOM     30  C06 JK3 d   1     -11.307 -35.569   9.760  0.00  0.00     0.144 A 
ATOM     31  C01 JK3 d   1     -11.465 -36.420   8.568  0.00  0.00    -0.042 A 
ATOM     32  C02 JK3 d   1     -12.842 -36.627   8.431  0.00  0.00    -0.040 A 
ATOM     33  H1  JK3 d   1     -10.675 -36.807   7.927  0.00  0.00     0.088 H 
ATOM     34  C03 JK3 d   1     -13.575 -35.952   9.470  0.00  0.00     0.122 A 
ATOM     35  H2  JK3 d   1     -13.300 -37.221   7.641  0.00  0.00     0.088 H 
ATOM     36  O05 JK3 d   1     -12.549 -35.307  10.273  0.00  0.00    -0.298 OA
ATOM     37 BR04 JK3 d   1     -15.521 -35.864   9.806  0.00  0.00    -0.023 Br
ENDBRANCH  27  30
ENDBRANCH  17  26
ENDBRANCH   1  16
BRANCH   6  38
ATOM     38  C23 JK3 d   1     -16.041 -33.588  13.891  0.00  0.00     0.098 C 
ATOM     39  H16 JK3 d   1     -16.565 -32.621  13.876  0.00  0.00     0.082 H 
ATOM     40  H17 JK3 d   1     -16.120 -34.033  14.894  0.00  0.00     0.082 H 
BRANCH  38  41
ATOM     41  C24 JK3 d   1     -16.783 -34.520  12.922  0.00  0.00    -0.087 C 
ATOM     42  C25 JK3 d   1     -17.285 -34.060  11.794  0.00  0.00    -0.123 C 
ATOM     43  H19 JK3 d   1     -17.809 -34.733  11.117  0.00  0.00     0.066 H 
ATOM     44  H20 JK3 d   1     -17.176 -33.007  11.539  0.00  0.00     0.066 H 
ATOM     45  H18 JK3 d   1     -16.896 -35.574  13.170  0.00  0.00     0.078 H 
ENDBRANCH  38  41
ENDBRANCH   6  38
TORSDOF 5
