REMARK  5 active torsions:
REMARK  status: ('A' for Active; 'I' for Inactive)
REMARK    1  A    between atoms: C_2  and  CA_4 
REMARK    2  A    between atoms: CA_4  and  N_5 
REMARK    3  A    between atoms: CA_4  and  CB_6 
REMARK    4  A    between atoms: CB_6  and  CAS_7 
REMARK    5  A    between atoms: CAS_7  and  CAN_9 
ROOT
ATOM      1  CAS MS8 d   1      -7.339  15.363  20.020  0.00  0.00     0.154 C 
ATOM      2  CAJ MS8 d   1      -7.664  15.337  21.521  0.00  0.00     0.000 C 
ATOM      3  OAL MS8 d   1      -8.086  14.275  19.498  0.00  0.00    -0.361 OA
ATOM      4  CAR MS8 d   1      -8.116  13.251  20.491  0.00  0.00     0.065 C 
ATOM      5  CAQ MS8 d   1      -8.384  14.025  21.777  0.00  0.00     0.066 C 
ATOM      6  CAH MS8 d   1      -9.110  12.145  20.129  0.00  0.00    -0.036 C 
ATOM      7  CAP MS8 d   1     -10.540  12.574  20.415  0.00  0.00    -0.043 C 
ATOM      8  CAG MS8 d   1     -10.639  13.167  21.820  0.00  0.00     0.020 C 
ATOM      9  OAK MS8 d   1      -9.784  14.309  21.966  0.00  0.00    -0.383 OA
ATOM     10  H   MS8 d   1      -8.285  16.187  21.803  0.00  0.00     0.042 H 
ATOM     11  H   MS8 d   1      -6.757  15.410  22.120  0.00  0.00     0.042 H 
ATOM     12  H   MS8 d   1      -7.196  12.676  20.593  0.00  0.00     0.087 H 
ATOM     13  H   MS8 d   1      -8.062  13.471  22.659  0.00  0.00     0.087 H 
ATOM     14  H   MS8 d   1      -8.884  11.265  20.731  0.00  0.00     0.036 H 
ATOM     15  H   MS8 d   1      -9.018  11.930  19.064  0.00  0.00     0.036 H 
ATOM     16  H   MS8 d   1     -11.195  11.705  20.346  0.00  0.00     0.036 H 
ATOM     17  H   MS8 d   1     -10.840  13.327  19.687  0.00  0.00     0.036 H 
ATOM     18  H   MS8 d   1     -10.330  12.408  22.539  0.00  0.00     0.074 H 
ATOM     19  H   MS8 d   1     -11.669  13.481  21.992  0.00  0.00     0.074 H 
ENDROOT
BRANCH   1  20
ATOM     20  CB  MS8 d   1      -5.845  15.152  19.766  0.00  0.00     0.010 C 
ATOM     21  H   MS8 d   1      -5.308  16.007  20.177  0.00  0.00     0.042 H 
ATOM     22  H   MS8 d   1      -5.551  14.214  20.236  0.00  0.00     0.042 H 
BRANCH  20  23
ATOM     23  CA  MS8 d   1      -5.516  15.058  18.271  0.00  0.00     0.185 C 
ATOM     24  H   MS8 d   1      -6.106  15.814  17.753  0.00  0.00     0.101 H 
BRANCH  23  25
ATOM     25  C   MS8 d   1      -4.051  15.295  18.096  0.00  0.00     0.204 C 
ATOM     26  O   MS8 d   1      -3.570  16.335  18.594  0.00  0.00    -0.646 OA
ATOM     27  OXT MS8 d   1      -3.375  14.455  17.454  0.00  0.00    -0.646 OA
ENDBRANCH  23  25
BRANCH  23  28
ATOM     28  N   MS8 d   1      -5.885  13.770  17.676  0.00  0.00    -0.065 N 
ATOM     29  H   MS8 d   1      -5.641  13.772  16.686  0.00  0.00     0.275 HD
ATOM     30  H   MS8 d   1      -5.380  13.021  18.150  0.00  0.00     0.275 HD
ATOM     31  H   MS8 d   1      -6.889  13.624  17.780  0.00  0.00     0.275 HD
ENDBRANCH  23  28
ENDBRANCH  20  23
ENDBRANCH   1  20
BRANCH   1  32
ATOM     32  CAN MS8 d   1      -7.796  16.674  19.412  0.00  0.00     0.209 C 
ATOM     33  OAC MS8 d   1      -7.056  17.676  19.519  0.00  0.00    -0.646 OA
ATOM     34  OAE MS8 d   1      -8.899  16.687  18.826  0.00  0.00    -0.646 OA
ENDBRANCH   1  32
TORSDOF 5
