REMARK  6 active torsions:
REMARK  status: ('A' for Active; 'I' for Inactive)
REMARK    1  A    between atoms: C2_2  and  S10_10 
REMARK    2  A    between atoms: C5_5  and  N14_14 
REMARK    3  A    between atoms: C7_7  and  C15_15 
REMARK    4  A    between atoms: S10_10  and  N13_13 
REMARK    5  A    between atoms: N14_14  and  C18_18 
REMARK    6  A    between atoms: C18_18  and  C19_19 
ROOT
ATOM      1  S1  ETS d   1       3.539   7.387  21.044  0.00  0.00    -0.064 SA
ATOM      2  C2  ETS d   1       3.366   7.079  19.306  0.00  0.00     0.121 A 
ATOM      3  C3  ETS d   1       2.123   7.523  18.974  0.00  0.00    -0.043 A 
ATOM      4  C4  ETS d   1       1.354   8.098  20.005  0.00  0.00     0.003 A 
ATOM      5  C5  ETS d   1      -0.023   8.753  19.802  0.00  0.00     0.130 C 
ATOM      6  C6  ETS d   1      -0.331   9.778  20.895  0.00  0.00    -0.018 C 
ATOM      7  C7  ETS d   1      -0.274   9.202  22.332  0.00  0.00     0.048 C 
ATOM      8  S8  ETS d   1       1.454   8.869  22.728  0.00  0.00     0.186 S 
ATOM      9  C9  ETS d   1       1.971   8.157  21.219  0.00  0.00     0.110 A 
ATOM     10  O16 ETS d   1       2.160  10.079  22.747  0.00  0.00    -0.222 OA
ATOM     11  O17 ETS d   1       1.648   7.869  23.709  0.00  0.00    -0.222 OA
ATOM     12  H1  ETS d   1       1.740   7.438  17.958  0.00  0.00     0.087 H 
ATOM     13  H2  ETS d   1      -0.030   9.264  18.828  0.00  0.00     0.092 H 
ATOM     14  H3  ETS d   1      -1.342  10.176  20.721  0.00  0.00     0.038 H 
ATOM     15  H4  ETS d   1       0.402  10.595  20.820  0.00  0.00     0.038 H 
ATOM     16  H5  ETS d   1      -0.873   8.281  22.383  0.00  0.00     0.064 H 
ENDROOT
BRANCH   5  17
ATOM     17  N14 ETS d   1      -1.062   7.706  19.807  0.00  0.00    -0.067 N 
ATOM     18  H8  ETS d   1      -1.926   8.111  20.131  0.00  0.00     0.277 HD
ATOM     19  H9  ETS d   1      -0.778   6.973  20.437  0.00  0.00     0.277 HD
BRANCH  17  20
ATOM     20  C18 ETS d   1      -1.284   7.127  18.488  0.00  0.00     0.079 C 
ATOM     21  H13 ETS d   1      -0.425   6.496  18.214  0.00  0.00     0.075 H 
ATOM     22  H14 ETS d   1      -1.398   7.932  17.747  0.00  0.00     0.075 H 
BRANCH  20  23
ATOM     23  C19 ETS d   1      -2.553   6.277  18.518  0.00  0.00    -0.053 C 
ATOM     24  H15 ETS d   1      -2.724   5.838  17.524  0.00  0.00     0.029 H 
ATOM     25  H16 ETS d   1      -3.411   6.908  18.793  0.00  0.00     0.029 H 
ATOM     26  H17 ETS d   1      -2.438   5.472  19.259  0.00  0.00     0.029 H 
ENDBRANCH  20  23
ENDBRANCH  17  20
ENDBRANCH   5  17
BRANCH   7  27
ATOM     27  C15 ETS d   1      -0.758  10.200  23.392  0.00  0.00    -0.060 C 
ATOM     28  H10 ETS d   1      -1.814  10.448  23.207  0.00  0.00     0.029 H 
ATOM     29  H11 ETS d   1      -0.151  11.116  23.337  0.00  0.00     0.029 H 
ATOM     30  H12 ETS d   1      -0.656   9.752  24.391  0.00  0.00     0.029 H 
ENDBRANCH   7  27
BRANCH   2  31
ATOM     31  S10 ETS d   1       4.752   6.426  18.505  0.00  0.00     0.263 S 
ATOM     32  O11 ETS d   1       5.431   5.662  19.507  0.00  0.00    -0.200 OA
ATOM     33  O12 ETS d   1       5.382   7.546  17.869  0.00  0.00    -0.200 OA
BRANCH  31  34
ATOM     34  N13 ETS d   1       4.137   5.495  17.291  0.00  0.00    -0.324 N 
ATOM     35  H6  ETS d   1       4.754   5.003  16.676  0.00  0.00     0.169 HD
ATOM     36  H7  ETS d   1       3.147   5.422  17.169  0.00  0.00     0.169 HD
ENDBRANCH  31  34
ENDBRANCH   2  31
TORSDOF 6
