REMARK  2 active torsions:
REMARK  status: ('A' for Active; 'I' for Inactive)
REMARK    1  A    between atoms: C3_3  and  O3_4 
REMARK    2  A    between atoms: C4_5  and  O4_6 
ROOT
ATOM      1  C1  CAQ d   1      25.341  79.641  61.460  0.00  0.00    -0.080 A 
ATOM      2  C2  CAQ d   1      26.240  78.992  62.299  0.00  0.00    -0.048 A 
ATOM      3  C3  CAQ d   1      27.422  79.624  62.672  0.00  0.00     0.098 A 
ATOM      4  C4  CAQ d   1      27.706  80.903  62.207  0.00  0.00     0.098 A 
ATOM      5  C5  CAQ d   1      26.808  81.552  61.363  0.00  0.00    -0.048 A 
ATOM      6  C6  CAQ d   1      25.627  80.918  60.987  0.00  0.00    -0.080 A 
ATOM      7  H   CAQ d   1      24.412  79.149  61.173  0.00  0.00     0.083 H 
ATOM      8  H   CAQ d   1      26.019  77.989  62.664  0.00  0.00     0.087 H 
ATOM      9  H   CAQ d   1      27.030  82.555  60.998  0.00  0.00     0.087 H 
ATOM     10  H   CAQ d   1      24.926  81.422  60.322  0.00  0.00     0.083 H 
ENDROOT
BRANCH   3  11
ATOM     11  O3  CAQ d   1      28.294  78.980  63.499  0.00  0.00    -0.358 OA
ATOM     12  H   CAQ d   1      29.055  79.543  63.661  0.00  0.00     0.217 HD
ENDBRANCH   3  11
BRANCH   4  13
ATOM     13  O4  CAQ d   1      28.862  81.527  62.570  0.00  0.00    -0.358 OA
ATOM     14  H   CAQ d   1      28.897  82.396  62.163  0.00  0.00     0.217 HD
ENDBRANCH   4  13
TORSDOF 2
