REMARK  2 active torsions:
REMARK  status: ('A' for Active; 'I' for Inactive)
REMARK    1  A    between atoms: C_2  and  CA_4 
REMARK    2  A    between atoms: CAI_8  and  CAA_9 
ROOT
ATOM      1  CA  4CS d   1       5.204  -8.915   6.108  0.00  0.00     0.119 C 
ATOM      2  CB  4CS d   1       4.202  -8.700   7.220  0.00  0.00    -0.020 C 
ATOM      3  CAD 4CS d   1       2.805  -8.898   6.650  0.00  0.00    -0.004 C 
ATOM      4  NAG 4CS d   1       2.782 -10.320   6.216  0.00  0.00    -0.379 N 
ATOM      5  CAI 4CS d   1       3.957 -11.010   5.766  0.00  0.00     0.091 C 
ATOM      6  N   4CS d   1       5.149 -10.309   5.700  0.00  0.00    -0.261 NA
ATOM      7  H1  4CS d   1       4.950  -8.266   5.257  0.00  0.00     0.093 H 
ATOM      8  H2  4CS d   1       4.300  -7.679   7.617  0.00  0.00     0.039 H 
ATOM      9  H3  4CS d   1       4.381  -9.426   8.027  0.00  0.00     0.039 H 
ATOM     10  H4  4CS d   1       2.635  -8.227   5.795  0.00  0.00     0.064 H 
ATOM     11  H5  4CS d   1       2.041  -8.713   7.419  0.00  0.00     0.064 H 
ATOM     12  H6  4CS d   1       1.887 -10.830   6.239  0.00  0.00     0.160 HD
ENDROOT
BRANCH   1  13
ATOM     13  C   4CS d   1       6.627  -8.602   6.579  0.00  0.00     0.199 C 
ATOM     14  O   4CS d   1       6.864  -7.719   7.389  0.00  0.00    -0.646 OA
ATOM     15  OXT 4CS d   1       7.598  -9.217   6.151  0.00  0.00    -0.646 OA
ENDBRANCH   1  13
BRANCH   5  16
ATOM     16  CAA 4CS d   1       3.961 -12.483   5.342  0.00  0.00    -0.022 C 
ATOM     17  H7  4CS d   1       4.978 -12.775   5.040  0.00  0.00     0.037 H 
ATOM     18  H8  4CS d   1       3.273 -12.623   4.495  0.00  0.00     0.037 H 
ATOM     19  H9  4CS d   1       3.635 -13.108   6.186  0.00  0.00     0.037 H 
ENDBRANCH   5  16
TORSDOF 2
