REMARK  11 active torsions:
REMARK  status: ('A' for Active; 'I' for Inactive)
REMARK    1  A    between atoms: C5_2  and  C11_17 
REMARK    2  A    between atoms: N8_15  and  C10_5 
REMARK    3  A    between atoms: C17_7  and  C38_38 
REMARK    4  A    between atoms: C27_28  and  C21_8 
REMARK    5  A    between atoms: C36_36  and  C28_11 
REMARK    6  A    between atoms: C16_21  and  C2_13 
REMARK    7  A    between atoms: O20_24  and  C19_23 
REMARK    8  A    between atoms: O20_24  and  C36_36 
REMARK    9  A    between atoms: C29_29  and  C33_33 
REMARK   10  A    between atoms: C33_33  and  C34_34 
REMARK   11  A    between atoms: C33_33  and  C35_35 
ROOT
ATOM      1  C15 643 d   1     -14.281  54.693   1.665  0.00  0.00    -0.069 A 
ATOM      2  C17 643 d   1     -14.389  52.853   0.139  0.00  0.00    -0.048 A 
ATOM      3  C14 643 d   1     -14.661  53.864   2.690  0.00  0.00    -0.050 A 
ATOM      4  C16 643 d   1     -14.155  54.197   0.377  0.00  0.00    -0.020 A 
ATOM      5  C18 643 d   1     -14.771  52.028   1.165  0.00  0.00    -0.044 A 
ATOM      6  C19 643 d   1     -14.904  52.531   2.439  0.00  0.00     0.069 A 
ATOM      7  H5  643 d   1     -14.079  55.739   1.863  0.00  0.00     0.085 H 
ATOM      8  H9  643 d   1     -14.770  54.257   3.695  0.00  0.00     0.087 H 
ATOM      9  H10 643 d   1     -14.968  50.980   0.973  0.00  0.00     0.088 H 
ENDROOT
BRANCH   6  10
ATOM     10  O20 643 d   1     -15.274  51.693   3.424  0.00  0.00    -0.346 OA
BRANCH  10  11
ATOM     11  C36 643 d   1     -15.507  52.215   4.721  0.00  0.00     0.054 C 
ATOM     12  H20 643 d   1     -14.549  52.349   5.245  0.00  0.00     0.082 H 
ATOM     13  H21 643 d   1     -16.021  53.184   4.644  0.00  0.00     0.082 H 
BRANCH  11  14
ATOM     14  C28 643 d   1     -16.367  51.243   5.476  0.00  0.00     0.030 A 
ATOM     15  C27 643 d   1     -17.540  50.584   5.028  0.00  0.00     0.109 A 
ATOM     16  N31 643 d   1     -17.939  49.848   6.017  0.00  0.00    -0.127 NA
ATOM     17  O30 643 d   1     -17.207  49.960   6.960  0.00  0.00    -0.216 OA
ATOM     18  C29 643 d   1     -16.203  50.798   6.729  0.00  0.00     0.093 A 
BRANCH  15  19
ATOM     19  C21 643 d   1     -18.131  50.752   3.685  0.00  0.00     0.042 A 
ATOM     20  C22 643 d   1     -17.800  49.902   2.643  0.00  0.00     0.066 A 
ATOM     21  C23 643 d   1     -18.349  50.114   1.402  0.00  0.00     0.024 A 
ATOM     22 CL32 643 d   1     -16.727  48.595   2.931  0.00  0.00    -0.082 Cl
ATOM     23  N24 643 d   1     -19.173  51.112   1.199  0.00  0.00    -0.270 NA
ATOM     24  H11 643 d   1     -18.098  49.450   0.583  0.00  0.00     0.117 H 
ATOM     25  C25 643 d   1     -19.508  51.946   2.151  0.00  0.00     0.024 A 
ATOM     26  C26 643 d   1     -19.000  51.800   3.416  0.00  0.00     0.066 A 
ATOM     27  H12 643 d   1     -20.193  52.759   1.937  0.00  0.00     0.117 H 
ATOM     28 CL37 643 d   1     -19.444  52.874   4.682  0.00  0.00    -0.082 Cl
ENDBRANCH  15  19
BRANCH  18  29
ATOM     29  C33 643 d   1     -15.106  51.189   7.679  0.00  0.00    -0.011 C 
ATOM     30  H13 643 d   1     -14.295  51.679   7.120  0.00  0.00     0.049 H 
BRANCH  29  31
ATOM     31  C34 643 d   1     -15.665  52.150   8.721  0.00  0.00    -0.067 C 
ATOM     32  H14 643 d   1     -14.866  52.439   9.419  0.00  0.00     0.028 H 
ATOM     33  H15 643 d   1     -16.476  51.657   9.277  0.00  0.00     0.028 H 
ATOM     34  H16 643 d   1     -16.056  53.047   8.220  0.00  0.00     0.028 H 
ENDBRANCH  29  31
BRANCH  29  35
ATOM     35  C35 643 d   1     -14.562  49.952   8.387  0.00  0.00    -0.067 C 
ATOM     36  H17 643 d   1     -14.156  49.252   7.642  0.00  0.00     0.028 H 
ATOM     37  H18 643 d   1     -15.373  49.463   8.946  0.00  0.00     0.028 H 
ATOM     38  H19 643 d   1     -13.764  50.249   9.084  0.00  0.00     0.028 H 
ENDBRANCH  29  35
ENDBRANCH  18  29
ENDBRANCH  11  14
ENDBRANCH  10  11
ENDBRANCH   6  10
BRANCH   2  39
ATOM     39  C38 643 d   1     -14.251  52.294  -1.246  0.00  0.00    -0.050 C 
ATOM     40  H22 643 d   1     -13.939  53.093  -1.935  0.00  0.00     0.033 H 
ATOM     41  H23 643 d   1     -15.218  51.884  -1.574  0.00  0.00     0.033 H 
ATOM     42  H24 643 d   1     -13.495  51.495  -1.245  0.00  0.00     0.033 H 
ENDBRANCH   2  39
BRANCH   4  43
ATOM     43  C2  643 d   1     -13.717  55.087  -0.719  0.00  0.00    -0.023 A 
ATOM     44  C1  643 d   1     -14.258  56.355  -0.920  0.00  0.00    -0.071 A 
ATOM     45  C4  643 d   1     -13.800  57.146  -1.932  0.00  0.00    -0.069 A 
ATOM     46  H6  643 d   1     -15.047  56.715  -0.269  0.00  0.00     0.084 H 
ATOM     47  C6  643 d   1     -12.784  56.697  -2.767  0.00  0.00     0.009 A 
ATOM     48  H1  643 d   1     -14.230  58.129  -2.086  0.00  0.00     0.085 H 
ATOM     49  C5  643 d   1     -12.069  57.260  -3.921  0.00  0.00     0.068 A 
ATOM     50  C7  643 d   1     -12.231  55.430  -2.569  0.00  0.00     0.046 A 
ATOM     51  C9  643 d   1     -11.173  56.321  -4.310  0.00  0.00    -0.003 A 
ATOM     52  N8  643 d   1     -11.265  55.244  -3.519  0.00  0.00    -0.359 N 
ATOM     53  H8  643 d   1     -10.480  56.426  -5.143  0.00  0.00     0.113 H 
ATOM     54  C3  643 d   1     -12.701  54.636  -1.540  0.00  0.00    -0.045 A 
ATOM     55  H7  643 d   1     -12.271  53.655  -1.376  0.00  0.00     0.088 H 
BRANCH  49  56
ATOM     56  C11 643 d   1     -12.252  58.568  -4.547  0.00  0.00     0.211 C 
ATOM     57  O12 643 d   1     -13.077  59.337  -4.134  0.00  0.00    -0.644 OA
ATOM     58  O13 643 d   1     -11.473  58.918  -5.573  0.00  0.00    -0.644 OA
ENDBRANCH  49  56
BRANCH  52  59
ATOM     59  C10 643 d   1     -10.450  54.045  -3.653  0.00  0.00    -0.014 C 
ATOM     60  H2  643 d   1      -9.756  54.166  -4.498  0.00  0.00     0.057 H 
ATOM     61  H3  643 d   1     -11.101  53.177  -3.834  0.00  0.00     0.057 H 
ATOM     62  H4  643 d   1      -9.877  53.886  -2.728  0.00  0.00     0.057 H 
ENDBRANCH  52  59
ENDBRANCH   4  43
TORSDOF 11
