REMARK  2 active torsions:
REMARK  status: ('A' for Active; 'I' for Inactive)
REMARK    1  A    between atoms: C12_14  and  C13_15 
REMARK    2  A    between atoms: C2_16  and  C4_17 
ROOT
ATOM      1  C11 F10 d   1      19.943   5.149  14.909  0.00  0.00    -0.042 A 
ATOM      2  C21 F10 d   1      21.428   4.322  16.606  0.00  0.00    -0.054 A 
ATOM      3  C22 F10 d   1      22.438   5.162  16.141  0.00  0.00     0.004 A 
ATOM      4  C12 F10 d   1      20.180   4.305  15.990  0.00  0.00    -0.006 A 
ATOM      5  C2  F10 d   1      20.974   5.991  14.456  0.00  0.00     0.070 A 
ATOM      6  N23 F10 d   1      22.180   5.978  15.091  0.00  0.00    -0.260 NA
ATOM      7  H3  F10 d   1      18.975   5.157  14.422  0.00  0.00     0.088 H 
ATOM      8  H10 F10 d   1      21.616   3.676  17.456  0.00  0.00     0.087 H 
ATOM      9  H11 F10 d   1      23.414   5.162  16.612  0.00  0.00     0.114 H 
ENDROOT
BRANCH   4  10
ATOM     10  C13 F10 d   1      19.159   3.381  16.546  0.00  0.00     0.043 A 
ATOM     11  C14 F10 d   1      19.217   2.623  17.712  0.00  0.00    -0.039 A 
ATOM     12  C15 F10 d   1      18.031   1.948  17.734  0.00  0.00     0.056 A 
ATOM     13  H5  F10 d   1      20.025   2.579  18.441  0.00  0.00     0.088 H 
ATOM     14  C16 F10 d   1      17.448   0.973  18.709  0.00  0.00     0.253 A 
ATOM     15  C19 F10 d   1      17.290   2.302  16.511  0.00  0.00     0.027 A 
ATOM     16  N1  F10 d   1      16.301   0.409  18.386  0.00  0.00    -0.356 N 
ATOM     17  O3  F10 d   1      18.059   0.666  19.737  0.00  0.00    -0.268 OA
ATOM     18  C17 F10 d   1      15.488   0.719  17.206  0.00  0.00     0.000 A 
ATOM     19  H1  F10 d   1      15.953  -0.296  19.004  0.00  0.00     0.162 HD
ATOM     20  C18 F10 d   1      15.956   1.733  16.156  0.00  0.00    -0.011 A 
ATOM     21  H6  F10 d   1      14.521   1.085  17.582  0.00  0.00     0.064 H 
ATOM     22  H7  F10 d   1      15.338  -0.232  16.674  0.00  0.00     0.064 H 
ATOM     23  H8  F10 d   1      15.222   2.550  16.095  0.00  0.00     0.044 H 
ATOM     24  H9  F10 d   1      16.028   1.231  15.180  0.00  0.00     0.044 H 
ATOM     25  N20 F10 d   1      18.041   3.177  15.813  0.00  0.00    -0.358 N 
ATOM     26  H14 F10 d   1      17.810   3.604  14.905  0.00  0.00     0.166 HD
ENDBRANCH   4  10
BRANCH   5  27
ATOM     27  C4  F10 d   1      20.783   6.922  13.289  0.00  0.00     0.031 A 
ATOM     28  C10 F10 d   1      21.440   8.157  13.243  0.00  0.00    -0.068 A 
ATOM     29  C9  F10 d   1      21.255   9.016  12.135  0.00  0.00    -0.082 A 
ATOM     30  H2  F10 d   1      22.091   8.455  14.057  0.00  0.00     0.085 H 
ATOM     31  C8  F10 d   1      20.445   8.671  11.059  0.00  0.00    -0.080 A 
ATOM     32  H4  F10 d   1      21.761   9.975  12.124  0.00  0.00     0.083 H 
ATOM     33  C7  F10 d   1      19.781   7.447  11.035  0.00  0.00    -0.045 A 
ATOM     34  H13 F10 d   1      20.329   9.361  10.231  0.00  0.00     0.083 H 
ATOM     35  C5  F10 d   1      19.936   6.565  12.116  0.00  0.00     0.129 A 
ATOM     36  H12 F10 d   1      19.153   7.179  10.193  0.00  0.00     0.088 H 
ATOM     37  F6  F10 d   1      19.287   5.392  12.098  0.00  0.00    -0.205 F 
ENDBRANCH   5  27
TORSDOF 2
