REMARK  6 active torsions:
REMARK  status: ('A' for Active; 'I' for Inactive)
REMARK    1  A    between atoms: RU20_42  and  C13_13 
REMARK    2  A    between atoms: N15_15  and  C18_16 
REMARK    3  A    between atoms: RU20_42  and  CL17_22 
REMARK    4  A    between atoms: C36_24  and  C35_26 
REMARK    5  A    between atoms: C31_33  and  C32_30 
REMARK    6  A    between atoms: C28_38  and  O1_39 
ROOT
ATOM      1  F2  FLL d   1     -17.016  35.394 -16.181  0.00  0.00    -0.205 F 
ATOM      2  C38 FLL d   1     -15.682  35.286 -16.136  0.00  0.00     0.134 A 
ATOM      3  C39 FLL d   1     -15.043  35.210 -17.382  0.00  0.00     0.040 A 
ATOM      4  N23 FLL d   1     -13.711  35.114 -17.408  0.00  0.00    -0.255 N 
ATOM      5  N21 FLL d   1     -10.953  34.910 -17.498  0.00  0.00     0.159 N 
ATOM      6  N16 FLL d   1     -12.697  32.809 -18.648  0.00  0.00    -0.260 N 
ATOM      7  C11 FLL d   1     -12.024  32.033 -17.762  0.00  0.00     0.003 A 
ATOM      8  C12 FLL d   1     -12.340  30.676 -17.576  0.00  0.00    -0.066 A 
ATOM      9  C10 FLL d   1     -13.389  30.150 -18.310  0.00  0.00    -0.079 A 
ATOM     10  C9  FLL d   1     -14.122  30.924 -19.199  0.00  0.00    -0.054 A 
ATOM     11  C8  FLL d   1     -13.744  32.260 -19.332  0.00  0.00     0.082 A 
ATOM     12  C7  FLL d   1     -14.421  33.183 -20.226  0.00  0.00     0.142 A 
ATOM     13  N15 FLL d   1     -13.964  34.398 -20.262  0.00  0.00     0.146 N 
ATOM     14  C37 FLL d   1     -15.048  35.238 -14.931  0.00  0.00    -0.031 A 
ATOM     15  C36 FLL d   1     -13.630  35.128 -14.941  0.00  0.00     0.015 A 
ATOM     16  C40 FLL d   1     -13.015  35.059 -16.218  0.00  0.00     0.106 A 
ATOM     17  C31 FLL d   1     -10.744  34.883 -15.218  0.00  0.00     0.033 A 
ATOM     18  C24 FLL d   1     -11.606  34.937 -16.332  0.00  0.00     0.214 A 
ATOM     19  C30 FLL d   1      -9.419  34.767 -15.782  0.00  0.00     0.018 A 
ATOM     20  C25 FLL d   1      -9.608  34.771 -17.193  0.00  0.00     0.184 A 
ATOM     21  C29 FLL d   1      -8.159  34.654 -15.213  0.00  0.00    -0.038 A 
ATOM     22  C28 FLL d   1      -7.064  34.548 -16.064  0.00  0.00     0.066 A 
ATOM     23  C27 FLL d   1      -7.251  34.564 -17.453  0.00  0.00    -0.049 A 
ATOM     24  C26 FLL d   1      -8.493  34.652 -18.029  0.00  0.00    -0.043 A 
ATOM     25 RU20 FLL d   1     -12.402  34.875 -19.028  0.00  0.00     0.000 Ru
ATOM     26  H1  FLL d   1     -15.616  35.229 -18.302  0.00  0.00     0.119 H 
ATOM     27  H2  FLL d   1     -11.368  34.979 -18.438  0.00  0.00     0.331 HD
ATOM     28  H3  FLL d   1     -11.220  32.471 -17.181  0.00  0.00     0.114 H 
ATOM     29  H4  FLL d   1     -11.780  30.061 -16.880  0.00  0.00     0.085 H 
ATOM     30  H5  FLL d   1     -13.645  29.104 -18.187  0.00  0.00     0.083 H 
ATOM     31  H6  FLL d   1     -14.950  30.510 -19.764  0.00  0.00     0.087 H 
ATOM     32  H7  FLL d   1     -15.269  32.872 -20.835  0.00  0.00     0.131 H 
ATOM     33  H10 FLL d   1     -13.187  34.692 -19.653  0.00  0.00     0.330 HD
ATOM     34  H17 FLL d   1     -15.603  35.282 -14.001  0.00  0.00     0.089 H 
ATOM     35  H19 FLL d   1      -8.031  34.648 -14.136  0.00  0.00     0.089 H 
ATOM     36  H21 FLL d   1      -6.381  34.505 -18.097  0.00  0.00     0.087 H 
ATOM     37  H22 FLL d   1      -8.607  34.630 -19.107  0.00  0.00     0.087 H 
ENDROOT
BRANCH  25  38
ATOM     38  C13 FLL d   1     -12.277  36.664 -19.378  0.00  0.00     0.055 C 
ATOM     39  O14 FLL d   1     -12.204  37.790 -19.706  0.00  0.00    -0.315 OA
ATOM     40  H8  FLL d   1     -13.246  36.228 -19.140  0.00  0.00     0.130 H 
ATOM     41  H9  FLL d   1     -11.376  36.057 -19.312  0.00  0.00     0.130 H 
ENDBRANCH  25  38
BRANCH  25  42
ATOM     42 CL17 FLL d   1     -10.874  34.259 -20.772  0.00  0.00    -0.145 Cl
ATOM     43  H16 FLL d   1      -9.866  34.273 -20.777  0.00  0.00     0.145 HD
ENDBRANCH  25  42
BRANCH  13  44
ATOM     44  C18 FLL d   1     -14.587  35.332 -21.192  0.00  0.00     0.172 A 
ATOM     45  C19 FLL d   1     -15.841  35.834 -20.934  0.00  0.00    -0.047 A 
ATOM     46  C3  FLL d   1     -16.419  36.740 -21.810  0.00  0.00    -0.081 A 
ATOM     47  H11 FLL d   1     -16.378  35.521 -20.046  0.00  0.00     0.087 H 
ATOM     48  C4  FLL d   1     -15.730  37.134 -22.950  0.00  0.00    -0.083 A 
ATOM     49  H12 FLL d   1     -17.406  37.140 -21.606  0.00  0.00     0.083 H 
ATOM     50  C6  FLL d   1     -14.466  36.645 -23.226  0.00  0.00    -0.081 A 
ATOM     51  H13 FLL d   1     -16.191  37.837 -23.635  0.00  0.00     0.083 H 
ATOM     52  C5  FLL d   1     -13.891  35.731 -22.330  0.00  0.00    -0.047 A 
ATOM     53  H14 FLL d   1     -13.931  36.961 -24.115  0.00  0.00     0.083 H 
ATOM     54  H15 FLL d   1     -12.901  35.334 -22.524  0.00  0.00     0.087 H 
ENDBRANCH  13  44
BRANCH  15  55
ATOM     55  C35 FLL d   1     -12.733  35.055 -13.830  0.00  0.00     0.061 A 
ATOM     56  C34 FLL d   1     -13.041  35.076 -12.404  0.00  0.00     0.260 A 
ATOM     57  N22 FLL d   1     -11.842  34.972 -11.731  0.00  0.00    -0.289 N 
ATOM     58  O42 FLL d   1     -14.150  35.146 -11.910  0.00  0.00    -0.267 OA
ATOM     59  C33 FLL d   1     -10.769  34.881 -12.592  0.00  0.00     0.260 A 
ATOM     60  H18 FLL d   1     -11.760  34.964 -10.734  0.00  0.00     0.172 HD
ATOM     61  C32 FLL d   1     -11.352  34.942 -13.964  0.00  0.00     0.062 A 
ATOM     62  O41 FLL d   1      -9.593  34.807 -12.274  0.00  0.00    -0.267 OA
ENDBRANCH  15  55
BRANCH  22  63
ATOM     63  O1  FLL d   1      -5.799  34.444 -15.580  0.00  0.00    -0.361 OA
ATOM     64  H20 FLL d   1      -5.188  34.382 -16.305  0.00  0.00     0.217 HD
ENDBRANCH  22  63
TORSDOF 6
