REMARK  3 active torsions:
REMARK  status: ('A' for Active; 'I' for Inactive)
REMARK    1  A    between atoms: RU_31  and  C10_2 
REMARK    2  A    between atoms: C17_7  and  C16_6 
REMARK    3  A    between atoms: C25_16  and  O15_19 
ROOT
ATOM      1  C12 DW1 d   1      12.165  16.762  40.108  0.00  0.00    -0.046 A 
ATOM      2  C13 DW1 d   1      13.386  16.079  39.957  0.00  0.00    -0.042 A 
ATOM      3  C14 DW1 d   1      14.376  16.796  40.630  0.00  0.00    -0.042 A 
ATOM      4  C16 DW1 d   1      13.777  17.928  41.182  0.00  0.00    -0.046 A 
ATOM      5  C17 DW1 d   1      12.413  17.911  40.863  0.00  0.00    -0.057 A 
ATOM      6  N20 DW1 d   1      14.280  15.996  43.683  0.00  0.00    -0.258 N 
ATOM      7  C6  DW1 d   1      15.630  15.859  43.630  0.00  0.00     0.003 A 
ATOM      8  C5  DW1 d   1      16.365  15.823  44.833  0.00  0.00    -0.065 A 
ATOM      9  C4  DW1 d   1      15.751  15.927  46.101  0.00  0.00    -0.068 A 
ATOM     10  N18 DW1 d   1      11.637  16.258  43.808  0.00  0.00     0.159 N 
ATOM     11  C22 DW1 d   1      10.379  16.406  44.073  0.00  0.00     0.184 A 
ATOM     12  C27 DW1 d   1      10.179  16.478  45.460  0.00  0.00     0.018 A 
ATOM     13  C26 DW1 d   1       8.903  16.634  46.014  0.00  0.00    -0.038 A 
ATOM     14  C25 DW1 d   1       7.784  16.720  45.156  0.00  0.00     0.066 A 
ATOM     15  C24 DW1 d   1       7.986  16.649  43.760  0.00  0.00    -0.049 A 
ATOM     16  C23 DW1 d   1       9.274  16.493  43.214  0.00  0.00    -0.043 A 
ATOM     17  C28 DW1 d   1      11.507  16.362  46.021  0.00  0.00     0.033 A 
ATOM     18  C21 DW1 d   1      12.303  16.246  44.902  0.00  0.00     0.214 A 
ATOM     19  C7  DW1 d   1      13.678  16.104  44.926  0.00  0.00     0.106 A 
ATOM     20  C3  DW1 d   1      14.356  16.073  46.161  0.00  0.00     0.012 A 
ATOM     21  C29 DW1 d   1      12.151  16.342  47.272  0.00  0.00     0.062 A 
ATOM     22  C2  DW1 d   1      13.559  16.203  47.333  0.00  0.00     0.061 A 
ATOM     23  C30 DW1 d   1      11.684  16.437  48.590  0.00  0.00     0.260 A 
ATOM     24  O8  DW1 d   1      10.540  16.562  48.965  0.00  0.00    -0.267 OA
ATOM     25  N19 DW1 d   1      12.735  16.364  49.455  0.00  0.00    -0.289 N 
ATOM     26  C1  DW1 d   1      13.876  16.220  48.699  0.00  0.00     0.260 A 
ATOM     27  O9  DW1 d   1      14.972  16.124  49.194  0.00  0.00    -0.267 OA
ATOM     28 RU   DW1 d   1      12.859  16.087  42.066  0.00  0.00     0.000 Ru
ATOM     29  H3  DW1 d   1      11.201  16.451  39.709  0.00  0.00     0.041 H 
ATOM     30  H4  DW1 d   1      13.533  15.150  39.409  0.00  0.00     0.041 H 
ATOM     31  H5  DW1 d   1      15.427  16.521  40.710  0.00  0.00     0.041 H 
ATOM     32  H6  DW1 d   1      14.284  18.696  41.764  0.00  0.00     0.041 H 
ATOM     33  H7  DW1 d   1      11.813  17.890  41.785  0.00  0.00     0.034 H 
ATOM     34  H8  DW1 d   1      12.154  18.806  40.278  0.00  0.00     0.034 H 
ATOM     35  H9  DW1 d   1      16.136  15.778  42.675  0.00  0.00     0.114 H 
ATOM     36  H10 DW1 d   1      17.442  15.711  44.783  0.00  0.00     0.085 H 
ATOM     37  H11 DW1 d   1      16.344  15.895  47.008  0.00  0.00     0.085 H 
ATOM     38  H12 DW1 d   1      12.040  16.165  42.865  0.00  0.00     0.331 HD
ATOM     39  H13 DW1 d   1       8.775  16.688  47.089  0.00  0.00     0.089 H 
ATOM     40  H14 DW1 d   1       7.132  16.716  43.096  0.00  0.00     0.087 H 
ATOM     41  H15 DW1 d   1       9.410  16.441  42.140  0.00  0.00     0.087 H 
ATOM     42  H17 DW1 d   1      12.686  16.407  50.453  0.00  0.00     0.172 HD
ENDROOT
BRANCH  28  43
ATOM     43  C10 DW1 d   1      12.660  14.240  42.094  0.00  0.00     0.055 C 
ATOM     44  O11 DW1 d   1      12.586  13.096  42.065  0.00  0.00    -0.315 OA
ATOM     45  H1  DW1 d   1      11.756  14.842  42.167  0.00  0.00     0.130 H 
ATOM     46  H2  DW1 d   1      13.634  14.724  42.048  0.00  0.00     0.130 H 
ENDBRANCH  28  43
BRANCH  14  47
ATOM     47  O15 DW1 d   1       6.504  16.859  45.619  0.00  0.00    -0.361 OA
ATOM     48  H16 DW1 d   1       6.514  16.893  46.568  0.00  0.00     0.217 HD
ENDBRANCH  14  47
TORSDOF 3
