REMARK  3 active torsions:
REMARK  status: ('A' for Active; 'I' for Inactive)
REMARK    1  A    between atoms: C13_14  and  C18_10 
REMARK    2  A    between atoms: C21_16  and  C22_20 
REMARK    3  A    between atoms: C2_19  and  C1_21 
ROOT
ATOM      1  C15 B97 d   1      81.607 262.539 109.516  0.00  0.00    -0.068 A 
ATOM      2  C10 B97 d   1      83.386 263.478 106.546  0.00  0.00    -0.053 A 
ATOM      3  C9  B97 d   1      84.691 263.219 106.869  0.00  0.00    -0.063 A 
ATOM      4  C14 B97 d   1      80.325 262.823 109.121  0.00  0.00    -0.053 A 
ATOM      5  C16 B97 d   1      82.658 262.753 108.658  0.00  0.00     0.007 A 
ATOM      6  C17 B97 d   1      83.968 262.457 109.065  0.00  0.00     0.021 A 
ATOM      7  C11 B97 d   1      82.354 263.257 107.411  0.00  0.00     0.068 A 
ATOM      8  C5  B97 d   1      84.566 261.938 110.272  0.00  0.00     0.063 A 
ATOM      9  C8  B97 d   1      84.950 262.715 108.119  0.00  0.00     0.019 A 
ATOM     10  C13 B97 d   1      80.102 263.321 107.864  0.00  0.00     0.069 A 
ATOM     11  C6  B97 d   1      85.945 261.813 110.213  0.00  0.00     0.100 A 
ATOM     12  C25 B97 d   1      86.951 261.379 111.134  0.00  0.00     0.261 C 
ATOM     13  C3  B97 d   1      84.287 260.881 112.550  0.00  0.00     0.011 C 
ATOM     14  C2  B97 d   1      85.320 259.817 112.242  0.00  0.00     0.024 C 
ATOM     15  N12 B97 d   1      81.106 263.545 107.012  0.00  0.00    -0.247 NA
ATOM     16  N4  B97 d   1      83.815 261.608 111.372  0.00  0.00    -0.386 N 
ATOM     17  N27 B97 d   1      86.637 260.310 111.937  0.00  0.00    -0.351 N 
ATOM     18  O26 B97 d   1      88.032 261.951 111.213  0.00  0.00    -0.267 OA
ATOM     19  S7  B97 d   1      86.522 262.327 108.695  0.00  0.00    -0.082 SA
ATOM     20  H1  B97 d   1      81.792 262.144 110.509  0.00  0.00     0.085 H 
ATOM     21  H3  B97 d   1      83.163 263.875 105.562  0.00  0.00     0.087 H 
ATOM     22  H4  B97 d   1      85.492 263.406 106.162  0.00  0.00     0.085 H 
ATOM     23  H5  B97 d   1      79.495 262.655 109.797  0.00  0.00     0.087 H 
ATOM     24  H8  B97 d   1      84.733 261.605 113.248  0.00  0.00     0.067 H 
ATOM     25  H9  B97 d   1      83.422 260.396 113.027  0.00  0.00     0.067 H 
ATOM     26  H10 B97 d   1      85.433 259.264 113.186  0.00  0.00     0.074 H 
ATOM     27  H17 B97 d   1      82.827 261.899 111.368  0.00  0.00     0.159 HD
ATOM     28  H18 B97 d   1      87.404 259.823 112.354  0.00  0.00     0.163 HD
ENDROOT
BRANCH  10  29
ATOM     29  C18 B97 d   1      78.733 263.637 107.491  0.00  0.00     0.010 A 
ATOM     30  C19 B97 d   1      78.415 264.747 106.745  0.00  0.00    -0.068 A 
ATOM     31  C20 B97 d   1      77.095 265.048 106.479  0.00  0.00    -0.059 A 
ATOM     32  H2  B97 d   1      79.203 265.387 106.365  0.00  0.00     0.085 H 
ATOM     33  C21 B97 d   1      76.104 264.225 106.960  0.00  0.00     0.030 A 
ATOM     34  H6  B97 d   1      76.841 265.926 105.896  0.00  0.00     0.086 H 
ATOM     35  N23 B97 d   1      76.362 263.126 107.674  0.00  0.00    -0.265 NA
ATOM     36  C24 B97 d   1      77.658 262.884 107.914  0.00  0.00     0.015 A 
ATOM     37  H7  B97 d   1      77.885 262.003 108.503  0.00  0.00     0.116 H 
BRANCH  33  38
ATOM     38  C22 B97 d   1      74.678 264.552 106.672  0.00  0.00    -0.035 C 
ATOM     39  H11 B97 d   1      74.028 263.792 107.130  0.00  0.00     0.035 H 
ATOM     40  H12 B97 d   1      74.517 264.564 105.584  0.00  0.00     0.035 H 
ATOM     41  H13 B97 d   1      74.437 265.541 107.090  0.00  0.00     0.035 H 
ENDBRANCH  33  38
ENDBRANCH  10  29
BRANCH  14  42
ATOM     42  C1  B97 d   1      84.878 258.788 111.232  0.00  0.00    -0.056 C 
ATOM     43  H14 B97 d   1      85.687 258.060 111.072  0.00  0.00     0.030 H 
ATOM     44  H15 B97 d   1      84.640 259.286 110.281  0.00  0.00     0.030 H 
ATOM     45  H16 B97 d   1      83.985 258.267 111.606  0.00  0.00     0.030 H 
ENDBRANCH  14  42
TORSDOF 3
