REMARK  4 active torsions:
REMARK  status: ('A' for Active; 'I' for Inactive)
REMARK    1  A    between atoms: C3_6  and  O2_18 
REMARK    2  A    between atoms: C12_11  and  C13_13 
REMARK    3  A    between atoms: O2_18  and  C1_12 
REMARK    4  A    between atoms: C13_13  and  N14_16 
ROOT
ATOM      1  C4  B98 d   1      83.128 262.867 106.158  0.00  0.00    -0.050 A 
ATOM      2  C5  B98 d   1      84.449 262.676 106.457  0.00  0.00    -0.063 A 
ATOM      3  C19 B98 d   1      82.439 261.855 108.238  0.00  0.00    -0.037 A 
ATOM      4  C18 B98 d   1      83.767 261.647 108.569  0.00  0.00     0.012 A 
ATOM      5  C17 B98 d   1      84.347 261.051 109.730  0.00  0.00     0.062 A 
ATOM      6  C3  B98 d   1      82.157 262.466 107.033  0.00  0.00     0.069 A 
ATOM      7  C6  B98 d   1      84.720 262.069 107.660  0.00  0.00     0.018 A 
ATOM      8  C8  B98 d   1      85.725 261.009 109.711  0.00  0.00     0.100 A 
ATOM      9  C9  B98 d   1      86.743 260.534 110.612  0.00  0.00     0.261 C 
ATOM     10  C15 B98 d   1      84.162 260.146 112.007  0.00  0.00     0.013 C 
ATOM     11  C12 B98 d   1      85.163 259.021 111.845  0.00  0.00     0.050 C 
ATOM     12  N16 B98 d   1      83.576 260.568 110.738  0.00  0.00    -0.386 N 
ATOM     13  N11 B98 d   1      86.462 259.455 111.417  0.00  0.00    -0.349 N 
ATOM     14  O10 B98 d   1      87.843 261.067 110.656  0.00  0.00    -0.267 OA
ATOM     15  S7  B98 d   1      86.281 261.722 108.263  0.00  0.00    -0.082 SA
ATOM     16  H1  B98 d   1      82.850 263.339 105.223  0.00  0.00     0.087 H 
ATOM     17  H2  B98 d   1      85.239 262.986 105.782  0.00  0.00     0.085 H 
ATOM     18  H3  B98 d   1      81.643 261.547 108.906  0.00  0.00     0.089 H 
ATOM     19  H4  B98 d   1      84.672 261.008 112.463  0.00  0.00     0.067 H 
ATOM     20  H5  B98 d   1      83.354 259.805 112.671  0.00  0.00     0.067 H 
ATOM     21  H6  B98 d   1      85.294 258.594 112.850  0.00  0.00     0.077 H 
ATOM     22  H12 B98 d   1      82.557 260.498 110.605  0.00  0.00     0.159 HD
ATOM     23  H13 B98 d   1      87.243 258.918 111.737  0.00  0.00     0.163 HD
ENDROOT
BRANCH  11  24
ATOM     24  C13 B98 d   1      84.679 257.894 110.964  0.00  0.00     0.100 C 
ATOM     25  H10 B98 d   1      85.466 257.135 110.843  0.00  0.00     0.078 H 
ATOM     26  H11 B98 d   1      84.384 258.277 109.976  0.00  0.00     0.078 H 
BRANCH  24  27
ATOM     27  N14 B98 d   1      83.513 257.322 111.666  0.00  0.00    -0.077 N 
ATOM     28  H14 B98 d   1      83.138 256.558 111.127  0.00  0.00     0.274 HD
ATOM     29  H15 B98 d   1      82.807 258.032 111.778  0.00  0.00     0.274 HD
ATOM     30  H16 B98 d   1      83.798 256.986 112.572  0.00  0.00     0.274 HD
ENDBRANCH  24  27
ENDBRANCH  11  24
BRANCH   6  31
ATOM     31  O2  B98 d   1      80.858 262.708 106.634  0.00  0.00    -0.356 OA
BRANCH  31  32
ATOM     32  C1  B98 d   1      80.022 262.172 107.645  0.00  0.00     0.010 C 
ATOM     33  H7  B98 d   1      78.969 262.339 107.376  0.00  0.00     0.066 H 
ATOM     34  H8  B98 d   1      80.239 262.669 108.602  0.00  0.00     0.066 H 
ATOM     35  H9  B98 d   1      80.210 261.092 107.742  0.00  0.00     0.066 H 
ENDBRANCH  31  32
ENDBRANCH   6  31
TORSDOF 4
