REMARK  12 active torsions:
REMARK  status: ('A' for Active; 'I' for Inactive)
REMARK    1  A    between atoms: C1_1  and  C9_9 
REMARK    2  A    between atoms: C5_5  and  C10_10 
REMARK    3  A    between atoms: N3_19  and  C6_6 
REMARK       I    between atoms: C9_9  and  N2_18 
REMARK    4  A    between atoms: C10_10  and  O1_21 
REMARK    5  A    between atoms: C11_11  and  C12_12 
REMARK    6  A    between atoms: C13_13  and  C11_11 
REMARK    7  A    between atoms: C11_11  and  N3_19 
REMARK    8  A    between atoms: C13_13  and  C14_14 
REMARK    9  A    between atoms: C15_15  and  C13_13 
REMARK   10  A    between atoms: C13_13  and  S1_29 
REMARK   11  A    between atoms: O7_27  and  C15_15 
REMARK       I    between atoms: C16_16  and  N4_20 
REMARK   12  A    between atoms: C16_16  and  O7_27 
ROOT
ATOM      1  N3  MXC d   1     102.948  33.054  29.963  0.00  0.00    -0.359 N 
ATOM      2  H   MXC d   1     102.116  33.392  29.480  0.00  0.00     0.162 HD
ENDROOT
BRANCH   1   3
ATOM      3  C6  MXC d   1     103.756  32.263  29.151  0.00  0.00     0.117 A 
ATOM      4  C5  MXC d   1     103.577  30.785  28.830  0.00  0.00     0.012 A 
ATOM      5  C4  MXC d   1     104.569  30.343  28.018  0.00  0.00    -0.045 A 
ATOM      6  C3  MXC d   1     105.444  31.466  27.763  0.00  0.00     0.042 A 
ATOM      7  H   MXC d   1     104.685  29.331  27.630  0.00  0.00     0.088 H 
ATOM      8  C2  MXC d   1     106.645  31.566  26.996  0.00  0.00    -0.041 A 
ATOM      9  N1  MXC d   1     104.994  32.595  28.401  0.00  0.00    -0.308 N 
ATOM     10  C1  MXC d   1     107.293  32.840  26.946  0.00  0.00     0.035 A 
ATOM     11  H   MXC d   1     107.052  30.703  26.468  0.00  0.00     0.088 H 
ATOM     12  C8  MXC d   1     106.751  33.981  27.638  0.00  0.00    -0.052 A 
ATOM     13  C7  MXC d   1     105.567  33.849  28.386  0.00  0.00    -0.012 A 
ATOM     14  H   MXC d   1     107.257  34.945  27.582  0.00  0.00     0.087 H 
ATOM     15  H   MXC d   1     105.128  34.690  28.923  0.00  0.00     0.112 H 
BRANCH   4  16
ATOM     16  C10 MXC d   1     102.465  29.914  29.346  0.00  0.00     0.044 C 
ATOM     17  H   MXC d   1     102.436  29.968  30.434  0.00  0.00     0.081 H 
ATOM     18  H   MXC d   1     102.638  28.883  29.039  0.00  0.00     0.081 H 
BRANCH  16  19
ATOM     19  O1  MXC d   1     101.223  30.367  28.814  0.00  0.00    -0.396 OA
ATOM     20  H   MXC d   1     100.513  29.811  29.143  0.00  0.00     0.209 HD
ENDBRANCH  16  19
ENDBRANCH   4  16
BRANCH  10  21
ATOM     21  C9  MXC d   1     108.578  32.987  26.163  0.00  0.00     0.249 C 
ATOM     22  N2  MXC d   1     109.091  34.255  26.201  0.00  0.00    -0.366 N 
ATOM     23  H   MXC d   1     109.962  34.468  25.714  0.00  0.00     0.159 HD
ATOM     24  H   MXC d   1     108.603  34.987  26.716  0.00  0.00     0.159 HD
ATOM     25  O2  MXC d   1     109.154  32.103  25.550  0.00  0.00    -0.268 OA
ENDBRANCH  10  21
ENDBRANCH   1   3
BRANCH   1  26
ATOM     26  C11 MXC d   1     103.020  33.517  31.369  0.00  0.00     0.117 C 
ATOM     27  H   MXC d   1     103.543  32.795  31.997  0.00  0.00     0.092 H 
BRANCH  26  28
ATOM     28  C12 MXC d   1     103.847  34.804  31.427  0.00  0.00     0.198 C 
ATOM     29  O3  MXC d   1     104.340  35.353  30.445  0.00  0.00    -0.646 OA
ATOM     30  O4  MXC d   1     104.097  35.487  32.733  0.00  0.00    -0.646 OA
ENDBRANCH  26  28
BRANCH  26  31
ATOM     31  C13 MXC d   1     101.587  33.601  32.004  0.00  0.00     0.110 C 
BRANCH  31  32
ATOM     32  C14 MXC d   1     100.901  34.946  31.609  0.00  0.00    -0.052 C 
ATOM     33  H   MXC d   1     100.785  34.989  30.526  0.00  0.00     0.029 H 
ATOM     34  H   MXC d   1      99.921  35.006  32.083  0.00  0.00     0.029 H 
ATOM     35  H   MXC d   1     101.519  35.779  31.943  0.00  0.00     0.029 H 
ENDBRANCH  31  32
BRANCH  31  36
ATOM     36  C15 MXC d   1     101.724  33.465  33.542  0.00  0.00     0.052 C 
ATOM     37  H   MXC d   1     102.451  32.684  33.765  0.00  0.00     0.078 H 
ATOM     38  H   MXC d   1     100.751  33.212  33.963  0.00  0.00     0.078 H 
BRANCH  36  39
ATOM     39  O7  MXC d   1     102.164  34.671  34.104  0.00  0.00    -0.302 OA
BRANCH  39  40
ATOM     40  C16 MXC d   1     102.347  34.724  35.443  0.00  0.00     0.358 C 
ATOM     41  N4  MXC d   1     101.500  33.954  36.215  0.00  0.00    -0.346 N 
ATOM     42  H   MXC d   1     101.587  33.962  37.231  0.00  0.00     0.161 HD
ATOM     43  H   MXC d   1     100.787  33.377  35.769  0.00  0.00     0.161 HD
ATOM     44  O8  MXC d   1     103.201  35.417  35.956  0.00  0.00    -0.239 OA
ENDBRANCH  39  40
ENDBRANCH  36  39
ENDBRANCH  31  36
BRANCH  31  45
ATOM     45  S1  MXC d   1     100.499  32.269  31.415  0.00  0.00     0.150 S 
ATOM     46  O5  MXC d   1      99.178  32.417  32.089  0.00  0.00    -0.230 OA
ATOM     47  O6  MXC d   1     101.139  30.786  31.828  0.00  0.00    -0.230 OA
ATOM     48  H   MXC d   1     100.375  32.343  30.093  0.00  0.00     0.172 HD
ENDBRANCH  31  45
ENDBRANCH  26  31
ENDBRANCH   1  26
TORSDOF 12
