REMARK  4 active torsions:
REMARK  status: ('A' for Active; 'I' for Inactive)
REMARK    1  A    between atoms: C3_6  and  O2_18 
REMARK    2  A    between atoms: C12_11  and  C13_13 
REMARK    3  A    between atoms: O2_18  and  C1_12 
REMARK    4  A    between atoms: C13_13  and  N14_16 
ROOT
ATOM      1  C4  B98 d   1      -0.317  32.198   8.362  0.00  0.00    -0.050 A 
ATOM      2  C5  B98 d   1      -1.440  32.024   9.138  0.00  0.00    -0.063 A 
ATOM      3  C19 B98 d   1       0.255  29.871   8.567  0.00  0.00    -0.037 A 
ATOM      4  C18 B98 d   1      -0.877  29.674   9.354  0.00  0.00     0.012 A 
ATOM      5  C17 B98 d   1      -1.376  28.480   9.967  0.00  0.00     0.062 A 
ATOM      6  C3  B98 d   1       0.510  31.140   8.080  0.00  0.00     0.069 A 
ATOM      7  C6  B98 d   1      -1.697  30.763   9.613  0.00  0.00     0.018 A 
ATOM      8  C8  B98 d   1      -2.548  28.646  10.687  0.00  0.00     0.100 A 
ATOM      9  C9  B98 d   1      -3.418  27.778  11.452  0.00  0.00     0.261 C 
ATOM     10  C15 B98 d   1      -1.319  26.048  10.161  0.00  0.00     0.013 C 
ATOM     11  C12 B98 d   1      -1.701  25.958  11.622  0.00  0.00     0.050 C 
ATOM     12  N16 B98 d   1      -0.697  27.312   9.815  0.00  0.00    -0.386 N 
ATOM     13  N11 B98 d   1      -2.958  26.570  11.909  0.00  0.00    -0.349 N 
ATOM     14  O10 B98 d   1      -4.578  28.084  11.697  0.00  0.00    -0.267 OA
ATOM     15  S7  B98 d   1      -3.031  30.288  10.595  0.00  0.00    -0.082 SA
ATOM     16  H1  B98 d   1      -0.083  33.181   7.969  0.00  0.00     0.087 H 
ATOM     17  H2  B98 d   1      -2.099  32.854   9.366  0.00  0.00     0.085 H 
ATOM     18  H3  B98 d   1       0.922  29.047   8.341  0.00  0.00     0.089 H 
ATOM     19  H4  B98 d   1      -2.228  25.926   9.553  0.00  0.00     0.067 H 
ATOM     20  H5  B98 d   1      -0.613  25.236   9.932  0.00  0.00     0.067 H 
ATOM     21  H6  B98 d   1      -1.844  24.882  11.803  0.00  0.00     0.077 H 
ATOM     22  H12 B98 d   1       0.267  27.325   9.451  0.00  0.00     0.159 HD
ATOM     23  H13 B98 d   1      -3.572  26.060  12.511  0.00  0.00     0.163 HD
ENDROOT
BRANCH  11  24
ATOM     24  C13 B98 d   1      -0.663  26.389  12.634  0.00  0.00     0.100 C 
ATOM     25  H10 B98 d   1      -0.331  27.416  12.421  0.00  0.00     0.078 H 
ATOM     26  H11 B98 d   1       0.202  25.710  12.602  0.00  0.00     0.078 H 
BRANCH  24  27
ATOM     27  N14 B98 d   1      -1.313  26.328  13.974  0.00  0.00    -0.077 N 
ATOM     28  H14 B98 d   1      -0.652  26.609  14.681  0.00  0.00     0.274 HD
ATOM     29  H15 B98 d   1      -1.619  25.385  14.156  0.00  0.00     0.274 HD
ATOM     30  H16 B98 d   1      -2.107  26.948  13.991  0.00  0.00     0.274 HD
ENDBRANCH  24  27
ENDBRANCH  11  24
BRANCH   6  31
ATOM     31  O2  B98 d   1       1.623  31.406   7.286  0.00  0.00    -0.356 OA
BRANCH  31  32
ATOM     32  C1  B98 d   1       2.014  30.165   6.717  0.00  0.00     0.010 C 
ATOM     33  H7  B98 d   1       2.895  30.317   6.076  0.00  0.00     0.066 H 
ATOM     34  H8  B98 d   1       1.187  29.761   6.114  0.00  0.00     0.066 H 
ATOM     35  H9  B98 d   1       2.263  29.456   7.520  0.00  0.00     0.066 H 
ENDBRANCH  31  32
ENDBRANCH   6  31
TORSDOF 4
