REMARK  14 active torsions:
REMARK  status: ('A' for Active; 'I' for Inactive)
REMARK    1  A    between atoms: C5_5  and  C10_9 
REMARK    2  A    between atoms: N3_17  and  C6_6 
REMARK    3  A    between atoms: C10_9  and  O1_19 
REMARK    4  A    between atoms: C11_10  and  C12_11 
REMARK    5  A    between atoms: C13_12  and  C11_10 
REMARK    6  A    between atoms: C11_10  and  N3_17 
REMARK    7  A    between atoms: C13_12  and  C14_13 
REMARK    8  A    between atoms: C15_14  and  C13_12 
REMARK    9  A    between atoms: C13_12  and  S1_26 
REMARK   10  A    between atoms: O7_24  and  C15_14 
REMARK       I    between atoms: C16_15  and  N4_18 
REMARK   11  A    between atoms: C16_15  and  O7_24 
REMARK   12  A    between atoms: N4_18  and  C17_27 
REMARK   13  A    between atoms: C17_27  and  C18_28 
REMARK   14  A    between atoms: C18_28  and  N5_29 
ROOT
ATOM      1  C13 MXF d   1     101.506  33.242  32.047  0.00  0.00     0.110 C 
ENDROOT
BRANCH   1   2
ATOM      2  C11 MXF d   1     102.992  33.148  31.497  0.00  0.00     0.117 C 
ATOM      3  H   MXF d   1     103.469  32.380  32.107  0.00  0.00     0.092 H 
BRANCH   2   4
ATOM      4  C12 MXF d   1     103.815  34.439  31.644  0.00  0.00     0.198 C 
ATOM      5  O3  MXF d   1     104.321  35.037  30.701  0.00  0.00    -0.646 OA
ATOM      6  O4  MXF d   1     104.040  35.060  32.992  0.00  0.00    -0.646 OA
ENDBRANCH   2   4
BRANCH   2   7
ATOM      7  N3  MXF d   1     102.971  32.808  30.057  0.00  0.00    -0.359 N 
ATOM      8  H   MXF d   1     102.199  33.260  29.568  0.00  0.00     0.162 HD
BRANCH   7   9
ATOM      9  C6  MXF d   1     103.745  32.023  29.203  0.00  0.00     0.117 A 
ATOM     10  C5  MXF d   1     103.507  30.556  28.861  0.00  0.00     0.012 A 
ATOM     11  C4  MXF d   1     104.445  30.097  27.992  0.00  0.00    -0.045 A 
ATOM     12  C3  MXF d   1     105.352  31.193  27.702  0.00  0.00     0.041 A 
ATOM     13  H   MXF d   1     104.506  29.087  27.586  0.00  0.00     0.088 H 
ATOM     14  C2  MXF d   1     106.534  31.267  26.847  0.00  0.00    -0.057 A 
ATOM     15  N1  MXF d   1     104.973  32.341  28.395  0.00  0.00    -0.308 N 
ATOM     16  C1  MXF d   1     107.237  32.541  26.776  0.00  0.00    -0.080 A 
ATOM     17  H   MXF d   1     106.878  30.400  26.282  0.00  0.00     0.086 H 
ATOM     18  C8  MXF d   1     106.778  33.705  27.533  0.00  0.00    -0.067 A 
ATOM     19  H   MXF d   1     108.122  32.628  26.146  0.00  0.00     0.083 H 
ATOM     20  C7  MXF d   1     105.610  33.595  28.364  0.00  0.00    -0.013 A 
ATOM     21  H   MXF d   1     107.318  34.650  27.468  0.00  0.00     0.085 H 
ATOM     22  H   MXF d   1     105.237  34.441  28.941  0.00  0.00     0.112 H 
BRANCH  10  23
ATOM     23  C10 MXF d   1     102.385  29.709  29.402  0.00  0.00     0.044 C 
ATOM     24  H   MXF d   1     102.199  29.964  30.445  0.00  0.00     0.081 H 
ATOM     25  H   MXF d   1     102.655  28.655  29.342  0.00  0.00     0.081 H 
BRANCH  23  26
ATOM     26  O1  MXF d   1     101.209  29.954  28.625  0.00  0.00    -0.396 OA
ATOM     27  H   MXF d   1     100.487  29.419  28.962  0.00  0.00     0.209 HD
ENDBRANCH  23  26
ENDBRANCH  10  23
ENDBRANCH   7   9
ENDBRANCH   2   7
ENDBRANCH   1   2
BRANCH   1  28
ATOM     28  C14 MXF d   1     100.801  34.524  31.475  0.00  0.00    -0.052 C 
ATOM     29  H   MXF d   1     100.736  34.448  30.390  0.00  0.00     0.029 H 
ATOM     30  H   MXF d   1      99.799  34.604  31.895  0.00  0.00     0.029 H 
ATOM     31  H   MXF d   1     101.381  35.407  31.745  0.00  0.00     0.029 H 
ENDBRANCH   1  28
BRANCH   1  32
ATOM     32  C15 MXF d   1     101.585  33.221  33.611  0.00  0.00     0.052 C 
ATOM     33  H   MXF d   1     102.615  33.447  33.886  0.00  0.00     0.078 H 
ATOM     34  H   MXF d   1     101.245  32.239  33.939  0.00  0.00     0.078 H 
BRANCH  32  35
ATOM     35  O7  MXF d   1     100.762  34.182  34.239  0.00  0.00    -0.302 OA
BRANCH  35  36
ATOM     36  C16 MXF d   1     101.328  35.327  34.724  0.00  0.00     0.360 C 
ATOM     37  N4  MXF d   1     102.574  35.218  35.347  0.00  0.00    -0.335 N 
ATOM     38  H   MXF d   1     103.415  35.485  34.836  0.00  0.00     0.164 HD
ATOM     39  O8  MXF d   1     100.777  36.408  34.598  0.00  0.00    -0.239 OA
BRANCH  37  40
ATOM     40  C17 MXF d   1     102.686  34.751  36.654  0.00  0.00     0.019 C 
ATOM     41  H   MXF d   1     102.167  33.825  36.408  0.00  0.00     0.066 H 
ATOM     42  H   MXF d   1     102.832  35.759  37.042  0.00  0.00     0.066 H 
BRANCH  40  43
ATOM     43  C18 MXF d   1     103.335  34.122  37.892  0.00  0.00     0.094 C 
ATOM     44  H   MXF d   1     104.416  34.189  37.772  0.00  0.00     0.077 H 
ATOM     45  H   MXF d   1     102.981  33.094  37.968  0.00  0.00     0.077 H 
BRANCH  43  46
ATOM     46  N5  MXF d   1     102.969  34.830  39.165  0.00  0.00    -0.078 N 
ATOM     47  H   MXF d   1     103.427  34.370  39.952  0.00  0.00     0.274 HD
ATOM     48  H   MXF d   1     103.275  35.802  39.112  0.00  0.00     0.274 HD
ATOM     49  H   MXF d   1     101.957  34.797  39.292  0.00  0.00     0.274 HD
ENDBRANCH  43  46
ENDBRANCH  40  43
ENDBRANCH  37  40
ENDBRANCH  35  36
ENDBRANCH  32  35
ENDBRANCH   1  32
BRANCH   1  50
ATOM     50  S1  MXF d   1     100.455  31.847  31.537  0.00  0.00     0.150 S 
ATOM     51  O5  MXF d   1      99.100  32.059  32.119  0.00  0.00    -0.230 OA
ATOM     52  O6  MXF d   1     101.097  30.408  32.104  0.00  0.00    -0.230 OA
ATOM     53  H   MXF d   1     100.387  31.782  30.210  0.00  0.00     0.172 HD
ENDBRANCH   1  50
TORSDOF 14
