REMARK  9 active torsions:
REMARK  status: ('A' for Active; 'I' for Inactive)
REMARK    1  A    between atoms: N30_16  and  C35_1 
REMARK    2  A    between atoms: S31_14  and  C34_2 
REMARK    3  A    between atoms: C6_5  and  C8_9 
REMARK    4  A    between atoms: C12_19  and  C13_6 
REMARK    5  A    between atoms: C20_7  and  N30_16 
REMARK    6  A    between atoms: N30_16  and  S31_14 
REMARK    7  A    between atoms: N10_20  and  C12_19 
REMARK    8  A    between atoms: C5_21  and  N10_20 
REMARK    9  A    between atoms: N9_27  and  C11_28 
ROOT
ATOM      1  N2  3JZ d   1      25.961  69.274  15.940  0.00  0.00    -0.074 NA
ATOM      2  C7  3JZ d   1      26.821  69.604  16.938  0.00  0.00     0.039 C 
ATOM      3  C6  3JZ d   1      26.519  69.145  18.257  0.00  0.00     0.112 C 
ATOM      4  C5  3JZ d   1      25.435  68.386  18.623  0.00  0.00     0.159 C 
ATOM      5  N4  3JZ d   1      24.635  68.032  17.606  0.00  0.00    -0.044 NA
ATOM      6  C3  3JZ d   1      25.014  68.435  16.344  0.00  0.00     0.728 C 
ATOM      7  N9  3JZ d   1      24.249  67.998  15.389  0.00  0.00    -0.188 N 
ATOM      8  H   3JZ d   1      27.712  70.199  16.739  0.00  0.00     0.117 H 
ATOM      9  H   3JZ d   1      24.375  68.364  14.445  0.00  0.00     0.184 HD
ENDROOT
BRANCH   4  10
ATOM     10  N10 3JZ d   1      24.996  68.017  19.948  0.00  0.00    -0.369 N 
ATOM     11  H   3JZ d   1      25.547  68.190  20.789  0.00  0.00     0.161 HD
BRANCH  10  12
ATOM     12  C12 3JZ d   1      23.620  67.339  19.968  0.00  0.00     0.020 C 
ATOM     13  H   3JZ d   1      23.002  67.694  20.793  0.00  0.00     0.071 H 
ATOM     14  H   3JZ d   1      23.039  67.567  19.074  0.00  0.00     0.071 H 
BRANCH  12  15
ATOM     15  C13 3JZ d   1      23.920  65.899  20.081  0.00  0.00    -0.013 A 
ATOM     16  C20 3JZ d   1      22.884  65.048  20.441  0.00  0.00     0.052 A 
ATOM     17  C1  3JZ d   1      23.159  63.611  20.590  0.00  0.00    -0.056 A 
ATOM     18  C19 3JZ d   1      24.406  63.067  20.378  0.00  0.00    -0.081 A 
ATOM     19  H   3JZ d   1      22.343  62.950  20.880  0.00  0.00     0.087 H 
ATOM     20  C18 3JZ d   1      25.398  63.907  20.015  0.00  0.00    -0.082 A 
ATOM     21  H   3JZ d   1      24.585  61.999  20.499  0.00  0.00     0.083 H 
ATOM     22  C17 3JZ d   1      25.191  65.288  19.832  0.00  0.00    -0.073 A 
ATOM     23  H   3JZ d   1      26.397  63.501  19.858  0.00  0.00     0.083 H 
ATOM     24  H   3JZ d   1      26.020  65.908  19.492  0.00  0.00     0.084 H 
BRANCH  16  25
ATOM     25  N30 3JZ d   1      21.544  65.513  20.653  0.00  0.00    -0.280 N 
BRANCH  25  26
ATOM     26  C35 3JZ d   1      20.636  65.561  19.551  0.00  0.00    -0.004 C 
ATOM     27  H   3JZ d   1      19.858  64.810  19.690  0.00  0.00     0.058 H 
ATOM     28  H   3JZ d   1      20.182  66.551  19.498  0.00  0.00     0.058 H 
ATOM     29  H   3JZ d   1      21.177  65.359  18.627  0.00  0.00     0.058 H 
ENDBRANCH  25  26
BRANCH  25  30
ATOM     30  S31 3JZ d   1      21.106  65.773  22.275  0.00  0.00     0.228 S 
ATOM     31  O33 3JZ d   1      22.111  66.353  23.002  0.00  0.00    -0.206 OA
ATOM     32  O32 3JZ d   1      20.642  64.489  22.757  0.00  0.00    -0.206 OA
BRANCH  30  33
ATOM     33  C34 3JZ d   1      19.964  66.955  21.893  0.00  0.00     0.033 C 
ATOM     34  H   3JZ d   1      19.560  67.379  22.812  0.00  0.00     0.051 H 
ATOM     35  H   3JZ d   1      20.439  67.742  21.307  0.00  0.00     0.051 H 
ATOM     36  H   3JZ d   1      19.158  66.505  21.314  0.00  0.00     0.051 H 
ENDBRANCH  30  33
ENDBRANCH  25  30
ENDBRANCH  16  25
ENDBRANCH  12  15
ENDBRANCH  10  12
ENDBRANCH   4  10
BRANCH   3  37
ATOM     37  C8  3JZ d   1      27.449  69.579  19.308  0.00  0.00     0.422 C 
ATOM     38  F29 3JZ d   1      28.071  68.449  20.001  0.00  0.00    -0.166 F 
ATOM     39  F28 3JZ d   1      26.725  70.179  20.268  0.00  0.00    -0.166 F 
ATOM     40  F27 3JZ d   1      28.451  70.296  18.560  0.00  0.00    -0.166 F 
ENDBRANCH   3  37
BRANCH   7  41
ATOM     41  C11 3JZ d   1      23.202  66.985  15.635  0.00  0.00     0.050 A 
ATOM     42  C16 3JZ d   1      23.148  66.026  16.637  0.00  0.00    -0.054 A 
ATOM     43  C15 3JZ d   1      22.094  65.128  16.704  0.00  0.00    -0.054 A 
ATOM     44  H   3JZ d   1      23.944  65.978  17.380  0.00  0.00     0.087 H 
ATOM     45  C21 3JZ d   1      21.113  65.146  15.746  0.00  0.00     0.041 A 
ATOM     46  H   3JZ d   1      22.045  64.406  17.520  0.00  0.00     0.087 H 
ATOM     47  C22 3JZ d   1      21.185  66.052  14.750  0.00  0.00    -0.021 A 
ATOM     48  N25 3JZ d   1      19.994  64.355  15.565  0.00  0.00    -0.326 N 
ATOM     49  C14 3JZ d   1      22.199  66.937  14.681  0.00  0.00    -0.048 A 
ATOM     50  C23 3JZ d   1      20.012  65.875  13.771  0.00  0.00     0.035 A 
ATOM     51  H   3JZ d   1      22.231  67.638  13.847  0.00  0.00     0.087 H 
ATOM     52  C24 3JZ d   1      19.255  64.722  14.400  0.00  0.00     0.226 A 
ATOM     53  H   3JZ d   1      20.328  65.679  12.746  0.00  0.00     0.054 H 
ATOM     54  H   3JZ d   1      19.409  66.775  13.649  0.00  0.00     0.054 H 
ATOM     55  O26 3JZ d   1      18.173  64.224  13.921  0.00  0.00    -0.273 OA
ATOM     56  H   3JZ d   1      19.727  63.596  16.192  0.00  0.00     0.169 HD
ENDBRANCH   7  41
TORSDOF 9
