REMARK  12 active torsions:
REMARK  status: ('A' for Active; 'I' for Inactive)
REMARK       I    between atoms: C1_1  and  N2_3 
REMARK       I    between atoms: C1_1  and  N9_14 
REMARK    1  A    between atoms: N2_3  and  C3_4 
REMARK    2  A    between atoms: C6_7  and  O41_31 
REMARK    3  A    between atoms: N9_14  and  C10_15 
REMARK    4  A    between atoms: C13_17  and  C16_24 
REMARK    5  A    between atoms: N11_19  and  C15_20 
REMARK    6  A    between atoms: C16_24  and  C17_21 
REMARK    7  A    between atoms: C16_24  and  C18_22 
REMARK    8  A    between atoms: C16_24  and  C19_23 
REMARK    9  A    between atoms: C22_27  and  C25_30 
REMARK   10  A    between atoms: O41_31  and  C42_32 
REMARK   11  A    between atoms: C42_32  and  C43_33 
REMARK   12  A    between atoms: C43_33  and  N44_34 
ROOT
ATOM      1  C1  B96 d   1      -4.859  -2.655  12.350  0.00  0.00     0.326 C 
ATOM      2  O1  B96 d   1      -4.256  -2.640  11.279  0.00  0.00    -0.247 OA
ATOM      3  N2  B96 d   1      -4.837  -3.726  13.167  0.00  0.00    -0.308 N 
ATOM      4  N9  B96 d   1      -5.617  -1.645  12.771  0.00  0.00    -0.293 N 
ATOM      5  H1  B96 d   1      -5.453  -3.728  13.955  0.00  0.00     0.170 HD
ATOM      6  H8  B96 d   1      -6.076  -1.784  13.649  0.00  0.00     0.172 HD
ENDROOT
BRANCH   3   7
ATOM      7  C3  B96 d   1      -4.009  -4.832  12.983  0.00  0.00     0.047 A 
ATOM      8  C4  B96 d   1      -3.801  -5.697  11.894  0.00  0.00     0.004 A 
ATOM      9  C5  B96 d   1      -2.800  -6.684  12.007  0.00  0.00     0.010 A 
ATOM     10  C31 B96 d   1      -4.568  -5.622  10.739  0.00  0.00    -0.070 A 
ATOM     11  C6  B96 d   1      -2.000  -6.792  13.163  0.00  0.00     0.080 A 
ATOM     12  C34 B96 d   1      -2.592  -7.577  10.955  0.00  0.00    -0.069 A 
ATOM     13  C7  B96 d   1      -2.192  -5.906  14.209  0.00  0.00    -0.048 A 
ATOM     14  C8  B96 d   1      -3.181  -4.936  14.102  0.00  0.00    -0.054 A 
ATOM     15  H6  B96 d   1      -1.578  -5.968  15.101  0.00  0.00     0.087 H 
ATOM     16  H7  B96 d   1      -3.314  -4.234  14.917  0.00  0.00     0.087 H 
ATOM     17  C33 B96 d   1      -3.370  -7.490   9.805  0.00  0.00    -0.082 A 
ATOM     18  H5  B96 d   1      -1.824  -8.338  11.034  0.00  0.00     0.085 H 
ATOM     19  C32 B96 d   1      -4.350  -6.516   9.696  0.00  0.00    -0.082 A 
ATOM     20  H4  B96 d   1      -3.209  -8.187   8.991  0.00  0.00     0.083 H 
ATOM     21  H3  B96 d   1      -4.949  -6.451   8.795  0.00  0.00     0.083 H 
ATOM     22  H2  B96 d   1      -5.339  -4.865  10.650  0.00  0.00     0.084 H 
BRANCH  11  23
ATOM     23  O41 B96 d   1      -1.022  -7.753  13.278  0.00  0.00    -0.349 OA
BRANCH  23  24
ATOM     24  C42 B96 d   1       0.062  -7.617  14.213  0.00  0.00     0.049 C 
ATOM     25  H26 B96 d   1      -0.321  -7.737  15.237  0.00  0.00     0.077 H 
ATOM     26  H27 B96 d   1       0.515  -6.620  14.106  0.00  0.00     0.077 H 
BRANCH  24  27
ATOM     27  C43 B96 d   1       1.120  -8.689  13.936  0.00  0.00     0.103 C 
ATOM     28  H28 B96 d   1       0.622  -9.604  13.581  0.00  0.00     0.079 H 
ATOM     29  H29 B96 d   1       1.666  -8.906  14.866  0.00  0.00     0.079 H 
BRANCH  27  30
ATOM     30  N44 B96 d   1       2.073  -8.232  12.914  0.00  0.00    -0.065 N 
ATOM     31  C45 B96 d   1       1.398  -7.979  11.617  0.00  0.00     0.103 C 
ATOM     32  C46 B96 d   1       2.440  -7.626  10.558  0.00  0.00     0.042 C 
ATOM     33  H31 B96 d   1       0.692  -7.143  11.729  0.00  0.00     0.079 H 
ATOM     34  H32 B96 d   1       0.852  -8.882  11.306  0.00  0.00     0.079 H 
ATOM     35  O47 B96 d   1       3.346  -8.725  10.429  0.00  0.00    -0.388 OA
ATOM     36  H33 B96 d   1       2.991  -6.725  10.865  0.00  0.00     0.076 H 
ATOM     37  H34 B96 d   1       1.942  -7.441   9.595  0.00  0.00     0.076 H 
ATOM     38  C48 B96 d   1       4.092  -8.961  11.630  0.00  0.00     0.042 C 
ATOM     39  C49 B96 d   1       3.138  -9.263  12.786  0.00  0.00     0.103 C 
ATOM     40  H35 B96 d   1       4.686  -8.067  11.872  0.00  0.00     0.076 H 
ATOM     41  H36 B96 d   1       4.764  -9.818  11.479  0.00  0.00     0.076 H 
ATOM     42  H37 B96 d   1       2.666 -10.241  12.611  0.00  0.00     0.079 H 
ATOM     43  H38 B96 d   1       3.714  -9.296  13.722  0.00  0.00     0.079 H 
ATOM     44  H30 B96 d   1       2.492  -7.369  13.223  0.00  0.00     0.280 HD
ENDBRANCH  27  30
ENDBRANCH  24  27
ENDBRANCH  23  24
ENDBRANCH  11  23
ENDBRANCH   3   7
BRANCH   4  45
ATOM     45  C10 B96 d   1      -5.855  -0.428  12.157  0.00  0.00     0.135 A 
ATOM     46  C14 B96 d   1      -5.433  -0.013  10.891  0.00  0.00    -0.012 A 
ATOM     47  C13 B96 d   1      -6.008   1.273  10.821  0.00  0.00     0.066 A 
ATOM     48  H9  B96 d   1      -4.825  -0.540  10.157  0.00  0.00     0.092 H 
ATOM     49  N12 B96 d   1      -6.736   1.647  11.899  0.00  0.00    -0.169 NA
ATOM     50  N11 B96 d   1      -6.628   0.517  12.702  0.00  0.00    -0.217 N 
BRANCH  47  51
ATOM     51  C16 B96 d   1      -5.903   2.254   9.680  0.00  0.00    -0.005 C 
BRANCH  51  52
ATOM     52  C17 B96 d   1      -7.252   2.351   8.989  0.00  0.00    -0.064 C 
ATOM     53  H10 B96 d   1      -7.186   3.065   8.155  0.00  0.00     0.028 H 
ATOM     54  H11 B96 d   1      -8.008   2.697   9.709  0.00  0.00     0.028 H 
ATOM     55  H12 B96 d   1      -7.538   1.361   8.603  0.00  0.00     0.028 H 
ENDBRANCH  51  52
BRANCH  51  56
ATOM     56  C18 B96 d   1      -5.512   3.633  10.235  0.00  0.00    -0.064 C 
ATOM     57  H13 B96 d   1      -4.535   3.563  10.736  0.00  0.00     0.028 H 
ATOM     58  H14 B96 d   1      -6.271   3.966  10.958  0.00  0.00     0.028 H 
ATOM     59  H15 B96 d   1      -5.450   4.357   9.409  0.00  0.00     0.028 H 
ENDBRANCH  51  56
BRANCH  51  60
ATOM     60  C19 B96 d   1      -4.900   1.761   8.650  0.00  0.00    -0.064 C 
ATOM     61  H16 B96 d   1      -5.213   0.774   8.277  0.00  0.00     0.028 H 
ATOM     62  H17 B96 d   1      -3.907   1.679   9.115  0.00  0.00     0.028 H 
ATOM     63  H18 B96 d   1      -4.855   2.472   7.812  0.00  0.00     0.028 H 
ENDBRANCH  51  60
ENDBRANCH  47  51
BRANCH  50  64
ATOM     64  C15 B96 d   1      -7.218   0.554  13.911  0.00  0.00     0.060 A 
ATOM     65  C20 B96 d   1      -6.544   0.141  15.070  0.00  0.00    -0.055 A 
ATOM     66  C21 B96 d   1      -7.125   0.221  16.344  0.00  0.00    -0.075 A 
ATOM     67  H19 B96 d   1      -5.539  -0.254  14.978  0.00  0.00     0.087 H 
ATOM     68  C22 B96 d   1      -8.394   0.772  16.479  0.00  0.00    -0.062 A 
ATOM     69  H20 B96 d   1      -6.590  -0.143  17.214  0.00  0.00     0.084 H 
ATOM     70  C23 B96 d   1      -9.076   1.231  15.360  0.00  0.00    -0.075 A 
ATOM     71  C24 B96 d   1      -8.482   1.129  14.103  0.00  0.00    -0.055 A 
ATOM     72  H21 B96 d   1     -10.064   1.666  15.463  0.00  0.00     0.084 H 
ATOM     73  H22 B96 d   1      -9.018   1.509  13.241  0.00  0.00     0.087 H 
BRANCH  68  74
ATOM     74  C25 B96 d   1      -9.050   0.881  17.837  0.00  0.00    -0.051 C 
ATOM     75  H23 B96 d   1      -8.375   0.473  18.604  0.00  0.00     0.033 H 
ATOM     76  H24 B96 d   1      -9.991   0.311  17.836  0.00  0.00     0.033 H 
ATOM     77  H25 B96 d   1      -9.261   1.938  18.059  0.00  0.00     0.033 H 
ENDBRANCH  68  74
ENDBRANCH  50  64
ENDBRANCH   4  45
TORSDOF 12
