REMARK  11 active torsions:
REMARK  status: ('A' for Active; 'I' for Inactive)
REMARK    1  A    between atoms: C24_24  and  C4_1 
REMARK    2  A    between atoms: C20_6  and  C24_24 
REMARK    3  A    between atoms: N29_29  and  C21_7 
REMARK    4  A    between atoms: O33_33  and  C18_9 
REMARK    5  A    between atoms: C16_10  and  C1_12 
REMARK    6  A    between atoms: C19_11  and  C15_20 
REMARK    7  A    between atoms: C24_24  and  C2_13 
REMARK    8  A    between atoms: C24_24  and  C3_14 
REMARK    9  A    between atoms: C15_20  and  O33_33 
REMARK   10  A    between atoms: N31_31  and  C17_21 
REMARK   11  A    between atoms: N30_30  and  C22_22 
REMARK       I    between atoms: C23_23  and  N29_29 
REMARK       I    between atoms: C23_23  and  N30_30 
ROOT
ATOM      1  C13 4JZ d   1      -5.951   0.205  10.441  0.00  0.00    -0.012 A 
ATOM      2  C20 4JZ d   1      -6.280   1.580  10.396  0.00  0.00     0.066 A 
ATOM      3  C22 4JZ d   1      -6.342  -0.287  11.651  0.00  0.00     0.135 A 
ATOM      4  N28 4JZ d   1      -6.834   1.899  11.535  0.00  0.00    -0.169 NA
ATOM      5  N31 4JZ d   1      -6.896   0.751  12.339  0.00  0.00    -0.217 N 
ATOM      6  H   4JZ d   1      -5.468  -0.363   9.646  0.00  0.00     0.092 H 
ENDROOT
BRANCH   3   7
ATOM      7  N30 4JZ d   1      -6.229  -1.601  12.152  0.00  0.00    -0.293 N 
ATOM      8  C23 4JZ d   1      -5.264  -2.475  11.814  0.00  0.00     0.327 C 
ATOM      9  N29 4JZ d   1      -5.319  -3.666  12.451  0.00  0.00    -0.292 N 
ATOM     10  O32 4JZ d   1      -4.411  -2.220  10.969  0.00  0.00    -0.247 OA
ATOM     11  H   4JZ d   1      -6.144  -3.849  13.022  0.00  0.00     0.172 HD
ATOM     12  H   4JZ d   1      -6.933  -1.912  12.822  0.00  0.00     0.172 HD
BRANCH   9  13
ATOM     13  C21 4JZ d   1      -4.353  -4.663  12.398  0.00  0.00     0.153 A 
ATOM     14  C12 4JZ d   1      -3.409  -5.014  11.469  0.00  0.00    -0.011 A 
ATOM     15  C19 4JZ d   1      -2.635  -6.033  12.068  0.00  0.00     0.055 A 
ATOM     16  H   4JZ d   1      -3.281  -4.593  10.472  0.00  0.00     0.092 H 
ATOM     17  N27 4JZ d   1      -3.062  -6.227  13.289  0.00  0.00    -0.278 N 
ATOM     18  N25 4JZ d   1      -4.113  -5.367  13.516  0.00  0.00    -0.156 NA
ATOM     19  H   4JZ d   1      -2.683  -6.898  13.957  0.00  0.00     0.189 HD
BRANCH  15  20
ATOM     20  C15 4JZ d   1      -1.456  -6.796  11.499  0.00  0.00     0.065 C 
ATOM     21  H   4JZ d   1      -0.988  -7.360  12.306  0.00  0.00     0.084 H 
ATOM     22  H   4JZ d   1      -0.762  -6.081  11.057  0.00  0.00     0.084 H 
BRANCH  20  23
ATOM     23  O33 4JZ d   1      -1.863  -7.705  10.494  0.00  0.00    -0.344 OA
BRANCH  23  24
ATOM     24  C18 4JZ d   1      -0.919  -8.443   9.839  0.00  0.00     0.086 A 
ATOM     25  C6  4JZ d   1       0.438  -8.402  10.183  0.00  0.00    -0.048 A 
ATOM     26  C5  4JZ d   1       1.343  -9.183   9.454  0.00  0.00    -0.063 A 
ATOM     27  H   4JZ d   1       0.783  -7.773  11.004  0.00  0.00     0.087 H 
ATOM     28  C11 4JZ d   1       0.867  -9.972   8.412  0.00  0.00     0.002 A 
ATOM     29  H   4JZ d   1       2.405  -9.173   9.699  0.00  0.00     0.085 H 
ATOM     30  N26 4JZ d   1      -0.418  -9.979   8.119  0.00  0.00    -0.270 NA
ATOM     31  H   4JZ d   1       1.559 -10.586   7.836  0.00  0.00     0.114 H 
ATOM     32  C14 4JZ d   1      -1.318  -9.257   8.789  0.00  0.00     0.034 A 
ATOM     33  H   4JZ d   1      -2.371  -9.307   8.510  0.00  0.00     0.119 H 
ENDBRANCH  23  24
ENDBRANCH  20  23
ENDBRANCH  15  20
ENDBRANCH   9  13
ENDBRANCH   3   7
BRANCH   5  34
ATOM     34  C17 4JZ d   1      -7.479   0.786  13.618  0.00  0.00     0.060 A 
ATOM     35  C9  4JZ d   1      -6.876   0.273  14.763  0.00  0.00    -0.055 A 
ATOM     36  C7  4JZ d   1      -7.550   0.385  15.977  0.00  0.00    -0.075 A 
ATOM     37  H   4JZ d   1      -5.898  -0.206  14.711  0.00  0.00     0.087 H 
ATOM     38  C16 4JZ d   1      -8.789   1.017  16.068  0.00  0.00    -0.062 A 
ATOM     39  H   4JZ d   1      -7.098  -0.032  16.877  0.00  0.00     0.084 H 
ATOM     40  C8  4JZ d   1      -9.396   1.499  14.926  0.00  0.00    -0.075 A 
ATOM     41  C10 4JZ d   1      -8.740   1.385  13.710  0.00  0.00    -0.055 A 
ATOM     42  H   4JZ d   1     -10.380   1.964  14.980  0.00  0.00     0.084 H 
ATOM     43  H   4JZ d   1      -9.216   1.770  12.808  0.00  0.00     0.087 H 
BRANCH  38  44
ATOM     44  C1  4JZ d   1      -9.517   1.114  17.398  0.00  0.00    -0.051 C 
ATOM     45  H   4JZ d   1      -9.723   2.161  17.623  0.00  0.00     0.033 H 
ATOM     46  H   4JZ d   1     -10.456   0.563  17.338  0.00  0.00     0.033 H 
ATOM     47  H   4JZ d   1      -8.893   0.688  18.184  0.00  0.00     0.033 H 
ENDBRANCH  38  44
ENDBRANCH   5  34
BRANCH   2  48
ATOM     48  C24 4JZ d   1      -6.049   2.560   9.268  0.00  0.00    -0.005 C 
BRANCH  48  49
ATOM     49  C4  4JZ d   1      -5.834   3.961   9.866  0.00  0.00    -0.064 C 
ATOM     50  H   4JZ d   1      -5.701   4.682   9.060  0.00  0.00     0.028 H 
ATOM     51  H   4JZ d   1      -6.703   4.237  10.463  0.00  0.00     0.028 H 
ATOM     52  H   4JZ d   1      -4.946   3.953  10.498  0.00  0.00     0.028 H 
ENDBRANCH  48  49
BRANCH  48  53
ATOM     53  C2  4JZ d   1      -7.290   2.570   8.385  0.00  0.00    -0.064 C 
ATOM     54  H   4JZ d   1      -7.156   3.293   7.580  0.00  0.00     0.028 H 
ATOM     55  H   4JZ d   1      -7.441   1.577   7.962  0.00  0.00     0.028 H 
ATOM     56  H   4JZ d   1      -8.158   2.848   8.983  0.00  0.00     0.028 H 
ENDBRANCH  48  53
BRANCH  48  57
ATOM     57  C3  4JZ d   1      -4.868   2.164   8.372  0.00  0.00    -0.064 C 
ATOM     58  H   4JZ d   1      -5.050   1.176   7.949  0.00  0.00     0.028 H 
ATOM     59  H   4JZ d   1      -4.764   2.892   7.567  0.00  0.00     0.028 H 
ATOM     60  H   4JZ d   1      -3.954   2.144   8.966  0.00  0.00     0.028 H 
ENDBRANCH  48  57
ENDBRANCH   2  48
TORSDOF 11
