REMARK  5 active torsions:
REMARK  status: ('A' for Active; 'I' for Inactive)
REMARK    1  A    between atoms: N2_3  and  C1_4 
REMARK    2  A    between atoms: N15_5  and  C16_6 
REMARK    3  A    between atoms: C16_6  and  C17_7 
REMARK    4  A    between atoms: C6_15  and  N7_19 
REMARK    5  A    between atoms: C11_21  and  N13_22 
ROOT
ATOM      1  C17 T22 d   1      40.389  35.600  13.945  0.00  0.00    -0.019 A 
ATOM      2  C22 T22 d   1      39.662  34.805  14.864  0.00  0.00     0.052 A 
ATOM      3  C23 T22 d   1      40.228  33.929  15.651  0.00  0.00     0.100 C 
ATOM      4  N24 T22 d   1      40.724  33.151  16.376  0.00  0.00    -0.191 NA
ATOM      5  C21 T22 d   1      38.265  34.948  14.932  0.00  0.00    -0.062 A 
ATOM      6  C20 T22 d   1      37.593  35.873  14.115  0.00  0.00    -0.082 A 
ATOM      7  C19 T22 d   1      38.318  36.680  13.231  0.00  0.00    -0.082 A 
ATOM      8  C18 T22 d   1      39.705  36.526  13.154  0.00  0.00    -0.074 A 
ATOM      9  H6  T22 d   1      37.698  34.336  15.624  0.00  0.00     0.085 H 
ATOM     10  H7  T22 d   1      36.514  35.961  14.169  0.00  0.00     0.083 H 
ATOM     11  H8  T22 d   1      37.811  37.414  12.615  0.00  0.00     0.083 H 
ATOM     12  H9  T22 d   1      40.266  37.143  12.461  0.00  0.00     0.084 H 
ENDROOT
BRANCH   1  13
ATOM     13  C16 T22 d   1      41.910  35.534  13.785  0.00  0.00     0.031 C 
ATOM     14  H4  T22 d   1      42.184  36.102  12.884  0.00  0.00     0.072 H 
ATOM     15  H5  T22 d   1      42.367  36.005  14.668  0.00  0.00     0.072 H 
BRANCH  13  16
ATOM     16  N15 T22 d   1      42.467  34.161  13.653  0.00  0.00    -0.281 N 
ATOM     17  C25 T22 d   1      42.084  33.401  12.602  0.00  0.00     0.333 A 
ATOM     18  O26 T22 d   1      41.263  33.852  11.770  0.00  0.00    -0.246 OA
ATOM     19  N2  T22 d   1      42.564  32.142  12.429  0.00  0.00    -0.271 N 
ATOM     20  C3  T22 d   1      43.446  31.620  13.311  0.00  0.00     0.254 A 
ATOM     21  C5  T22 d   1      43.872  32.359  14.396  0.00  0.00     0.025 A 
ATOM     22  O4  T22 d   1      43.910  30.473  13.181  0.00  0.00    -0.268 OA
ATOM     23  C6  T22 d   1      43.372  33.658  14.552  0.00  0.00     0.115 A 
ATOM     24  H10 T22 d   1      44.579  31.943  15.112  0.00  0.00     0.098 H 
BRANCH  19  25
ATOM     25  C1  T22 d   1      42.092  31.354  11.271  0.00  0.00    -0.007 C 
ATOM     26  H1  T22 d   1      41.385  31.956  10.682  0.00  0.00     0.057 H 
ATOM     27  H2  T22 d   1      41.589  30.443  11.628  0.00  0.00     0.057 H 
ATOM     28  H3  T22 d   1      42.950  31.077  10.642  0.00  0.00     0.057 H 
ENDBRANCH  19  25
BRANCH  23  29
ATOM     29  N7  T22 d   1      43.991  34.411  15.581  0.00  0.00    -0.365 N 
ATOM     30  C14 T22 d   1      44.077  33.892  16.969  0.00  0.00     0.023 C 
ATOM     31  C11 T22 d   1      44.045  34.972  18.063  0.00  0.00     0.115 C 
ATOM     32  H11 T22 d   1      45.019  33.333  17.068  0.00  0.00     0.067 H 
ATOM     33  H12 T22 d   1      43.228  33.212  17.134  0.00  0.00     0.067 H 
ATOM     34  C10 T22 d   1      45.000  36.108  17.730  0.00  0.00    -0.036 C 
ATOM     35  H13 T22 d   1      44.381  34.508  19.002  0.00  0.00     0.086 H 
ATOM     36  C9  T22 d   1      44.753  36.657  16.331  0.00  0.00    -0.048 C 
ATOM     37  H17 T22 d   1      46.033  35.735  17.790  0.00  0.00     0.036 H 
ATOM     38  H18 T22 d   1      44.860  36.918  18.461  0.00  0.00     0.036 H 
ATOM     39  C8  T22 d   1      44.820  35.582  15.268  0.00  0.00    -0.003 C 
ATOM     40  H19 T22 d   1      45.515  37.419  16.111  0.00  0.00     0.035 H 
ATOM     41  H20 T22 d   1      43.755  37.118  16.304  0.00  0.00     0.035 H 
ATOM     42  H21 T22 d   1      44.476  36.010  14.315  0.00  0.00     0.064 H 
ATOM     43  H22 T22 d   1      45.865  35.254  15.167  0.00  0.00     0.064 H 
BRANCH  31  44
ATOM     44  N13 T22 d   1      42.672  35.500  18.280  0.00  0.00    -0.073 N 
ATOM     45  H14 T22 d   1      42.693  36.203  19.002  0.00  0.00     0.274 HD
ATOM     46  H15 T22 d   1      42.063  34.748  18.561  0.00  0.00     0.274 HD
ATOM     47  H16 T22 d   1      42.330  35.907  17.424  0.00  0.00     0.274 HD
ENDBRANCH  31  44
ENDBRANCH  23  29
ENDBRANCH  13  16
ENDBRANCH   1  13
TORSDOF 5
