REMARK  5 active torsions:
REMARK  status: ('A' for Active; 'I' for Inactive)
REMARK    1  A    between atoms: C1_1  and  N2_2 
REMARK    2  A    between atoms: C5_5  and  N6_6 
REMARK    3  A    between atoms: N12_12  and  C13_13 
REMARK    4  A    between atoms: C13_13  and  C14_14 
REMARK    5  A    between atoms: N24_24  and  C25_25 
ROOT
ATOM      1  N2  RUF d   1      45.193  16.601  13.152  0.00  0.00    -0.285 N 
ATOM      2  C3  RUF d   1      44.628  17.796  13.608  0.00  0.00     0.185 A 
ATOM      3  N4  RUF d   1      44.960  18.691  14.543  0.00  0.00    -0.044 NA
ATOM      4  C5  RUF d   1      44.075  19.678  14.613  0.00  0.00     0.707 A 
ATOM      5  N12 RUF d   1      43.107  19.438  13.663  0.00  0.00    -0.168 N 
ATOM      6  C21 RUF d   1      43.439  18.242  13.027  0.00  0.00     0.167 A 
ATOM      7  C22 RUF d   1      42.830  17.475  12.004  0.00  0.00     0.282 A 
ATOM      8  O23 RUF d   1      41.787  17.866  11.499  0.00  0.00    -0.265 OA
ATOM      9  N24 RUF d   1      43.412  16.311  11.601  0.00  0.00    -0.269 N 
ATOM     10  C26 RUF d   1      44.567  15.890  12.171  0.00  0.00     0.332 A 
ATOM     11  O27 RUF d   1      45.052  14.848  11.779  0.00  0.00    -0.246 OA
ENDROOT
BRANCH   4  12
ATOM     12  N6  RUF d   1      44.162  20.757  15.502  0.00  0.00    -0.212 N 
ATOM     13  C7  RUF d   1      45.308  20.692  16.443  0.00  0.00     0.034 C 
ATOM     14  C8  RUF d   1      44.942  19.867  17.692  0.00  0.00     0.097 C 
ATOM     15  H   RUF d   1      45.567  21.704  16.753  0.00  0.00     0.067 H 
ATOM     16  H   RUF d   1      46.150  20.215  15.940  0.00  0.00     0.067 H 
ATOM     17  N9  RUF d   1      43.690  20.343  18.320  0.00  0.00    -0.072 N 
ATOM     18  H   RUF d   1      45.749  19.969  18.418  0.00  0.00     0.078 H 
ATOM     19  H   RUF d   1      44.799  18.830  17.387  0.00  0.00     0.078 H 
ATOM     20  C10 RUF d   1      42.538  20.408  17.401  0.00  0.00     0.097 C 
ATOM     21  H   RUF d   1      43.863  21.291  18.653  0.00  0.00     0.277 HD
ATOM     22  H   RUF d   1      43.451  19.678  19.055  0.00  0.00     0.277 HD
ATOM     23  C11 RUF d   1      42.901  21.214  16.150  0.00  0.00     0.034 C 
ATOM     24  H   RUF d   1      41.705  20.894  17.908  0.00  0.00     0.078 H 
ATOM     25  H   RUF d   1      42.261  19.396  17.105  0.00  0.00     0.078 H 
ATOM     26  H   RUF d   1      42.094  21.085  15.429  0.00  0.00     0.067 H 
ATOM     27  H   RUF d   1      43.044  22.251  16.455  0.00  0.00     0.067 H 
ENDBRANCH   4  12
BRANCH   5  28
ATOM     28  C13 RUF d   1      41.886  20.200  13.373  0.00  0.00     0.043 C 
ATOM     29  H   RUF d   1      41.672  20.199  12.304  0.00  0.00     0.073 H 
ATOM     30  H   RUF d   1      42.000  21.243  13.668  0.00  0.00     0.073 H 
BRANCH  28  31
ATOM     31  C14 RUF d   1      40.760  19.535  14.153  0.00  0.00    -0.018 A 
ATOM     32  C15 RUF d   1      40.979  18.415  14.964  0.00  0.00    -0.074 A 
ATOM     33  C16 RUF d   1      39.948  17.822  15.682  0.00  0.00    -0.082 A 
ATOM     34  H   RUF d   1      41.984  17.998  15.034  0.00  0.00     0.084 H 
ATOM     35  C17 RUF d   1      38.665  18.343  15.586  0.00  0.00    -0.081 A 
ATOM     36  H   RUF d   1      40.145  16.956  16.314  0.00  0.00     0.083 H 
ATOM     37  C18 RUF d   1      38.427  19.456  14.786  0.00  0.00    -0.061 A 
ATOM     38  H   RUF d   1      37.846  17.881  16.136  0.00  0.00     0.083 H 
ATOM     39  C19 RUF d   1      39.473  20.040  14.081  0.00  0.00     0.042 A 
ATOM     40  H   RUF d   1      37.421  19.870  14.712  0.00  0.00     0.086 H 
ATOM     41 CL20 RUF d   1      39.169  21.411  13.083  0.00  0.00    -0.084 Cl
ENDBRANCH  28  31
ENDBRANCH   5  28
BRANCH   1  42
ATOM     42  C1  RUF d   1      46.436  16.112  13.763  0.00  0.00    -0.008 C 
ATOM     43  H   RUF d   1      46.254  15.143  14.227  0.00  0.00     0.057 H 
ATOM     44  H   RUF d   1      47.202  16.010  12.994  0.00  0.00     0.057 H 
ATOM     45  H   RUF d   1      46.771  16.822  14.520  0.00  0.00     0.057 H 
ENDBRANCH   1  42
BRANCH   9  46
ATOM     46  C25 RUF d   1      42.781  15.502  10.542  0.00  0.00    -0.007 C 
ATOM     47  H   RUF d   1      41.783  15.203  10.861  0.00  0.00     0.057 H 
ATOM     48  H   RUF d   1      42.710  16.093   9.629  0.00  0.00     0.057 H 
ATOM     49  H   RUF d   1      43.386  14.614  10.356  0.00  0.00     0.057 H 
ENDBRANCH   9  46
TORSDOF 5
