REMARK  6 active torsions:
REMARK  status: ('A' for Active; 'I' for Inactive)
REMARK    1  A    between atoms: C8_3  and  N9_18 
REMARK    2  A    between atoms: C13_5  and  N14_21 
REMARK    3  A    between atoms: C17_7  and  N16_22 
REMARK    4  A    between atoms: C18_23  and  C17_7 
REMARK    5  A    between atoms: N_14  and  C_13 
REMARK    6  A    between atoms: N26_27  and  C27_28 
ROOT
ATOM      1  C20 XIH d   1      38.951   3.537  13.109  0.00  0.00    -0.082 A 
ATOM      2  C21 XIH d   1      38.201   2.718  13.948  0.00  0.00    -0.082 A 
ATOM      3  C22 XIH d   1      38.826   1.792  14.784  0.00  0.00    -0.062 A 
ATOM      4  C24 XIH d   1      40.750   0.800  15.610  0.00  0.00     0.100 C 
ATOM      5  C18 XIH d   1      40.976   2.495  13.956  0.00  0.00    -0.019 A 
ATOM      6  C19 XIH d   1      40.335   3.419  13.125  0.00  0.00    -0.074 A 
ATOM      7  C23 XIH d   1      40.222   1.671  14.800  0.00  0.00     0.052 A 
ATOM      8  N25 XIH d   1      41.261   0.089  16.376  0.00  0.00    -0.191 NA
ATOM      9  H8  XIH d   1      38.465   4.253  12.456  0.00  0.00     0.083 H 
ATOM     10  H9  XIH d   1      37.120   2.800  13.952  0.00  0.00     0.083 H 
ATOM     11  H10 XIH d   1      38.225   1.160  15.428  0.00  0.00     0.085 H 
ATOM     12  H21 XIH d   1      40.930   4.056  12.480  0.00  0.00     0.084 H 
ENDROOT
BRANCH   5  13
ATOM     13  C17 XIH d   1      42.483   2.498  13.884  0.00  0.00     0.042 C 
ATOM     14  H6  XIH d   1      42.757   3.027  12.960  0.00  0.00     0.073 H 
ATOM     15  H7  XIH d   1      42.842   3.068  14.753  0.00  0.00     0.073 H 
BRANCH  13  16
ATOM     16  N16 XIH d   1      43.216   1.224  13.878  0.00  0.00    -0.168 N 
ATOM     17  C5  XIH d   1      43.144   0.176  13.024  0.00  0.00     0.167 A 
ATOM     18  C6  XIH d   1      44.136  -0.822  13.441  0.00  0.00     0.185 A 
ATOM     19  C3  XIH d   1      42.299  -0.153  11.842  0.00  0.00     0.282 A 
ATOM     20  N7  XIH d   1      44.767  -0.349  14.517  0.00  0.00    -0.044 NA
ATOM     21  N26 XIH d   1      44.325  -1.992  12.812  0.00  0.00    -0.285 N 
ATOM     22  C8  XIH d   1      44.202   0.864  14.734  0.00  0.00     0.707 A 
ATOM     23  C28 XIH d   1      43.515  -2.295  11.693  0.00  0.00     0.332 A 
ATOM     24  N   XIH d   1      42.523  -1.402  11.206  0.00  0.00    -0.269 N 
ATOM     25  O29 XIH d   1      43.696  -3.384  11.116  0.00  0.00    -0.246 OA
ATOM     26  O   XIH d   1      41.439   0.636  11.414  0.00  0.00    -0.265 OA
BRANCH  22  27
ATOM     27  N9  XIH d   1      44.721   1.597  15.792  0.00  0.00    -0.214 N 
ATOM     28  C10 XIH d   1      45.442   2.840  15.466  0.00  0.00     0.012 C 
ATOM     29  C11 XIH d   1      45.542   3.783  16.665  0.00  0.00    -0.048 C 
ATOM     30  H1  XIH d   1      44.909   3.356  14.654  0.00  0.00     0.065 H 
ATOM     31  H2  XIH d   1      46.458   2.583  15.132  0.00  0.00     0.065 H 
ATOM     32  C12 XIH d   1      45.826   3.048  17.972  0.00  0.00    -0.036 C 
ATOM     33  H14 XIH d   1      44.590   4.325  16.766  0.00  0.00     0.035 H 
ATOM     34  H15 XIH d   1      46.355   4.500  16.481  0.00  0.00     0.035 H 
ATOM     35  C13 XIH d   1      44.714   2.042  18.261  0.00  0.00     0.116 C 
ATOM     36  H16 XIH d   1      46.785   2.516  17.889  0.00  0.00     0.036 H 
ATOM     37  H17 XIH d   1      45.880   3.776  18.794  0.00  0.00     0.036 H 
ATOM     38  C15 XIH d   1      44.652   1.003  17.136  0.00  0.00     0.038 C 
ATOM     39  H3  XIH d   1      44.937   1.532  19.210  0.00  0.00     0.086 H 
ATOM     40  H4  XIH d   1      43.706   0.448  17.224  0.00  0.00     0.068 H 
ATOM     41  H5  XIH d   1      45.497   0.309  17.255  0.00  0.00     0.068 H 
BRANCH  35  42
ATOM     42  N14 XIH d   1      43.426   2.702  18.375  0.00  0.00    -0.073 N 
ATOM     43  H18 XIH d   1      42.713   2.016  18.565  0.00  0.00     0.274 HD
ATOM     44  H19 XIH d   1      43.214   3.176  17.511  0.00  0.00     0.274 HD
ATOM     45  H20 XIH d   1      43.457   3.372  19.128  0.00  0.00     0.274 HD
ENDBRANCH  35  42
ENDBRANCH  22  27
BRANCH  21  46
ATOM     46  C27 XIH d   1      45.333  -2.956  13.286  0.00  0.00    -0.008 C 
ATOM     47  H22 XIH d   1      45.856  -2.540  14.160  0.00  0.00     0.057 H 
ATOM     48  H23 XIH d   1      46.059  -3.152  12.483  0.00  0.00     0.057 H 
ATOM     49  H24 XIH d   1      44.837  -3.896  13.569  0.00  0.00     0.057 H 
ENDBRANCH  21  46
BRANCH  24  50
ATOM     50  C   XIH d   1      41.752  -1.816  10.022  0.00  0.00    -0.007 C 
ATOM     51  H11 XIH d   1      42.087  -2.812   9.696  0.00  0.00     0.057 H 
ATOM     52  H12 XIH d   1      41.910  -1.091   9.210  0.00  0.00     0.057 H 
ATOM     53  H13 XIH d   1      40.682  -1.855  10.276  0.00  0.00     0.057 H 
ENDBRANCH  24  50
ENDBRANCH  13  16
ENDBRANCH   5  13
TORSDOF 6
