REMARK  4 active torsions:
REMARK  status: ('A' for Active; 'I' for Inactive)
REMARK    1  A    between atoms: C14_13  and  C4_1 
REMARK    2  A    between atoms: C13_5  and  C3_11 
REMARK    3  A    between atoms: C19_16  and  C22_10 
REMARK       I    between atoms: C22_10  and  N25_19 
REMARK    4  A    between atoms: C18_15  and  C12_12 
ROOT
ATOM      1  C13 B49 d   1     -15.752  71.336 -36.595  0.00  0.00    -0.018 A 
ATOM      2  C14 B49 d   1     -13.806  70.966 -37.709  0.00  0.00     0.022 A 
ATOM      3  C18 B49 d   1     -15.288  72.553 -37.082  0.00  0.00     0.040 A 
ATOM      4  C19 B49 d   1     -14.808  70.319 -36.989  0.00  0.00     0.062 A 
ATOM      5  N23 B49 d   1     -14.126  72.302 -37.744  0.00  0.00    -0.359 N 
ATOM      6  H11 B49 d   1     -13.558  73.022 -38.212  0.00  0.00     0.166 HD
ENDROOT
BRANCH   3   7
ATOM      7  C12 B49 d   1     -15.845  73.861 -36.972  0.00  0.00    -0.041 C 
ATOM      8  C20 B49 d   1     -15.394  75.075 -37.360  0.00  0.00     0.047 A 
ATOM      9  C17 B49 d   1     -16.207  76.272 -37.131  0.00  0.00     0.009 A 
ATOM     10  C21 B49 d   1     -14.131  75.547 -38.050  0.00  0.00     0.257 A 
ATOM     11  C7  B49 d   1     -17.461  76.483 -36.545  0.00  0.00    -0.033 A 
ATOM     12  C16 B49 d   1     -15.474  77.362 -37.656  0.00  0.00     0.046 A 
ATOM     13  C15 B49 d   1     -17.958  77.808 -36.503  0.00  0.00     0.117 A 
ATOM     14  H6  B49 d   1     -18.033  75.658 -36.136  0.00  0.00     0.089 H 
ATOM     15  C5  B49 d   1     -17.220  78.912 -37.041  0.00  0.00    -0.043 A 
ATOM     16  F29 B49 d   1     -19.147  78.017 -35.944  0.00  0.00    -0.206 F 
ATOM     17  C6  B49 d   1     -15.949  78.688 -37.629  0.00  0.00    -0.053 A 
ATOM     18  H4  B49 d   1     -17.631  79.914 -36.999  0.00  0.00     0.088 H 
ATOM     19  H5  B49 d   1     -15.367  79.504 -38.041  0.00  0.00     0.087 H 
ATOM     20  N24 B49 d   1     -14.272  76.918 -38.180  0.00  0.00    -0.322 N 
ATOM     21  H12 B49 d   1     -13.589  77.515 -38.601  0.00  0.00     0.169 HD
ATOM     22  O27 B49 d   1     -13.194  74.889 -38.421  0.00  0.00    -0.267 OA
ATOM     23  H10 B49 d   1     -16.818  73.887 -36.483  0.00  0.00     0.088 H 
ENDBRANCH   3   7
BRANCH   1  24
ATOM     24  C3  B49 d   1     -17.005  71.109 -35.803  0.00  0.00    -0.048 C 
ATOM     25  H7  B49 d   1     -17.524  72.068 -35.655  0.00  0.00     0.033 H 
ATOM     26  H8  B49 d   1     -16.747  70.676 -34.825  0.00  0.00     0.033 H 
ATOM     27  H9  B49 d   1     -17.663  70.416 -36.348  0.00  0.00     0.033 H 
ENDBRANCH   1  24
BRANCH   4  28
ATOM     28  C22 B49 d   1     -14.904  68.882 -36.682  0.00  0.00     0.251 C 
ATOM     29  N25 B49 d   1     -15.265  68.579 -35.370  0.00  0.00    -0.366 N 
ATOM     30  H13 B49 d   1     -15.351  67.625 -35.083  0.00  0.00     0.159 HD
ATOM     31  H14 B49 d   1     -15.437  69.316 -34.716  0.00  0.00     0.159 HD
ATOM     32  O28 B49 d   1     -14.663  68.027 -37.535  0.00  0.00    -0.268 OA
ENDBRANCH   4  28
BRANCH   2  33
ATOM     33  C4  B49 d   1     -12.557  70.480 -38.384  0.00  0.00    -0.036 C 
ATOM     34  H1  B49 d   1     -12.036  71.331 -38.847  0.00  0.00     0.035 H 
ATOM     35  H2  B49 d   1     -12.821  69.746 -39.159  0.00  0.00     0.035 H 
ATOM     36  H3  B49 d   1     -11.899  70.007 -37.640  0.00  0.00     0.035 H 
ENDBRANCH   2  33
TORSDOF 4
