REMARK  4 active torsions:
REMARK  status: ('A' for Active; 'I' for Inactive)
REMARK    1  A    between atoms: C10_8  and  C9_9 
REMARK    2  A    between atoms: C9_9  and  N2_10 
REMARK    3  A    between atoms: C3_11  and  N18_18 
REMARK    4  A    between atoms: C22_20  and  N24_21 
ROOT
ATOM      1  N17 RUM d   1      40.813   0.495  16.414  0.00  0.00    -0.191 NA
ATOM      2  C16 RUM d   1      40.401   1.291  15.673  0.00  0.00     0.100 C 
ATOM      3  C15 RUM d   1      39.917   2.180  14.870  0.00  0.00     0.052 A 
ATOM      4  C14 RUM d   1      38.534   2.395  14.854  0.00  0.00    -0.062 A 
ATOM      5  C13 RUM d   1      37.974   3.367  14.009  0.00  0.00    -0.082 A 
ATOM      6  C12 RUM d   1      38.773   4.123  13.151  0.00  0.00    -0.082 A 
ATOM      7  C11 RUM d   1      40.158   3.930  13.118  0.00  0.00    -0.074 A 
ATOM      8  C10 RUM d   1      40.778   2.986  13.943  0.00  0.00    -0.018 A 
ATOM      9  H1  RUM d   1      37.891   1.807  15.498  0.00  0.00     0.085 H 
ATOM     10  H2  RUM d   1      36.903   3.533  14.024  0.00  0.00     0.083 H 
ATOM     11  H3  RUM d   1      38.317   4.865  12.505  0.00  0.00     0.083 H 
ATOM     12  H4  RUM d   1      40.762   4.523  12.441  0.00  0.00     0.084 H 
ENDROOT
BRANCH   8  13
ATOM     13  C9  RUM d   1      42.285   2.853  13.875  0.00  0.00     0.045 C 
ATOM     14  H5  RUM d   1      42.712   3.253  14.806  0.00  0.00     0.073 H 
ATOM     15  H6  RUM d   1      42.649   3.444  13.021  0.00  0.00     0.073 H 
BRANCH  13  16
ATOM     16  N2  RUM d   1      42.744   1.464  13.710  0.00  0.00    -0.142 N 
ATOM     17  C3  RUM d   1      43.660   0.834  14.625  0.00  0.00     0.685 A 
ATOM     18  N4  RUM d   1      44.064  -0.444  14.407  0.00  0.00    -0.200 N 
ATOM     19  C5  RUM d   1      43.639  -1.197  13.373  0.00  0.00     0.017 A 
ATOM     20  H7  RUM d   1      44.733  -0.862  15.069  0.00  0.00     0.183 HD
ATOM     21  C6  RUM d   1      42.736  -0.677  12.446  0.00  0.00     0.095 A 
ATOM     22  H8  RUM d   1      44.003  -2.217  13.261  0.00  0.00     0.114 H 
ATOM     23 BR7  RUM d   1      42.094  -1.644  10.943  0.00  0.00    -0.044 Br
ATOM     24  C1  RUM d   1      42.265   0.712  12.609  0.00  0.00     0.281 A 
ATOM     25  O8  RUM d   1      41.464   1.152  11.754  0.00  0.00    -0.266 OA
BRANCH  17  26
ATOM     26  N18 RUM d   1      44.256   1.500  15.716  0.00  0.00    -0.215 N 
ATOM     27  C23 RUM d   1      44.228   0.959  17.086  0.00  0.00     0.038 C 
ATOM     28  C22 RUM d   1      44.461   2.074  18.123  0.00  0.00     0.116 C 
ATOM     29  H9  RUM d   1      45.018   0.200  17.190  0.00  0.00     0.068 H 
ATOM     30  H10 RUM d   1      43.248   0.495  17.270  0.00  0.00     0.068 H 
ATOM     31  C21 RUM d   1      45.634   2.973  17.733  0.00  0.00    -0.036 C 
ATOM     32  H11 RUM d   1      44.677   1.610  19.097  0.00  0.00     0.086 H 
ATOM     33  C20 RUM d   1      45.249   3.692  16.449  0.00  0.00    -0.048 C 
ATOM     34  H15 RUM d   1      46.535   2.365  17.567  0.00  0.00     0.036 H 
ATOM     35  H16 RUM d   1      45.828   3.705  18.530  0.00  0.00     0.036 H 
ATOM     36  C19 RUM d   1      45.000   2.707  15.312  0.00  0.00     0.012 C 
ATOM     37  H17 RUM d   1      46.065   4.372  16.161  0.00  0.00     0.035 H 
ATOM     38  H18 RUM d   1      44.332   4.274  16.626  0.00  0.00     0.035 H 
ATOM     39  H19 RUM d   1      44.425   3.222  14.528  0.00  0.00     0.065 H 
ATOM     40  H20 RUM d   1      45.973   2.394  14.906  0.00  0.00     0.065 H 
BRANCH  28  41
ATOM     41  N24 RUM d   1      43.274   2.891  18.236  0.00  0.00    -0.073 N 
ATOM     42  H12 RUM d   1      43.431   3.619  18.915  0.00  0.00     0.274 HD
ATOM     43  H13 RUM d   1      42.499   2.318  18.530  0.00  0.00     0.274 HD
ATOM     44  H14 RUM d   1      43.065   3.306  17.341  0.00  0.00     0.274 HD
ENDBRANCH  28  41
ENDBRANCH  17  26
ENDBRANCH  13  16
ENDBRANCH   8  13
TORSDOF 4
