REMARK  9 active torsions:
REMARK  status: ('A' for Active; 'I' for Inactive)
REMARK    1  A    between atoms: NAA_2  and  CBA_3 
REMARK    2  A    between atoms: NAA_2  and  CBB_4 
REMARK    3  A    between atoms: CAD_8  and  OBC_9 
REMARK    4  A    between atoms: CAD_8  and  CAG_10 
REMARK    5  A    between atoms: CAJ_15  and  CAM_16 
REMARK    6  A    between atoms: CAP_21  and  CAS_22 
REMARK    7  A    between atoms: CAS_22  and  OBD_23 
REMARK    8  A    between atoms: NAW_28  and  CAZ_29 
REMARK    9  A    between atoms: NAW_28  and  CAY_30 
ROOT
ATOM      1  CAG HC6 d   1     -11.219 -15.225   5.550  0.00  0.00     0.005 A 
ATOM      2  CAL HC6 d   1     -10.525 -16.378   5.966  0.00  0.00    -0.071 A 
ATOM      3  CAK HC6 d   1     -10.995 -17.192   7.018  0.00  0.00    -0.071 A 
ATOM      4  CAH HC6 d   1     -12.395 -14.912   6.244  0.00  0.00    -0.071 A 
ATOM      5  CAI HC6 d   1     -12.878 -15.721   7.290  0.00  0.00    -0.071 A 
ATOM      6  CAJ HC6 d   1     -12.194 -16.877   7.674  0.00  0.00    -0.026 A 
ATOM      7  H   HC6 d   1      -9.598 -16.649   5.460  0.00  0.00     0.084 H 
ATOM      8  H   HC6 d   1     -10.424 -18.069   7.322  0.00  0.00     0.084 H 
ATOM      9  H   HC6 d   1     -12.952 -14.017   5.966  0.00  0.00     0.084 H 
ATOM     10  H   HC6 d   1     -13.796 -15.442   7.806  0.00  0.00     0.084 H 
ENDROOT
BRANCH   6  11
ATOM     11  CAM HC6 d   1     -12.684 -17.644   8.761  0.00  0.00    -0.026 A 
ATOM     12  CAR HC6 d   1     -11.793 -18.238   9.656  0.00  0.00    -0.071 A 
ATOM     13  CAQ HC6 d   1     -12.218 -18.958  10.766  0.00  0.00    -0.071 A 
ATOM     14  H   HC6 d   1     -10.723 -18.133   9.477  0.00  0.00     0.084 H 
ATOM     15  CAP HC6 d   1     -13.581 -19.142  11.019  0.00  0.00     0.005 A 
ATOM     16  H   HC6 d   1     -11.481 -19.384  11.447  0.00  0.00     0.084 H 
ATOM     17  CAO HC6 d   1     -14.485 -18.538  10.116  0.00  0.00    -0.071 A 
ATOM     18  CAN HC6 d   1     -14.037 -17.804   9.002  0.00  0.00    -0.071 A 
ATOM     19  H   HC6 d   1     -15.556 -18.643  10.287  0.00  0.00     0.084 H 
ATOM     20  H   HC6 d   1     -14.763 -17.357   8.322  0.00  0.00     0.084 H 
BRANCH  15  21
ATOM     21  CAS HC6 d   1     -14.032 -19.914  12.185  0.00  0.00     0.215 C 
ATOM     22  CAX HC6 d   1     -14.242 -21.380  11.813  0.00  0.00     0.140 C 
ATOM     23  NAW HC6 d   1     -14.655 -22.231  12.945  0.00  0.00    -0.067 N 
ATOM     24  H   HC6 d   1     -13.287 -21.762  11.451  0.00  0.00     0.085 H 
ATOM     25  H   HC6 d   1     -15.041 -21.415  11.073  0.00  0.00     0.085 H 
ATOM     26  CAV HC6 d   1     -13.633 -22.121  13.994  0.00  0.00     0.104 C 
ATOM     27  CAU HC6 d   1     -13.463 -20.687  14.406  0.00  0.00     0.046 C 
ATOM     28  H   HC6 d   1     -13.946 -22.706  14.859  0.00  0.00     0.079 H 
ATOM     29  H   HC6 d   1     -12.685 -22.496  13.608  0.00  0.00     0.079 H 
ATOM     30  OAT HC6 d   1     -13.050 -19.821  13.291  0.00  0.00    -0.348 OA
ATOM     31  H   HC6 d   1     -14.425 -20.327  14.771  0.00  0.00     0.077 H 
ATOM     32  H   HC6 d   1     -12.683 -20.648  15.167  0.00  0.00     0.077 H 
BRANCH  21  33
ATOM     33  OBD HC6 d   1     -15.290 -19.425  12.682  0.00  0.00    -0.360 OA
ATOM     34  H   HC6 d   1     -15.948 -19.473  11.985  0.00  0.00     0.213 HD
ENDBRANCH  21  33
BRANCH  23  35
ATOM     35  CAZ HC6 d   1     -15.974 -21.839  13.505  0.00  0.00     0.068 C 
ATOM     36  H   HC6 d   1     -15.925 -20.810  13.861  0.00  0.00     0.068 H 
ATOM     37  H   HC6 d   1     -16.735 -21.921  12.729  0.00  0.00     0.068 H 
ATOM     38  H   HC6 d   1     -16.226 -22.500  14.335  0.00  0.00     0.068 H 
ENDBRANCH  23  35
BRANCH  23  39
ATOM     39  CAY HC6 d   1     -14.673 -23.626  12.471  0.00  0.00     0.068 C 
ATOM     40  H   HC6 d   1     -15.380 -23.719  11.647  0.00  0.00     0.068 H 
ATOM     41  H   HC6 d   1     -13.676 -23.905  12.129  0.00  0.00     0.068 H 
ATOM     42  H   HC6 d   1     -14.975 -24.282  13.287  0.00  0.00     0.068 H 
ENDBRANCH  23  39
ENDBRANCH  15  21
ENDBRANCH   6  11
BRANCH   1  43
ATOM     43  CAD HC6 d   1     -10.719 -14.355   4.463  0.00  0.00     0.215 C 
ATOM     44  CAC HC6 d   1      -9.953 -13.176   5.113  0.00  0.00     0.140 C 
ATOM     45  NAA HC6 d   1      -9.273 -12.306   4.116  0.00  0.00    -0.067 N 
ATOM     46  H   HC6 d   1     -10.678 -12.564   5.649  0.00  0.00     0.085 H 
ATOM     47  H   HC6 d   1      -9.187 -13.596   5.765  0.00  0.00     0.085 H 
ATOM     48  CAB HC6 d   1      -8.401 -13.122   3.286  0.00  0.00     0.104 C 
ATOM     49  CAF HC6 d   1      -9.205 -14.195   2.572  0.00  0.00     0.046 C 
ATOM     50  H   HC6 d   1      -7.653 -13.600   3.918  0.00  0.00     0.079 H 
ATOM     51  H   HC6 d   1      -7.919 -12.486   2.544  0.00  0.00     0.079 H 
ATOM     52  OAE HC6 d   1      -9.871 -15.086   3.547  0.00  0.00    -0.348 OA
ATOM     53  H   HC6 d   1      -8.530 -14.789   1.956  0.00  0.00     0.077 H 
ATOM     54  H   HC6 d   1      -9.966 -13.714   1.957  0.00  0.00     0.077 H 
BRANCH  45  55
ATOM     55  CBA HC6 d   1     -10.214 -11.605   3.202  0.00  0.00     0.068 C 
ATOM     56  H   HC6 d   1      -9.649 -10.982   2.508  0.00  0.00     0.068 H 
ATOM     57  H   HC6 d   1     -10.792 -12.341   2.643  0.00  0.00     0.068 H 
ATOM     58  H   HC6 d   1     -10.888 -10.980   3.787  0.00  0.00     0.068 H 
ENDBRANCH  45  55
BRANCH  45  59
ATOM     59  CBB HC6 d   1      -8.470 -11.378   4.925  0.00  0.00     0.068 C 
ATOM     60  H   HC6 d   1      -7.794 -11.946   5.564  0.00  0.00     0.068 H 
ATOM     61  H   HC6 d   1      -7.891 -10.731   4.266  0.00  0.00     0.068 H 
ATOM     62  H   HC6 d   1      -9.132 -10.771   5.543  0.00  0.00     0.068 H 
ENDBRANCH  45  59
BRANCH  43  63
ATOM     63  OBC HC6 d   1     -11.750 -13.738   3.676  0.00  0.00    -0.360 OA
ATOM     64  H   HC6 d   1     -12.250 -14.417   3.217  0.00  0.00     0.213 HD
ENDBRANCH  43  63
ENDBRANCH   1  43
TORSDOF 9
