REMARK  4 active torsions:
REMARK  status: ('A' for Active; 'I' for Inactive)
REMARK    1  A    between atoms: C01_5  and  C02_6 
REMARK    2  A    between atoms: C02_6  and  C05_7 
REMARK       I    between atoms: C05_7  and  N06_9 
REMARK    3  A    between atoms: C14_14  and  C22_15 
REMARK    4  A    between atoms: C25_19  and  C27_20 
ROOT
ATOM      1  C05 RF3 d   1      32.029  74.371  10.320  0.00  0.00     0.224 C 
ATOM      2  O07 RF3 d   1      32.256  74.487   9.157  0.00  0.00    -0.273 OA
ATOM      3  N06 RF3 d   1      32.396  73.297  11.009  0.00  0.00    -0.352 N 
ATOM      4  C19 RF3 d   1      32.101  73.205  12.459  0.00  0.00    -0.002 C 
ATOM      5  C16 RF3 d   1      32.090  71.775  13.005  0.00  0.00    -0.040 C 
ATOM      6  C08 RF3 d   1      33.268  72.277  10.359  0.00  0.00    -0.002 C 
ATOM      7  C11 RF3 d   1      33.196  70.912  10.961  0.00  0.00    -0.040 C 
ATOM      8  C14 RF3 d   1      33.264  70.964  12.461  0.00  0.00     0.015 C 
ATOM      9  H6  RF3 d   1      31.112  73.651  12.639  0.00  0.00     0.064 H 
ATOM     10  H7  RF3 d   1      32.866  73.777  13.004  0.00  0.00     0.064 H 
ATOM     11  H8  RF3 d   1      31.150  71.286  12.710  0.00  0.00     0.036 H 
ATOM     12  H9  RF3 d   1      32.157  71.810  14.102  0.00  0.00     0.036 H 
ATOM     13  H10 RF3 d   1      34.309  72.625  10.426  0.00  0.00     0.064 H 
ATOM     14  H11 RF3 d   1      32.974  72.200   9.302  0.00  0.00     0.064 H 
ATOM     15  H12 RF3 d   1      34.038  70.312  10.586  0.00  0.00     0.036 H 
ATOM     16  H13 RF3 d   1      32.248  70.440  10.663  0.00  0.00     0.036 H 
ATOM     17  H14 RF3 d   1      34.199  71.462  12.759  0.00  0.00     0.053 H 
ENDROOT
BRANCH   8  18
ATOM     18  C22 RF3 d   1      33.273  69.531  13.021  0.00  0.00     0.177 A 
ATOM     19  N26 RF3 d   1      33.118  68.427  12.374  0.00  0.00    -0.203 NA
ATOM     20  C25 RF3 d   1      33.159  67.429  13.247  0.00  0.00     0.196 A 
ATOM     21  N24 RF3 d   1      33.326  67.936  14.419  0.00  0.00    -0.105 NA
ATOM     22  O23 RF3 d   1      33.390  69.276  14.283  0.00  0.00    -0.195 OA
BRANCH  20  23
ATOM     23  C27 RF3 d   1      33.016  66.079  12.943  0.00  0.00     0.054 A 
ATOM     24  C28 RF3 d   1      32.699  65.009  13.700  0.00  0.00    -0.062 A 
ATOM     25  C30 RF3 d   1      32.632  63.887  13.005  0.00  0.00    -0.075 A 
ATOM     26  H15 RF3 d   1      32.517  65.064  14.772  0.00  0.00     0.085 H 
ATOM     27  C32 RF3 d   1      32.864  63.975  11.694  0.00  0.00    -0.044 A 
ATOM     28  H16 RF3 d   1      32.398  62.935  13.480  0.00  0.00     0.084 H 
ATOM     29  S34 RF3 d   1      33.196  65.600  11.395  0.00  0.00    -0.098 SA
ATOM     30  H17 RF3 d   1      32.843  63.164  10.967  0.00  0.00     0.095 H 
ENDBRANCH  20  23
ENDBRANCH   8  18
BRANCH   1  31
ATOM     31  C02 RF3 d   1      31.178  75.419  11.061  0.00  0.00     0.039 C 
ATOM     32  H4  RF3 d   1      30.196  74.966  11.263  0.00  0.00     0.055 H 
ATOM     33  H5  RF3 d   1      31.682  75.642  12.013  0.00  0.00     0.055 H 
BRANCH  31  34
ATOM     34  C01 RF3 d   1      30.934  76.743  10.350  0.00  0.00    -0.009 A 
ATOM     35  C40 RF3 d   1      30.870  77.955  10.870  0.00  0.00    -0.069 A 
ATOM     36  C38 RF3 d   1      30.571  78.932   9.994  0.00  0.00    -0.076 A 
ATOM     37  H1  RF3 d   1      31.046  78.149  11.927  0.00  0.00     0.085 H 
ATOM     38  C36 RF3 d   1      30.385  78.536   8.746  0.00  0.00    -0.045 A 
ATOM     39  H2  RF3 d   1      30.488  79.976  10.292  0.00  0.00     0.084 H 
ATOM     40  S35 RF3 d   1      30.595  76.881   8.639  0.00  0.00    -0.106 SA
ATOM     41  H3  RF3 d   1      30.133  79.190   7.913  0.00  0.00     0.095 H 
ENDBRANCH  31  34
ENDBRANCH   1  31
TORSDOF 4
