REMARK  7 active torsions:
REMARK  status: ('A' for Active; 'I' for Inactive)
REMARK    1  A    between atoms: C9_6  and  C8_7 
REMARK    2  A    between atoms: N1_11  and  C1_12 
REMARK    3  A    between atoms: C5_14  and  C6_15 
REMARK    4  A    between atoms: C6_15  and  O6_16 
REMARK    5  A    between atoms: C4_17  and  O4_18 
REMARK    6  A    between atoms: C3_19  and  O3_20 
REMARK    7  A    between atoms: C2_21  and  O2_22 
ROOT
ATOM      1  C1  KOT d   1      32.690  22.676  27.770  0.00  0.00     0.154 C 
ATOM      2  O5  KOT d   1      32.750  21.256  27.994  0.00  0.00    -0.352 OA
ATOM      3  C5  KOT d   1      31.702  20.601  27.251  0.00  0.00     0.088 C 
ATOM      4  C4  KOT d   1      31.911  20.780  25.733  0.00  0.00     0.089 C 
ATOM      5  C3  KOT d   1      32.108  22.263  25.377  0.00  0.00     0.091 C 
ATOM      6  C2  KOT d   1      33.123  22.926  26.319  0.00  0.00     0.106 C 
ATOM      7  H7  KOT d   1      31.654  23.029  27.880  0.00  0.00     0.125 H 
ATOM      8  H8  KOT d   1      30.739  21.063  27.513  0.00  0.00     0.090 H 
ATOM      9  H12 KOT d   1      32.790  20.202  25.412  0.00  0.00     0.091 H 
ATOM     10  H14 KOT d   1      31.143  22.779  25.486  0.00  0.00     0.091 H 
ATOM     11  H16 KOT d   1      34.118  22.488  26.153  0.00  0.00     0.094 H 
ENDROOT
BRANCH   1  12
ATOM     12  N1  KOT d   1      33.496  23.311  28.815  0.00  0.00    -0.228 N 
ATOM     13  C7  KOT d   1      34.817  23.327  28.959  0.00  0.00     0.033 A 
ATOM     14  C8  KOT d   1      35.021  24.016  30.076  0.00  0.00     0.108 A 
ATOM     15  H6  KOT d   1      35.564  22.876  28.308  0.00  0.00     0.118 H 
ATOM     16  N3  KOT d   1      33.817  24.337  30.533  0.00  0.00    -0.130 NA
ATOM     17  N2  KOT d   1      32.958  23.897  29.757  0.00  0.00    -0.063 NA
BRANCH  14  18
ATOM     18  C9  KOT d   1      36.239  24.333  30.669  0.00  0.00    -0.004 A 
ATOM     19  C14 KOT d   1      37.357  23.539  30.435  0.00  0.00    -0.071 A 
ATOM     20  C13 KOT d   1      38.577  23.862  31.031  0.00  0.00    -0.082 A 
ATOM     21  H1  KOT d   1      37.281  22.671  29.791  0.00  0.00     0.084 H 
ATOM     22  C12 KOT d   1      38.673  24.976  31.862  0.00  0.00    -0.083 A 
ATOM     23  H2  KOT d   1      39.450  23.246  30.847  0.00  0.00     0.083 H 
ATOM     24  C11 KOT d   1      37.559  25.771  32.104  0.00  0.00    -0.082 A 
ATOM     25  H3  KOT d   1      39.622  25.224  32.323  0.00  0.00     0.083 H 
ATOM     26  C10 KOT d   1      36.339  25.452  31.503  0.00  0.00    -0.071 A 
ATOM     27  H4  KOT d   1      37.636  26.634  32.755  0.00  0.00     0.083 H 
ATOM     28  H5  KOT d   1      35.468  26.072  31.683  0.00  0.00     0.084 H 
ENDBRANCH  14  18
ENDBRANCH   1  12
BRANCH   6  29
ATOM     29  O2  KOT d   1      33.177  24.324  26.063  0.00  0.00    -0.388 OA
ATOM     30  H17 KOT d   1      32.319  24.705  26.207  0.00  0.00     0.210 HD
ENDBRANCH   6  29
BRANCH   3  31
ATOM     31  C6  KOT d   1      31.666  19.138  27.685  0.00  0.00     0.043 C 
ATOM     32  H9  KOT d   1      30.726  18.674  27.352  0.00  0.00     0.078 H 
ATOM     33  H10 KOT d   1      31.739  19.073  28.781  0.00  0.00     0.078 H 
BRANCH  31  34
ATOM     34  O6  KOT d   1      32.772  18.466  27.088  0.00  0.00    -0.398 OA
ATOM     35  H11 KOT d   1      33.581  18.872  27.377  0.00  0.00     0.209 HD
ENDBRANCH  31  34
ENDBRANCH   3  31
BRANCH   5  36
ATOM     36  O3  KOT d   1      32.542  22.387  24.026  0.00  0.00    -0.390 OA
ATOM     37  H15 KOT d   1      32.661  23.306  23.816  0.00  0.00     0.210 HD
ENDBRANCH   5  36
BRANCH   4  38
ATOM     38  O4  KOT d   1      30.745  20.319  25.055  0.00  0.00    -0.390 OA
ATOM     39  H13 KOT d   1      29.993  20.825  25.340  0.00  0.00     0.210 HD
ENDBRANCH   4  38
TORSDOF 7
