REMARK  8 active torsions:
REMARK  status: ('A' for Active; 'I' for Inactive)
REMARK    1  A    between atoms: O2_1  and  C2_2 
REMARK    2  A    between atoms: C3_3  and  O3_4 
REMARK    3  A    between atoms: C4_5  and  O4_6 
REMARK    4  A    between atoms: C5_7  and  C6_8 
REMARK    5  A    between atoms: C6_8  and  O6_9 
REMARK    6  A    between atoms: C1_11  and  N1_12 
REMARK    7  A    between atoms: C8_16  and  C9_17 
REMARK    8  A    between atoms: C9_17  and  O9_18 
ROOT
ATOM      1  C2  RUG d   1      33.529  23.025  26.203  0.00  0.00     0.106 C 
ATOM      2  C3  RUG d   1      32.405  22.427  25.334  0.00  0.00     0.091 C 
ATOM      3  C4  RUG d   1      32.173  20.963  25.718  0.00  0.00     0.089 C 
ATOM      4  C5  RUG d   1      31.977  20.811  27.238  0.00  0.00     0.088 C 
ATOM      5  O5  RUG d   1      33.126  21.371  27.909  0.00  0.00    -0.352 OA
ATOM      6  C1  RUG d   1      33.203  22.810  27.697  0.00  0.00     0.154 C 
ATOM      7  H2  RUG d   1      34.464  22.494  25.972  0.00  0.00     0.094 H 
ATOM      8  H3  RUG d   1      31.480  22.999  25.503  0.00  0.00     0.091 H 
ATOM      9  H5  RUG d   1      33.044  20.366  25.409  0.00  0.00     0.091 H 
ATOM     10  H7  RUG d   1      31.073  21.364  27.534  0.00  0.00     0.090 H 
ATOM     11  H11 RUG d   1      32.244  23.293  27.935  0.00  0.00     0.125 H 
ENDROOT
BRANCH   6  12
ATOM     12  N1  RUG d   1      34.247  23.315  28.608  0.00  0.00    -0.229 N 
ATOM     13  C7  RUG d   1      35.570  23.216  28.475  0.00  0.00     0.031 A 
ATOM     14  C8  RUG d   1      36.062  23.800  29.555  0.00  0.00     0.099 A 
ATOM     15  H12 RUG d   1      36.123  22.756  27.658  0.00  0.00     0.117 H 
ATOM     16  N3  RUG d   1      35.010  24.202  30.269  0.00  0.00    -0.133 NA
ATOM     17  N2  RUG d   1      33.972  23.885  29.671  0.00  0.00    -0.064 NA
BRANCH  14  18
ATOM     18  C9  RUG d   1      37.538  23.979  29.905  0.00  0.00     0.059 C 
ATOM     19  H13 RUG d   1      37.922  24.887  29.416  0.00  0.00     0.083 H 
ATOM     20  H14 RUG d   1      38.105  23.105  29.553  0.00  0.00     0.083 H 
BRANCH  18  21
ATOM     21  O9  RUG d   1      37.689  24.103  31.321  0.00  0.00    -0.395 OA
ATOM     22  H15 RUG d   1      38.609  24.214  31.532  0.00  0.00     0.209 HD
ENDBRANCH  18  21
ENDBRANCH  14  18
ENDBRANCH   6  12
BRANCH   1  23
ATOM     23  O2  RUG d   1      33.725  24.413  25.916  0.00  0.00    -0.388 OA
ATOM     24  H1  RUG d   1      32.921  24.888  26.091  0.00  0.00     0.210 HD
ENDBRANCH   1  23
BRANCH   2  25
ATOM     25  O3  RUG d   1      32.748  22.490  23.951  0.00  0.00    -0.390 OA
ATOM     26  H4  RUG d   1      32.881  23.396  23.700  0.00  0.00     0.210 HD
ENDBRANCH   2  25
BRANCH   4  27
ATOM     27  C6  RUG d   1      31.823  19.354  27.670  0.00  0.00     0.043 C 
ATOM     28  H8  RUG d   1      30.857  18.966  27.314  0.00  0.00     0.078 H 
ATOM     29  H9  RUG d   1      31.861  19.291  28.768  0.00  0.00     0.078 H 
BRANCH  27  30
ATOM     30  O6  RUG d   1      32.884  18.575  27.112  0.00  0.00    -0.398 OA
ATOM     31  H10 RUG d   1      33.718  18.910  27.421  0.00  0.00     0.209 HD
ENDBRANCH  27  30
ENDBRANCH   4  27
BRANCH   3  32
ATOM     32  O4  RUG d   1      31.018  20.499  25.041  0.00  0.00    -0.390 OA
ATOM     33  H6  RUG d   1      30.269  21.025  25.297  0.00  0.00     0.210 HD
ENDBRANCH   3  32
TORSDOF 8
