REMARK  8 active torsions:
REMARK  status: ('A' for Active; 'I' for Inactive)
REMARK    1  A    between atoms: O2_1  and  C2_2 
REMARK    2  A    between atoms: C3_3  and  O3_4 
REMARK    3  A    between atoms: C4_5  and  O4_6 
REMARK    4  A    between atoms: C5_7  and  C6_8 
REMARK    5  A    between atoms: C6_8  and  O6_9 
REMARK    6  A    between atoms: C1_11  and  N1_12 
REMARK       I    between atoms: N1_12  and  C7_13 
REMARK    7  A    between atoms: C7_13  and  C9_15 
REMARK    8  A    between atoms: C9_15  and  O9_16 
ROOT
ATOM      1  C2  9GP d   1      33.563  22.915  26.130  0.00  0.00     0.104 C 
ATOM      2  C3  9GP d   1      32.359  22.371  25.336  0.00  0.00     0.091 C 
ATOM      3  C4  9GP d   1      32.102  20.905  25.712  0.00  0.00     0.089 C 
ATOM      4  C5  9GP d   1      31.948  20.738  27.238  0.00  0.00     0.088 C 
ATOM      5  O5  9GP d   1      33.132  21.219  27.901  0.00  0.00    -0.354 OA
ATOM      6  C1  9GP d   1      33.407  22.632  27.637  0.00  0.00     0.133 C 
ATOM      7  H2  9GP d   1      34.464  22.392  25.776  0.00  0.00     0.093 H 
ATOM      8  H3  9GP d   1      31.468  22.968  25.582  0.00  0.00     0.091 H 
ATOM      9  H5  9GP d   1      32.956  20.298  25.378  0.00  0.00     0.091 H 
ATOM     10  H7  9GP d   1      31.072  21.314  27.570  0.00  0.00     0.090 H 
ATOM     11  H11 9GP d   1      32.574  23.233  28.031  0.00  0.00     0.122 H 
ENDROOT
BRANCH   6  12
ATOM     12  N1  9GP d   1      34.671  23.032  28.312  0.00  0.00    -0.330 N 
ATOM     13  C7  9GP d   1      34.611  23.621  29.504  0.00  0.00     0.243 C 
ATOM     14  O7  9GP d   1      33.560  23.851  30.094  0.00  0.00    -0.271 OA
ATOM     15  H12 9GP d   1      35.554  22.860  27.876  0.00  0.00     0.165 HD
BRANCH  13  16
ATOM     16  C9  9GP d   1      35.954  24.012  30.124  0.00  0.00     0.090 C 
ATOM     17  H13 9GP d   1      35.918  23.813  31.205  0.00  0.00     0.088 H 
ATOM     18  H14 9GP d   1      36.125  25.085  29.954  0.00  0.00     0.088 H 
BRANCH  16  19
ATOM     19  O9  9GP d   1      37.035  23.277  29.555  0.00  0.00    -0.392 OA
ATOM     20  H15 9GP d   1      36.897  22.349  29.702  0.00  0.00     0.210 HD
ENDBRANCH  16  19
ENDBRANCH  13  16
ENDBRANCH   6  12
BRANCH   1  21
ATOM     21  O2  9GP d   1      33.750  24.317  25.906  0.00  0.00    -0.389 OA
ATOM     22  H1  9GP d   1      33.905  24.471  24.981  0.00  0.00     0.210 HD
ENDBRANCH   1  21
BRANCH   2  23
ATOM     23  O3  9GP d   1      32.614  22.467  23.931  0.00  0.00    -0.390 OA
ATOM     24  H4  9GP d   1      32.757  23.377  23.698  0.00  0.00     0.210 HD
ENDBRANCH   2  23
BRANCH   4  25
ATOM     25  C6  9GP d   1      31.780  19.265  27.659  0.00  0.00     0.043 C 
ATOM     26  H8  9GP d   1      30.834  18.877  27.255  0.00  0.00     0.078 H 
ATOM     27  H9  9GP d   1      31.764  19.200  28.757  0.00  0.00     0.078 H 
BRANCH  25  28
ATOM     28  O6  9GP d   1      32.867  18.482  27.154  0.00  0.00    -0.398 OA
ATOM     29  H10 9GP d   1      33.685  18.815  27.503  0.00  0.00     0.209 HD
ENDBRANCH  25  28
ENDBRANCH   4  25
BRANCH   3  30
ATOM     30  O4  9GP d   1      30.930  20.457  25.050  0.00  0.00    -0.390 OA
ATOM     31  H6  9GP d   1      30.192  20.991  25.319  0.00  0.00     0.210 HD
ENDBRANCH   3  30
TORSDOF 8
