REMARK  7 active torsions:
REMARK  status: ('A' for Active; 'I' for Inactive)
REMARK    1  A    between atoms: C9_10  and  C8_11 
REMARK    2  A    between atoms: N1_15  and  C1_16 
REMARK    3  A    between atoms: C5_18  and  C6_19 
REMARK    4  A    between atoms: C6_19  and  O6_20 
REMARK    5  A    between atoms: C4_21  and  O4_22 
REMARK    6  A    between atoms: C3_23  and  O3_24 
REMARK    7  A    between atoms: C2_25  and  O2_26 
ROOT
ATOM      1  C8  SKY d   1      35.300  24.349  30.518  0.00  0.00     0.108 A 
ATOM      2  C7  SKY d   1      35.211  23.679  29.361  0.00  0.00     0.033 A 
ATOM      3  N3  SKY d   1      34.038  24.574  30.891  0.00  0.00    -0.130 NA
ATOM      4  N2  SKY d   1      33.266  24.101  30.052  0.00  0.00    -0.063 NA
ATOM      5  N1  SKY d   1      33.899  23.574  29.130  0.00  0.00    -0.228 N 
ATOM      6  H8  SKY d   1      36.027  23.303  28.745  0.00  0.00     0.118 H 
ENDROOT
BRANCH   5   7
ATOM      7  C1  SKY d   1      33.166  22.923  28.019  0.00  0.00     0.154 C 
ATOM      8  O5  SKY d   1      33.214  21.489  28.264  0.00  0.00    -0.352 OA
ATOM      9  C5  SKY d   1      32.155  20.841  27.514  0.00  0.00     0.088 C 
ATOM     10  C4  SKY d   1      32.368  21.009  25.982  0.00  0.00     0.089 C 
ATOM     11  H10 SKY d   1      31.195  21.312  27.773  0.00  0.00     0.090 H 
ATOM     12  C3  SKY d   1      32.663  22.474  25.585  0.00  0.00     0.091 C 
ATOM     13  H14 SKY d   1      33.224  20.388  25.679  0.00  0.00     0.091 H 
ATOM     14  C2  SKY d   1      33.658  23.129  26.573  0.00  0.00     0.106 C 
ATOM     15  H16 SKY d   1      31.721  23.040  25.620  0.00  0.00     0.091 H 
ATOM     16  H18 SKY d   1      34.635  22.636  26.460  0.00  0.00     0.094 H 
ATOM     17  H9  SKY d   1      32.125  23.275  28.065  0.00  0.00     0.125 H 
BRANCH   9  18
ATOM     18  C6  SKY d   1      32.112  19.373  27.956  0.00  0.00     0.043 C 
ATOM     19  H11 SKY d   1      31.211  18.895  27.544  0.00  0.00     0.078 H 
ATOM     20  H12 SKY d   1      32.083  19.324  29.055  0.00  0.00     0.078 H 
BRANCH  18  21
ATOM     21  O6  SKY d   1      33.276  18.684  27.480  0.00  0.00    -0.398 OA
ATOM     22  H13 SKY d   1      34.054  19.096  27.837  0.00  0.00     0.209 HD
ENDBRANCH  18  21
ENDBRANCH   9  18
BRANCH  10  23
ATOM     23  O4  SKY d   1      31.201  20.558  25.298  0.00  0.00    -0.390 OA
ATOM     24  H15 SKY d   1      30.453  21.074  25.576  0.00  0.00     0.210 HD
ENDBRANCH  10  23
BRANCH  12  25
ATOM     25  O3  SKY d   1      33.171  22.520  24.243  0.00  0.00    -0.390 OA
ATOM     26  H17 SKY d   1      33.350  23.422  24.004  0.00  0.00     0.210 HD
ENDBRANCH  12  25
BRANCH  14  27
ATOM     27  O2  SKY d   1      33.824  24.524  26.301  0.00  0.00    -0.388 OA
ATOM     28  H19 SKY d   1      34.157  24.636  25.419  0.00  0.00     0.210 HD
ENDBRANCH  14  27
ENDBRANCH   5   7
BRANCH   1  29
ATOM     29  C9  SKY d   1      36.443  24.746  31.228  0.00  0.00    -0.003 A 
ATOM     30  C10 SKY d   1      36.306  25.351  32.486  0.00  0.00    -0.060 A 
ATOM     31  C11 SKY d   1      37.431  25.757  33.212  0.00  0.00    -0.025 A 
ATOM     32  H1  SKY d   1      35.316  25.506  32.901  0.00  0.00     0.086 H 
ATOM     33  C12 SKY d   1      37.285  26.361  34.467  0.00  0.00    -0.072 A 
ATOM     34  C16 SKY d   1      38.710  25.558  32.680  0.00  0.00    -0.026 A 
ATOM     35  C13 SKY d   1      38.418  26.764  35.185  0.00  0.00    -0.082 A 
ATOM     36  H2  SKY d   1      36.296  26.517  34.882  0.00  0.00     0.084 H 
ATOM     37  C14 SKY d   1      39.696  26.569  34.652  0.00  0.00    -0.082 A 
ATOM     38  H3  SKY d   1      38.304  27.229  36.158  0.00  0.00     0.083 H 
ATOM     39  C15 SKY d   1      39.840  25.966  33.399  0.00  0.00    -0.072 A 
ATOM     40  H4  SKY d   1      40.572  26.884  35.208  0.00  0.00     0.083 H 
ATOM     41  H5  SKY d   1      40.829  25.814  32.983  0.00  0.00     0.084 H 
ATOM     42  C17 SKY d   1      38.852  24.957  31.427  0.00  0.00    -0.071 A 
ATOM     43  C18 SKY d   1      37.726  24.551  30.705  0.00  0.00    -0.070 A 
ATOM     44  H6  SKY d   1      39.842  24.805  31.012  0.00  0.00     0.084 H 
ATOM     45  H7  SKY d   1      37.847  24.083  29.735  0.00  0.00     0.084 H 
ENDBRANCH   1  29
TORSDOF 7
