REMARK  7 active torsions:
REMARK  status: ('A' for Active; 'I' for Inactive)
REMARK    1  A    between atoms: C9_10  and  C8_11 
REMARK    2  A    between atoms: N1_15  and  C1_16 
REMARK    3  A    between atoms: C5_18  and  C6_19 
REMARK    4  A    between atoms: C6_19  and  O6_20 
REMARK    5  A    between atoms: C4_21  and  O4_22 
REMARK    6  A    between atoms: C3_23  and  O3_24 
REMARK    7  A    between atoms: C2_25  and  O2_26 
ROOT
ATOM      1  C8  LEW d   1      35.104  24.860  29.969  0.00  0.00     0.109 A 
ATOM      2  C7  LEW d   1      35.055  24.212  28.810  0.00  0.00     0.033 A 
ATOM      3  N3  LEW d   1      33.919  24.691  30.538  0.00  0.00    -0.130 NA
ATOM      4  N2  LEW d   1      33.220  23.989  29.810  0.00  0.00    -0.063 NA
ATOM      5  N1  LEW d   1      33.836  23.680  28.789  0.00  0.00    -0.228 N 
ATOM      6  H8  LEW d   1      35.833  24.134  28.052  0.00  0.00     0.118 H 
ENDROOT
BRANCH   5   7
ATOM      7  C1  LEW d   1      33.158  22.847  27.772  0.00  0.00     0.154 C 
ATOM      8  O5  LEW d   1      33.205  21.442  28.070  0.00  0.00    -0.352 OA
ATOM      9  C5  LEW d   1      32.186  20.747  27.305  0.00  0.00     0.088 C 
ATOM     10  C4  LEW d   1      32.384  20.930  25.774  0.00  0.00     0.089 C 
ATOM     11  H10 LEW d   1      31.202  21.165  27.562  0.00  0.00     0.090 H 
ATOM     12  C3  LEW d   1      32.637  22.402  25.386  0.00  0.00     0.091 C 
ATOM     13  H14 LEW d   1      33.251  20.329  25.462  0.00  0.00     0.091 H 
ATOM     14  C2  LEW d   1      33.648  23.039  26.330  0.00  0.00     0.106 C 
ATOM     15  H16 LEW d   1      31.687  22.951  25.469  0.00  0.00     0.091 H 
ATOM     16  H18 LEW d   1      34.618  22.534  26.212  0.00  0.00     0.094 H 
ATOM     17  H9  LEW d   1      32.101  23.150  27.792  0.00  0.00     0.125 H 
BRANCH   9  18
ATOM     18  C6  LEW d   1      32.225  19.286  27.756  0.00  0.00     0.043 C 
ATOM     19  H11 LEW d   1      31.324  18.772  27.391  0.00  0.00     0.078 H 
ATOM     20  H12 LEW d   1      32.249  19.249  28.855  0.00  0.00     0.078 H 
BRANCH  18  21
ATOM     21  O6  LEW d   1      33.391  18.620  27.236  0.00  0.00    -0.398 OA
ATOM     22  H13 LEW d   1      34.172  19.059  27.552  0.00  0.00     0.209 HD
ENDBRANCH  18  21
ENDBRANCH   9  18
BRANCH  10  23
ATOM     23  O4  LEW d   1      31.229  20.480  25.081  0.00  0.00    -0.390 OA
ATOM     24  H15 LEW d   1      30.475  20.985  25.363  0.00  0.00     0.210 HD
ENDBRANCH  10  23
BRANCH  12  25
ATOM     25  O3  LEW d   1      33.099  22.497  24.038  0.00  0.00    -0.390 OA
ATOM     26  H17 LEW d   1      33.248  23.409  23.819  0.00  0.00     0.210 HD
ENDBRANCH  12  25
BRANCH  14  27
ATOM     27  O2  LEW d   1      33.817  24.434  26.024  0.00  0.00    -0.388 OA
ATOM     28  H19 LEW d   1      34.128  24.526  25.131  0.00  0.00     0.210 HD
ENDBRANCH  14  27
ENDBRANCH   5   7
BRANCH   1  29
ATOM     29  C9  LEW d   1      36.113  25.655  30.512  0.00  0.00     0.007 A 
ATOM     30  C18 LEW d   1      36.665  26.687  29.724  0.00  0.00    -0.013 A 
ATOM     31  C17 LEW d   1      36.266  26.868  28.382  0.00  0.00    -0.071 A 
ATOM     32  C13 LEW d   1      37.649  27.524  30.273  0.00  0.00    -0.025 A 
ATOM     33  C16 LEW d   1      36.838  27.869  27.602  0.00  0.00    -0.082 A 
ATOM     34  H1  LEW d   1      35.508  26.222  27.955  0.00  0.00     0.084 H 
ATOM     35  C15 LEW d   1      37.818  28.703  28.155  0.00  0.00    -0.082 A 
ATOM     36  H2  LEW d   1      36.527  28.002  26.572  0.00  0.00     0.083 H 
ATOM     37  C14 LEW d   1      38.214  28.533  29.487  0.00  0.00    -0.072 A 
ATOM     38  H3  LEW d   1      38.270  29.481  27.551  0.00  0.00     0.083 H 
ATOM     39  H4  LEW d   1      38.965  29.189  29.913  0.00  0.00     0.084 H 
ATOM     40  C12 LEW d   1      38.057  27.352  31.603  0.00  0.00    -0.072 A 
ATOM     41  C11 LEW d   1      37.485  26.343  32.393  0.00  0.00    -0.081 A 
ATOM     42  H5  LEW d   1      38.817  28.001  32.023  0.00  0.00     0.084 H 
ATOM     43  C10 LEW d   1      36.504  25.504  31.848  0.00  0.00    -0.070 A 
ATOM     44  H6  LEW d   1      37.801  26.213  33.422  0.00  0.00     0.083 H 
ATOM     45  H7  LEW d   1      36.047  24.736  32.462  0.00  0.00     0.084 H 
ENDBRANCH   1  29
TORSDOF 7
