REMARK WARNING: 32 MAX_TORS EXCEEDED!!!
REMARK  44 active torsions:
REMARK  status: ('A' for Active; 'I' for Inactive)
REMARK    1  A    between atoms: N_1  and  CA_2 
REMARK    2  A    between atoms: CA_2  and  C_3 
REMARK       I    between atoms: C_3  and  N_5 
REMARK    3  A    between atoms: N_5  and  CA_6 
REMARK    4  A    between atoms: CA_6  and  C_7 
REMARK    5  A    between atoms: CA_6  and  CB_9 
REMARK       I    between atoms: C_7  and  N_16 
REMARK    6  A    between atoms: CB_9  and  CG_10 
REMARK    7  A    between atoms: N_16  and  CA_17 
REMARK    8  A    between atoms: CA_17  and  C_18 
REMARK    9  A    between atoms: CA_17  and  CB_20 
REMARK       I    between atoms: C_18  and  N_22 
REMARK   10  A    between atoms: CB_20  and  OG_21 
REMARK   11  A    between atoms: N_22  and  CA_23 
REMARK   12  A    between atoms: CA_23  and  C_24 
REMARK   13  A    between atoms: CA_23  and  CB_26 
REMARK       I    between atoms: C_24  and  N_30 
REMARK   14  A    between atoms: CB_26  and  CG_27 
REMARK   15  A    between atoms: N_30  and  CA_31 
REMARK   16  A    between atoms: CA_31  and  C_32 
REMARK   17  A    between atoms: CA_31  and  CB_34 
REMARK       I    between atoms: C_32  and  N_38 
REMARK   18  A    between atoms: CB_34  and  CG_35 
REMARK   19  A    between atoms: N_38  and  CA_39 
REMARK   20  A    between atoms: CA_39  and  C_40 
REMARK   21  A    between atoms: CA_39  and  CB_42 
REMARK       I    between atoms: C_40  and  N_45 
REMARK   22  A    between atoms: CB_42  and  CG1_43 
REMARK   23  A    between atoms: CB_42  and  CG2_44 
REMARK   24  A    between atoms: CA_46  and  C_47 
REMARK       I    between atoms: C_47  and  N_52 
REMARK   25  A    between atoms: N_52  and  CA_53 
REMARK   26  A    between atoms: CA_53  and  C_54 
REMARK   27  A    between atoms: CA_53  and  CB_56 
REMARK       I    between atoms: C_54  and  N_60 
REMARK   28  A    between atoms: CB_56  and  CG_57 
REMARK   29  A    between atoms: CG_57  and  SD_58 
REMARK   30  A    between atoms: SD_58  and  CE_59 
REMARK   31  A    between atoms: N_60  and  CA_61 
REMARK   32  A    between atoms: CA_61  and  C_62 
REMARK   33  A    between atoms: CA_61  and  CB_64 
REMARK       I    between atoms: C_62  and  N_67 
REMARK   34  A    between atoms: CB_64  and  CG1_65 
REMARK   35  A    between atoms: CB_64  and  CG2_66 
REMARK   36  A    between atoms: N_67  and  CA_68 
REMARK   37  A    between atoms: CA_68  and  C_69 
REMARK   38  A    between atoms: CA_68  and  CB_71 
REMARK       I    between atoms: C_69  and  N_75 
REMARK   39  A    between atoms: CB_71  and  CG1_72 
REMARK   40  A    between atoms: CB_71  and  CG2_73 
REMARK   41  A    between atoms: CG1_72  and  CD1_74 
REMARK   42  A    between atoms: N_75  and  CA_76 
REMARK   43  A    between atoms: CA_76  and  C_77 
REMARK   44  A    between atoms: CA_76  and  CB_79 
ROOT
ATOM      1  C   VAL d   1      15.069   3.339 -36.381  0.00  0.00     0.243 C 
ATOM      2  O   VAL d   1      15.598   2.235 -36.587  0.00  0.00    -0.271 OA
ATOM      3  N   PRO d   1      15.798   4.455 -36.225  0.00  0.00    -0.337 N 
ATOM      4  CA  PRO d   1      17.264   4.389 -36.138  0.00  0.00     0.091 C 
ATOM      5  CB  PRO d   1      17.679   5.869 -35.990  0.00  0.00    -0.036 C 
ATOM      6  CG  PRO d   1      16.528   6.659 -36.561  0.00  0.00    -0.048 C 
ATOM      7  CD  PRO d   1      15.295   5.841 -36.212  0.00  0.00    -0.001 C 
ATOM      8  H37 PRO d   1      17.680   3.955 -37.059  0.00  0.00     0.087 H 
ATOM      9  H38 PRO d   1      18.602   6.069 -36.554  0.00  0.00     0.036 H 
ATOM     10  H39 PRO d   1      17.834   6.123 -34.931  0.00  0.00     0.036 H 
ATOM     11  H40 PRO d   1      16.630   6.762 -37.651  0.00  0.00     0.035 H 
ATOM     12  H41 PRO d   1      16.475   7.657 -36.101  0.00  0.00     0.035 H 
ATOM     13  H42 PRO d   1      14.910   6.112 -35.218  0.00  0.00     0.064 H 
ATOM     14  H43 PRO d   1      14.503   5.981 -36.963  0.00  0.00     0.064 H 
ENDROOT
BRANCH   1  15
ATOM     15  CA  VAL d   1      13.539   3.487 -36.393  0.00  0.00     0.092 C 
ATOM     16  H29 VAL d   1      13.258   4.364 -36.995  0.00  0.00     0.088 H 
BRANCH  15  17
ATOM     17  N   VAL d   1      12.984   2.280 -36.997  0.00  0.00    -0.346 N 
ATOM     18  C   ASP d   1      12.108   2.293 -38.002  0.00  0.00     0.241 C 
ATOM     19  O   ASP d   1      11.751   3.321 -38.590  0.00  0.00    -0.271 OA
ATOM     20  H28 VAL d   1      13.277   1.394 -36.637  0.00  0.00     0.163 HD
BRANCH  18  21
ATOM     21  CA  ASP d   1      11.633   0.914 -38.470  0.00  0.00     0.098 C 
ATOM     22  H25 ASP d   1      11.034   0.448 -37.674  0.00  0.00     0.088 H 
BRANCH  21  23
ATOM     23  N   ASP d   1      10.802   1.067 -39.672  0.00  0.00    -0.345 N 
ATOM     24  C   ASP d   1       9.511   0.738 -39.689  0.00  0.00     0.241 C 
ATOM     25  O   ASP d   1       8.933   0.281 -38.699  0.00  0.00    -0.271 OA
ATOM     26  H24 ASP d   1      11.219   1.430 -40.505  0.00  0.00     0.163 HD
BRANCH  24  27
ATOM     27  CA  ASP d   1       8.769   0.923 -41.021  0.00  0.00     0.098 C 
ATOM     28  H21 ASP d   1       8.176   1.845 -40.933  0.00  0.00     0.088 H 
BRANCH  27  29
ATOM     29  N   ASP d   1       9.696   1.108 -42.136  0.00  0.00    -0.345 N 
ATOM     30  C   SER d   1      10.026   2.333 -42.538  0.00  0.00     0.243 C 
ATOM     31  O   SER d   1       9.365   3.336 -42.251  0.00  0.00    -0.271 OA
ATOM     32  H20 ASP d   1      10.084   0.311 -42.599  0.00  0.00     0.163 HD
BRANCH  30  33
ATOM     33  CA  SER d   1      11.298   2.468 -43.363  0.00  0.00     0.109 C 
ATOM     34  H16 SER d   1      11.530   1.500 -43.831  0.00  0.00     0.090 H 
BRANCH  33  35
ATOM     35  N   SER d   1      11.149   3.477 -44.411  0.00  0.00    -0.344 N 
ATOM     36  C   PHE d   1      10.202   3.421 -45.343  0.00  0.00     0.241 C 
ATOM     37  O   PHE d   1       9.588   2.395 -45.618  0.00  0.00    -0.271 OA
ATOM     38  H15 SER d   1      11.789   4.245 -44.428  0.00  0.00     0.163 HD
BRANCH  36  39
ATOM     39  CA  PHE d   1       9.998   4.687 -46.167  0.00  0.00     0.093 C 
ATOM     40  H7  PHE d   1      10.873   5.336 -46.017  0.00  0.00     0.088 H 
BRANCH  39  41
ATOM     41  N   PHE d   1       9.894   4.391 -47.593  0.00  0.00    -0.346 N 
ATOM     42  C   GLY d   1      10.678   4.986 -48.489  0.00  0.00     0.243 C 
ATOM     43  O   GLY d   1      11.757   5.506 -48.198  0.00  0.00    -0.272 OA
ATOM     44  H6  PHE d   1       9.217   3.724 -47.904  0.00  0.00     0.163 HD
BRANCH  42  45
ATOM     45  CA  GLY d   1      10.221   4.901 -49.930  0.00  0.00     0.152 C 
ATOM     46  H4  GLY d   1       9.221   4.443 -49.957  0.00  0.00     0.090 H 
ATOM     47  H5  GLY d   1      10.170   5.918 -50.345  0.00  0.00     0.090 H 
BRANCH  45  48
ATOM     48  N   GLY d   1      11.143   4.087 -50.771  0.00  0.00    -0.071 N 
ATOM     49  H1  GLY d   1      10.798   4.060 -51.718  0.00  0.00     0.274 HD
ATOM     50  H2  GLY d   1      11.193   3.149 -50.404  0.00  0.00     0.274 HD
ATOM     51  H3  GLY d   1      12.062   4.501 -50.760  0.00  0.00     0.274 HD
ENDBRANCH  45  48
ENDBRANCH  42  45
ENDBRANCH  39  41
BRANCH  39  52
ATOM     52  CB  PHE d   1       8.756   5.437 -45.683  0.00  0.00    -0.014 C 
ATOM     53  H8  PHE d   1       8.837   5.579 -44.595  0.00  0.00     0.043 H 
ATOM     54  H9  PHE d   1       7.870   4.825 -45.908  0.00  0.00     0.043 H 
BRANCH  52  55
ATOM     55  CG  PHE d   1       8.580   6.780 -46.324  0.00  0.00    -0.056 A 
ATOM     56  CD1 PHE d   1       9.355   7.856 -45.919  0.00  0.00    -0.077 A 
ATOM     57  CE1 PHE d   1       9.221   9.098 -46.521  0.00  0.00    -0.082 A 
ATOM     58  H10 PHE d   1      10.076   7.724 -45.120  0.00  0.00     0.084 H 
ATOM     59  CZ  PHE d   1       8.362   9.255 -47.594  0.00  0.00    -0.083 A 
ATOM     60  H12 PHE d   1       9.788   9.944 -46.151  0.00  0.00     0.083 H 
ATOM     61  CE2 PHE d   1       7.609   8.175 -48.038  0.00  0.00    -0.082 A 
ATOM     62  H14 PHE d   1       8.277  10.217 -48.087  0.00  0.00     0.083 H 
ATOM     63  CD2 PHE d   1       7.735   6.939 -47.410  0.00  0.00    -0.077 A 
ATOM     64  H13 PHE d   1       6.926   8.294 -48.871  0.00  0.00     0.083 H 
ATOM     65  H11 PHE d   1       7.166   6.092 -47.775  0.00  0.00     0.084 H 
ENDBRANCH  52  55
ENDBRANCH  39  52
ENDBRANCH  36  39
ENDBRANCH  33  35
BRANCH  33  66
ATOM     66  CB  SER d   1      12.436   2.868 -42.426  0.00  0.00     0.044 C 
ATOM     67  H17 SER d   1      12.088   3.654 -41.740  0.00  0.00     0.077 H 
ATOM     68  H18 SER d   1      13.283   3.247 -43.017  0.00  0.00     0.077 H 
BRANCH  66  69
ATOM     69  OG  SER d   1      12.848   1.737 -41.680  0.00  0.00    -0.398 OA
ATOM     70  H19 SER d   1      13.148   1.059 -42.274  0.00  0.00     0.209 HD
ENDBRANCH  66  69
ENDBRANCH  33  66
ENDBRANCH  30  33
ENDBRANCH  27  29
BRANCH  27  71
ATOM     71  CB  ASP d   1       7.787  -0.221 -41.311  0.00  0.00     0.043 C 
ATOM     72  H22 ASP d   1       7.243   0.009 -42.239  0.00  0.00     0.052 H 
ATOM     73  H23 ASP d   1       7.074  -0.293 -40.476  0.00  0.00     0.052 H 
BRANCH  71  74
ATOM     74  CG  ASP d   1       8.482  -1.560 -41.474  0.00  0.00     0.175 C 
ATOM     75  OD1 ASP d   1       9.678  -1.663 -41.123  0.00  0.00    -0.648 OA
ATOM     76  OD2 ASP d   1       7.815  -2.522 -41.912  0.00  0.00    -0.648 OA
ENDBRANCH  71  74
ENDBRANCH  27  71
ENDBRANCH  24  27
ENDBRANCH  21  23
BRANCH  21  77
ATOM     77  CB  ASP d   1      12.845   0.021 -38.774  0.00  0.00     0.043 C 
ATOM     78  H26 ASP d   1      13.624   0.642 -39.239  0.00  0.00     0.052 H 
ATOM     79  H27 ASP d   1      12.530  -0.761 -39.480  0.00  0.00     0.052 H 
BRANCH  77  80
ATOM     80  CG  ASP d   1      13.445  -0.659 -37.537  0.00  0.00     0.175 C 
ATOM     81  OD1 ASP d   1      12.934  -0.502 -36.403  0.00  0.00    -0.648 OA
ATOM     82  OD2 ASP d   1      14.406  -1.445 -37.727  0.00  0.00    -0.648 OA
ENDBRANCH  77  80
ENDBRANCH  21  77
ENDBRANCH  18  21
ENDBRANCH  15  17
BRANCH  15  83
ATOM     83  CB  VAL d   1      12.994   3.667 -34.951  0.00  0.00    -0.033 C 
ATOM     84  H30 VAL d   1      13.380   4.616 -34.550  0.00  0.00     0.042 H 
BRANCH  83  85
ATOM     85  CG1 VAL d   1      11.458   3.729 -34.958  0.00  0.00    -0.071 C 
ATOM     86  H31 VAL d   1      11.091   3.857 -33.929  0.00  0.00     0.028 H 
ATOM     87  H32 VAL d   1      11.055   2.795 -35.377  0.00  0.00     0.028 H 
ATOM     88  H33 VAL d   1      11.128   4.580 -35.573  0.00  0.00     0.028 H 
ENDBRANCH  83  85
BRANCH  83  89
ATOM     89  CG2 VAL d   1      13.470   2.523 -34.041  0.00  0.00    -0.071 C 
ATOM     90  H34 VAL d   1      14.569   2.487 -34.042  0.00  0.00     0.028 H 
ATOM     91  H35 VAL d   1      13.071   1.568 -34.413  0.00  0.00     0.028 H 
ATOM     92  H36 VAL d   1      13.110   2.696 -33.016  0.00  0.00     0.028 H 
ENDBRANCH  83  89
ENDBRANCH  15  83
ENDBRANCH   1  15
BRANCH   4  93
ATOM     93  C   PRO d   1      17.767   3.580 -34.936  0.00  0.00     0.241 C 
ATOM     94  O   PRO d   1      17.079   3.490 -33.923  0.00  0.00    -0.271 OA
ATOM     95  N   MET d   1      18.975   3.025 -35.052  0.00  0.00    -0.346 N 
ATOM     96  H44 MET d   1      19.490   3.147 -35.900  0.00  0.00     0.163 HD
BRANCH  95  97
ATOM     97  CA  MET d   1      19.558   2.247 -33.970  0.00  0.00     0.090 C 
ATOM     98  H45 MET d   1      18.800   1.548 -33.586  0.00  0.00     0.087 H 
BRANCH  97  99
ATOM     99  C   MET d   1      19.997   3.177 -32.845  0.00  0.00     0.241 C 
ATOM    100  O   MET d   1      20.583   4.233 -33.109  0.00  0.00    -0.271 OA
ATOM    101  N   VAL d   1      19.681   2.801 -31.606  0.00  0.00    -0.346 N 
ATOM    102  H53 VAL d   1      19.075   2.016 -31.479  0.00  0.00     0.163 HD
BRANCH 101 103
ATOM    103  CA  VAL d   1      20.192   3.499 -30.425  0.00  0.00     0.092 C 
ATOM    104  H54 VAL d   1      20.213   4.574 -30.655  0.00  0.00     0.088 H 
BRANCH 103 105
ATOM    105  C   VAL d   1      21.622   3.057 -30.105  0.00  0.00     0.241 C 
ATOM    106  O   VAL d   1      21.960   1.878 -30.137  0.00  0.00    -0.271 OA
ATOM    107  N   ILE d   1      22.494   4.034 -29.888  0.00  0.00    -0.346 N 
ATOM    108  H62 ILE d   1      22.186   4.985 -29.904  0.00  0.00     0.163 HD
BRANCH 107 109
ATOM    109  CA  ILE d   1      23.897   3.735 -29.626  0.00  0.00     0.092 C 
ATOM    110  H63 ILE d   1      24.153   2.812 -30.167  0.00  0.00     0.088 H 
BRANCH 109 111
ATOM    111  C   ILE d   1      24.136   3.492 -28.130  0.00  0.00     0.241 C 
ATOM    112  O   ILE d   1      23.683   4.270 -27.278  0.00  0.00    -0.271 OA
ATOM    113  N   ALA d   1      24.780   2.367 -27.815  0.00  0.00    -0.345 N 
ATOM    114  H73 ALA d   1      25.076   1.762 -28.554  0.00  0.00     0.163 HD
BRANCH 113 115
ATOM    115  CA  ALA d   1      25.072   1.980 -26.428  0.00  0.00     0.093 C 
ATOM    116  H74 ALA d   1      24.165   2.146 -25.828  0.00  0.00     0.089 H 
BRANCH 115 117
ATOM    117  C   ALA d   1      26.210   2.813 -25.821  0.00  0.00     0.196 C 
ATOM    118  O   ALA d   1      26.933   3.525 -26.537  0.00  0.00    -0.646 OA
ATOM    119  OXT ALA d   1      26.382   2.780 -24.594  0.00  0.00    -0.646 OA
ENDBRANCH 115 117
BRANCH 115 120
ATOM    120  CB  ALA d   1      25.439   0.489 -26.362  0.00  0.00    -0.048 C 
ATOM    121  H75 ALA d   1      25.655   0.210 -25.320  0.00  0.00     0.030 H 
ATOM    122  H76 ALA d   1      26.327   0.302 -26.983  0.00  0.00     0.030 H 
ATOM    123  H77 ALA d   1      24.597  -0.113 -26.735  0.00  0.00     0.030 H 
ENDBRANCH 115 120
ENDBRANCH 113 115
ENDBRANCH 109 111
BRANCH 109 124
ATOM    124  CB  ILE d   1      24.826   4.870 -30.145  0.00  0.00    -0.030 C 
ATOM    125  H64 ILE d   1      24.694   5.749 -29.497  0.00  0.00     0.043 H 
BRANCH 124 126
ATOM    126  CG1 ILE d   1      24.473   5.266 -31.576  0.00  0.00    -0.063 C 
ATOM    127  H65 ILE d   1      25.213   6.004 -31.919  0.00  0.00     0.033 H 
ATOM    128  H66 ILE d   1      23.474   5.726 -31.566  0.00  0.00     0.033 H 
BRANCH 126 129
ATOM    129  CD1 ILE d   1      24.454   4.127 -32.566  0.00  0.00    -0.076 C 
ATOM    130  H70 ILE d   1      24.191   4.512 -33.562  0.00  0.00     0.027 H 
ATOM    131  H71 ILE d   1      23.709   3.381 -32.252  0.00  0.00     0.027 H 
ATOM    132  H72 ILE d   1      25.448   3.658 -32.605  0.00  0.00     0.027 H 
ENDBRANCH 126 129
ENDBRANCH 124 126
BRANCH 124 133
ATOM    133  CG2 ILE d   1      26.290   4.432 -30.085  0.00  0.00    -0.071 C 
ATOM    134  H67 ILE d   1      26.545   4.146 -29.054  0.00  0.00     0.028 H 
ATOM    135  H68 ILE d   1      26.935   5.263 -30.405  0.00  0.00     0.028 H 
ATOM    136  H69 ILE d   1      26.443   3.571 -30.752  0.00  0.00     0.028 H 
ENDBRANCH 124 133
ENDBRANCH 109 124
ENDBRANCH 107 109
ENDBRANCH 103 105
BRANCH 103 137
ATOM    137  CB  VAL d   1      19.270   3.296 -29.186  0.00  0.00    -0.033 C 
ATOM    138  H55 VAL d   1      19.073   2.219 -29.077  0.00  0.00     0.042 H 
BRANCH 137 139
ATOM    139  CG1 VAL d   1      19.929   3.797 -27.902  0.00  0.00    -0.071 C 
ATOM    140  H56 VAL d   1      19.248   3.636 -27.053  0.00  0.00     0.028 H 
ATOM    141  H57 VAL d   1      20.149   4.871 -27.997  0.00  0.00     0.028 H 
ATOM    142  H58 VAL d   1      20.865   3.245 -27.731  0.00  0.00     0.028 H 
ENDBRANCH 137 139
BRANCH 137 143
ATOM    143  CG2 VAL d   1      17.937   4.018 -29.392  0.00  0.00    -0.071 C 
ATOM    144  H59 VAL d   1      17.463   3.657 -30.317  0.00  0.00     0.028 H 
ATOM    145  H60 VAL d   1      18.115   5.101 -29.470  0.00  0.00     0.028 H 
ATOM    146  H61 VAL d   1      17.274   3.816 -28.538  0.00  0.00     0.028 H 
ENDBRANCH 137 143
ENDBRANCH 103 137
ENDBRANCH 101 103
ENDBRANCH  97  99
BRANCH  97 147
ATOM    147  CB  MET d   1      20.768   1.448 -34.463  0.00  0.00    -0.030 C 
ATOM    148  H46 MET d   1      21.517   2.152 -34.854  0.00  0.00     0.037 H 
ATOM    149  H47 MET d   1      20.440   0.776 -35.270  0.00  0.00     0.037 H 
BRANCH 147 150
ATOM    150  CG  MET d   1      21.413   0.612 -33.367  0.00  0.00    -0.021 C 
ATOM    151  H48 MET d   1      20.643  -0.028 -32.911  0.00  0.00     0.049 H 
ATOM    152  H49 MET d   1      21.827   1.288 -32.604  0.00  0.00     0.049 H 
BRANCH 150 153
ATOM    153  SD  MET d   1      22.741  -0.437 -33.995  0.00  0.00    -0.173 SA
BRANCH 153 154
ATOM    154  CE  MET d   1      23.919   0.843 -34.344  0.00  0.00    -0.035 C 
ATOM    155  H50 MET d   1      24.837   0.395 -34.752  0.00  0.00     0.041 H 
ATOM    156  H51 MET d   1      24.156   1.385 -33.417  0.00  0.00     0.041 H 
ATOM    157  H52 MET d   1      23.494   1.542 -35.079  0.00  0.00     0.041 H 
ENDBRANCH 153 154
ENDBRANCH 150 153
ENDBRANCH 147 150
ENDBRANCH  97 147
ENDBRANCH  95  97
ENDBRANCH   4  93
TORSDOF 44
