REMARK WARNING: 32 MAX_TORS EXCEEDED!!!
REMARK  39 active torsions:
REMARK  status: ('A' for Active; 'I' for Inactive)
REMARK    1  A    between atoms: N_1  and  CA_2 
REMARK    2  A    between atoms: CA_2  and  CB_3 
REMARK    3  A    between atoms: CA_2  and  C_5 
REMARK    4  A    between atoms: CB_3  and  OG_4 
REMARK    5  A    between atoms: OG_4  and  P_7 
REMARK       I    between atoms: C_5  and  N_11 
REMARK    6  A    between atoms: N_11  and  CA_12 
REMARK    7  A    between atoms: CA_12  and  C_13 
REMARK    8  A    between atoms: CA_12  and  CB_15 
REMARK       I    between atoms: C_13  and  N_19 
REMARK    9  A    between atoms: CB_15  and  CG_16 
REMARK   10  A    between atoms: N_19  and  CA_20 
REMARK   11  A    between atoms: CA_20  and  C_21 
REMARK   12  A    between atoms: CA_20  and  CB_23 
REMARK       I    between atoms: C_21  and  N_27 
REMARK   13  A    between atoms: CB_23  and  CG_24 
REMARK   14  A    between atoms: N_27  and  CA_28 
REMARK   15  A    between atoms: CA_28  and  C_29 
REMARK   16  A    between atoms: CA_28  and  CB_31 
REMARK       I    between atoms: C_29  and  N_34 
REMARK   17  A    between atoms: CB_31  and  CG1_32 
REMARK   18  A    between atoms: CB_31  and  CG2_33 
REMARK   19  A    between atoms: CA_35  and  C_36 
REMARK       I    between atoms: C_36  and  N_41 
REMARK   20  A    between atoms: N_41  and  CA_42 
REMARK   21  A    between atoms: CA_42  and  C_43 
REMARK   22  A    between atoms: CA_42  and  CB_45 
REMARK       I    between atoms: C_43  and  N_49 
REMARK   23  A    between atoms: CB_45  and  CG_46 
REMARK   24  A    between atoms: CG_46  and  SD_47 
REMARK   25  A    between atoms: SD_47  and  CE_48 
REMARK   26  A    between atoms: N_49  and  CA_50 
REMARK   27  A    between atoms: CA_50  and  C_51 
REMARK   28  A    between atoms: CA_50  and  CB_53 
REMARK       I    between atoms: C_51  and  N_56 
REMARK   29  A    between atoms: CB_53  and  CG1_54 
REMARK   30  A    between atoms: CB_53  and  CG2_55 
REMARK   31  A    between atoms: N_56  and  CA_57 
REMARK   32  A    between atoms: CA_57  and  C_58 
REMARK   33  A    between atoms: CA_57  and  CB_60 
REMARK       I    between atoms: C_58  and  N_64 
REMARK   34  A    between atoms: CB_60  and  CG1_61 
REMARK   35  A    between atoms: CB_60  and  CG2_62 
REMARK   36  A    between atoms: CG1_61  and  CD1_63 
REMARK   37  A    between atoms: N_64  and  CA_65 
REMARK   38  A    between atoms: CA_65  and  C_66 
REMARK   39  A    between atoms: CA_65  and  CB_68 
ROOT
ATOM      1  C   VAL d   1      33.063   9.118   7.313  0.00  0.00     0.243 C 
ATOM      2  O   VAL d   1      32.189   9.728   7.940  0.00  0.00    -0.271 OA
ATOM      3  N   PRO d   1      33.975   9.752   6.558  0.00  0.00    -0.337 N 
ATOM      4  CA  PRO d   1      33.920  11.210   6.386  0.00  0.00     0.091 C 
ATOM      5  CB  PRO d   1      35.154  11.511   5.527  0.00  0.00    -0.036 C 
ATOM      6  CG  PRO d   1      36.068  10.315   5.732  0.00  0.00    -0.048 C 
ATOM      7  CD  PRO d   1      35.139   9.157   5.874  0.00  0.00    -0.001 C 
ATOM      8  H24 PRO d   1      33.998  11.706   7.365  0.00  0.00     0.087 H 
ATOM      9  H25 PRO d   1      35.645  12.436   5.864  0.00  0.00     0.036 H 
ATOM     10  H26 PRO d   1      34.875  11.608   4.468  0.00  0.00     0.036 H 
ATOM     11  H27 PRO d   1      36.675  10.440   6.641  0.00  0.00     0.035 H 
ATOM     12  H28 PRO d   1      36.730  10.178   4.864  0.00  0.00     0.035 H 
ATOM     13  H29 PRO d   1      34.857   8.753   4.891  0.00  0.00     0.064 H 
ATOM     14  H30 PRO d   1      35.591   8.359   6.482  0.00  0.00     0.064 H 
ENDROOT
BRANCH   4  15
ATOM     15  C   PRO d   1      32.648  11.707   5.688  0.00  0.00     0.241 C 
ATOM     16  O   PRO d   1      32.082  11.006   4.843  0.00  0.00    -0.271 OA
ATOM     17  N   MET d   1      32.208  12.912   6.046  0.00  0.00    -0.346 N 
ATOM     18  H31 MET d   1      32.678  13.404   6.779  0.00  0.00     0.163 HD
BRANCH  17  19
ATOM     19  CA  MET d   1      31.060  13.532   5.398  0.00  0.00     0.090 C 
ATOM     20  H32 MET d   1      30.224  12.817   5.404  0.00  0.00     0.087 H 
BRANCH  19  21
ATOM     21  C   MET d   1      31.399  13.885   3.949  0.00  0.00     0.241 C 
ATOM     22  O   MET d   1      32.409  14.528   3.680  0.00  0.00    -0.271 OA
ATOM     23  N   VAL d   1      30.526  13.491   3.027  0.00  0.00    -0.346 N 
ATOM     24  H40 VAL d   1      29.788  12.872   3.295  0.00  0.00     0.163 HD
BRANCH  23  25
ATOM     25  CA  VAL d   1      30.606  13.929   1.638  0.00  0.00     0.092 C 
ATOM     26  H41 VAL d   1      31.658  13.911   1.316  0.00  0.00     0.088 H 
BRANCH  25  27
ATOM     27  C   VAL d   1      30.062  15.355   1.510  0.00  0.00     0.241 C 
ATOM     28  O   VAL d   1      29.019  15.687   2.087  0.00  0.00    -0.271 OA
ATOM     29  N   ILE d   1      30.762  16.189   0.746  0.00  0.00    -0.346 N 
ATOM     30  H49 ILE d   1      31.612  15.870   0.326  0.00  0.00     0.163 HD
BRANCH  29  31
ATOM     31  CA  ILE d   1      30.312  17.576   0.503  0.00  0.00     0.092 C 
ATOM     32  H50 ILE d   1      29.718  17.913   1.365  0.00  0.00     0.088 H 
BRANCH  31  33
ATOM     33  C   ILE d   1      29.451  17.632  -0.767  0.00  0.00     0.241 C 
ATOM     34  O   ILE d   1      29.852  17.096  -1.801  0.00  0.00    -0.271 OA
ATOM     35  N   ALA d   1      28.269  18.229  -0.648  0.00  0.00    -0.345 N 
ATOM     36  H60 ALA d   1      28.049  18.682   0.216  0.00  0.00     0.163 HD
BRANCH  35  37
ATOM     37  CA  ALA d   1      27.281  18.254  -1.715  0.00  0.00     0.093 C 
ATOM     38  H61 ALA d   1      27.199  17.239  -2.131  0.00  0.00     0.089 H 
BRANCH  37  39
ATOM     39  C   ALA d   1      27.684  19.197  -2.835  0.00  0.00     0.196 C 
ATOM     40  O   ALA d   1      28.457  20.132  -2.621  0.00  0.00    -0.646 OA
ATOM     41  OXT ALA d   1      27.153  19.097  -3.949  0.00  0.00    -0.646 OA
ENDBRANCH  37  39
BRANCH  37  42
ATOM     42  CB  ALA d   1      25.927  18.661  -1.162  0.00  0.00    -0.048 C 
ATOM     43  H62 ALA d   1      25.188  18.677  -1.977  0.00  0.00     0.030 H 
ATOM     44  H63 ALA d   1      26.000  19.663  -0.714  0.00  0.00     0.030 H 
ATOM     45  H64 ALA d   1      25.612  17.938  -0.395  0.00  0.00     0.030 H 
ENDBRANCH  37  42
ENDBRANCH  35  37
ENDBRANCH  31  33
BRANCH  31  46
ATOM     46  CB  ILE d   1      31.512  18.529   0.307  0.00  0.00    -0.030 C 
ATOM     47  H51 ILE d   1      32.017  18.261  -0.633  0.00  0.00     0.043 H 
BRANCH  46  48
ATOM     48  CG1 ILE d   1      32.517  18.351   1.449  0.00  0.00    -0.063 C 
ATOM     49  H52 ILE d   1      33.244  19.176   1.411  0.00  0.00     0.033 H 
ATOM     50  H53 ILE d   1      33.041  17.394   1.311  0.00  0.00     0.033 H 
BRANCH  48  51
ATOM     51  CD1 ILE d   1      31.838  18.350   2.844  0.00  0.00    -0.076 C 
ATOM     52  H57 ILE d   1      32.603  18.220   3.624  0.00  0.00     0.027 H 
ATOM     53  H58 ILE d   1      31.114  17.524   2.899  0.00  0.00     0.027 H 
ATOM     54  H59 ILE d   1      31.316  19.306   2.998  0.00  0.00     0.027 H 
ENDBRANCH  48  51
ENDBRANCH  46  48
BRANCH  46  55
ATOM     55  CG2 ILE d   1      31.022  19.980   0.181  0.00  0.00    -0.071 C 
ATOM     56  H54 ILE d   1      30.305  20.054  -0.650  0.00  0.00     0.028 H 
ATOM     57  H55 ILE d   1      31.879  20.641  -0.014  0.00  0.00     0.028 H 
ATOM     58  H56 ILE d   1      30.531  20.284   1.117  0.00  0.00     0.028 H 
ENDBRANCH  46  55
ENDBRANCH  31  46
ENDBRANCH  29  31
ENDBRANCH  25  27
BRANCH  25  59
ATOM     59  CB  VAL d   1      29.780  12.988   0.728  0.00  0.00    -0.033 C 
ATOM     60  H42 VAL d   1      28.767  12.902   1.147  0.00  0.00     0.042 H 
BRANCH  59  61
ATOM     61  CG1 VAL d   1      29.667  13.546  -0.681  0.00  0.00    -0.071 C 
ATOM     62  H43 VAL d   1      29.076  12.857  -1.302  0.00  0.00     0.028 H 
ATOM     63  H44 VAL d   1      30.672  13.658  -1.113  0.00  0.00     0.028 H 
ATOM     64  H45 VAL d   1      29.171  14.527  -0.648  0.00  0.00     0.028 H 
ENDBRANCH  59  61
BRANCH  59  65
ATOM     65  CG2 VAL d   1      30.406  11.613   0.703  0.00  0.00    -0.071 C 
ATOM     66  H46 VAL d   1      30.480  11.225   1.730  0.00  0.00     0.028 H 
ATOM     67  H47 VAL d   1      31.412  11.676   0.262  0.00  0.00     0.028 H 
ATOM     68  H48 VAL d   1      29.782  10.937   0.100  0.00  0.00     0.028 H 
ENDBRANCH  59  65
ENDBRANCH  25  59
ENDBRANCH  23  25
ENDBRANCH  19  21
BRANCH  19  69
ATOM     69  CB  MET d   1      30.631  14.795   6.146  0.00  0.00    -0.030 C 
ATOM     70  H33 MET d   1      31.502  15.461   6.237  0.00  0.00     0.037 H 
ATOM     71  H34 MET d   1      30.284  14.507   7.149  0.00  0.00     0.037 H 
BRANCH  69  72
ATOM     72  CG  MET d   1      29.503  15.560   5.440  0.00  0.00    -0.021 C 
ATOM     73  H35 MET d   1      28.704  14.842   5.201  0.00  0.00     0.049 H 
ATOM     74  H36 MET d   1      29.909  15.980   4.508  0.00  0.00     0.049 H 
BRANCH  72  75
ATOM     75  SD  MET d   1      28.776  16.905   6.382  0.00  0.00    -0.173 SA
BRANCH  75  76
ATOM     76  CE  MET d   1      30.102  18.100   6.454  0.00  0.00    -0.035 C 
ATOM     77  H37 MET d   1      29.769  18.984   7.017  0.00  0.00     0.041 H 
ATOM     78  H38 MET d   1      30.381  18.399   5.433  0.00  0.00     0.041 H 
ATOM     79  H39 MET d   1      30.972  17.652   6.956  0.00  0.00     0.041 H 
ENDBRANCH  75  76
ENDBRANCH  72  75
ENDBRANCH  69  72
ENDBRANCH  19  69
ENDBRANCH  17  19
ENDBRANCH   4  15
BRANCH   1  80
ATOM     80  CA  VAL d   1      33.108   7.581   7.329  0.00  0.00     0.092 C 
ATOM     81  H16 VAL d   1      34.156   7.266   7.436  0.00  0.00     0.088 H 
BRANCH  80  82
ATOM     82  N   VAL d   1      32.349   7.033   8.456  0.00  0.00    -0.346 N 
ATOM     83  C   ASP d   1      32.923   6.590   9.572  0.00  0.00     0.241 C 
ATOM     84  O   ASP d   1      34.144   6.434   9.708  0.00  0.00    -0.271 OA
ATOM     85  H15 VAL d   1      31.353   6.990   8.383  0.00  0.00     0.163 HD
BRANCH  83  86
ATOM     86  CA  ASP d   1      31.975   6.235  10.700  0.00  0.00     0.098 C 
ATOM     87  H12 ASP d   1      31.185   5.573  10.315  0.00  0.00     0.088 H 
BRANCH  86  88
ATOM     88  N   ASP d   1      32.717   5.538  11.743  0.00  0.00    -0.345 N 
ATOM     89  C   ASP d   1      32.673   4.216  11.869  0.00  0.00     0.241 C 
ATOM     90  O   ASP d   1      32.075   3.486  11.076  0.00  0.00    -0.271 OA
ATOM     91  H11 ASP d   1      33.274   6.069  12.381  0.00  0.00     0.163 HD
BRANCH  89  92
ATOM     92  CA  ASP d   1      33.277   3.645  13.146  0.00  0.00     0.098 C 
ATOM     93  H8  ASP d   1      33.702   4.463  13.746  0.00  0.00     0.088 H 
BRANCH  92  94
ATOM     94  N   ASP d   1      32.201   3.007  13.893  0.00  0.00    -0.345 N 
ATOM     95  C   SEP d   1      31.231   3.719  14.462  0.00  0.00     0.251 C 
ATOM     96  O   SEP d   1      30.037   3.473  14.283  0.00  0.00    -0.271 OA
ATOM     97  H7  ASP d   1      32.191   2.011  13.980  0.00  0.00     0.163 HD
BRANCH  95  98
ATOM     98  CA  SEP d   1      31.654   4.990  15.200  0.00  0.00     0.196 C 
ATOM     99  H4  SEP d   1      31.205   4.955  16.204  0.00  0.00     0.102 H 
BRANCH  98 100
ATOM    100  N   SEP d   1      33.135   5.078  15.374  0.00  0.00    -0.064 N 
ATOM    101  H1  SEP d   1      33.366   5.928  15.863  0.00  0.00     0.275 HD
ATOM    102  H2  SEP d   1      33.580   5.079  14.470  0.00  0.00     0.275 HD
ATOM    103  H3  SEP d   1      33.459   4.286  15.906  0.00  0.00     0.275 HD
ENDBRANCH  98 100
BRANCH  98 104
ATOM    104  CB  SEP d   1      31.112   6.233  14.488  0.00  0.00     0.067 C 
ATOM    105  H5  SEP d   1      30.171   5.973  13.982  0.00  0.00     0.079 H 
ATOM    106  H6  SEP d   1      31.849   6.568  13.743  0.00  0.00     0.079 H 
BRANCH 104 107
ATOM    107  OG  SEP d   1      30.867   7.291  15.402  0.00  0.00    -0.280 OA
BRANCH 107 108
ATOM    108  P   SEP d   1      32.233   7.924  15.994  0.00  0.00     0.422 P 
ATOM    109  O1P SEP d   1      33.392   7.905  14.870  0.00  0.00    -0.617 OA
ATOM    110  O2P SEP d   1      31.948   9.445  16.451  0.00  0.00    -0.617 OA
ATOM    111  O3P SEP d   1      32.716   7.076  17.277  0.00  0.00    -0.617 OA
ENDBRANCH 107 108
ENDBRANCH 104 107
ENDBRANCH  98 104
ENDBRANCH  95  98
ENDBRANCH  92  94
BRANCH  92 112
ATOM    112  CB  ASP d   1      34.391   2.642  12.824  0.00  0.00     0.043 C 
ATOM    113  H9  ASP d   1      34.958   2.438  13.745  0.00  0.00     0.052 H 
ATOM    114  H10 ASP d   1      35.060   3.088  12.073  0.00  0.00     0.052 H 
BRANCH 112 115
ATOM    115  CG  ASP d   1      33.859   1.324  12.279  0.00  0.00     0.175 C 
ATOM    116  OD1 ASP d   1      34.501   0.759  11.366  0.00  0.00    -0.648 OA
ATOM    117  OD2 ASP d   1      32.808   0.849  12.767  0.00  0.00    -0.648 OA
ENDBRANCH 112 115
ENDBRANCH  92 112
ENDBRANCH  89  92
ENDBRANCH  86  88
BRANCH  86 118
ATOM    118  CB  ASP d   1      31.331   7.504  11.262  0.00  0.00     0.043 C 
ATOM    119  H13 ASP d   1      32.070   8.318  11.228  0.00  0.00     0.052 H 
ATOM    120  H14 ASP d   1      31.039   7.317  12.306  0.00  0.00     0.052 H 
BRANCH 118 121
ATOM    121  CG  ASP d   1      30.099   7.935  10.484  0.00  0.00     0.175 C 
ATOM    122  OD1 ASP d   1      29.789   7.318   9.438  0.00  0.00    -0.648 OA
ATOM    123  OD2 ASP d   1      29.458   8.921  10.907  0.00  0.00    -0.648 OA
ENDBRANCH 118 121
ENDBRANCH  86 118
ENDBRANCH  83  86
ENDBRANCH  80  82
BRANCH  80 124
ATOM    124  CB  VAL d   1      32.562   7.031   5.981  0.00  0.00    -0.033 C 
ATOM    125  H17 VAL d   1      33.147   7.479   5.164  0.00  0.00     0.042 H 
BRANCH 124 126
ATOM    126  CG1 VAL d   1      32.729   5.516   5.914  0.00  0.00    -0.071 C 
ATOM    127  H18 VAL d   1      32.338   5.146   4.955  0.00  0.00     0.028 H 
ATOM    128  H19 VAL d   1      32.174   5.049   6.741  0.00  0.00     0.028 H 
ATOM    129  H20 VAL d   1      33.796   5.261   5.998  0.00  0.00     0.028 H 
ENDBRANCH 124 126
BRANCH 124 130
ATOM    130  CG2 VAL d   1      31.099   7.419   5.789  0.00  0.00    -0.071 C 
ATOM    131  H21 VAL d   1      31.000   8.513   5.841  0.00  0.00     0.028 H 
ATOM    132  H22 VAL d   1      30.490   6.958   6.581  0.00  0.00     0.028 H 
ATOM    133  H23 VAL d   1      30.752   7.065   4.807  0.00  0.00     0.028 H 
ENDBRANCH 124 130
ENDBRANCH  80 124
ENDBRANCH   1  80
TORSDOF 39
