REMARK WARNING: 32 MAX_TORS EXCEEDED!!!
REMARK  34 active torsions:
REMARK  status: ('A' for Active; 'I' for Inactive)
REMARK    1  A    between atoms: N_1  and  CA_2 
REMARK    2  A    between atoms: CA_2  and  C_3 
REMARK    3  A    between atoms: CA_2  and  CB_5 
REMARK       I    between atoms: C_3  and  N_7 
REMARK    4  A    between atoms: CB_5  and  OG_6 
REMARK    5  A    between atoms: N_7  and  CA_8 
REMARK    6  A    between atoms: CA_8  and  C_9 
REMARK    7  A    between atoms: CA_8  and  CB_11 
REMARK       I    between atoms: C_9  and  N_15 
REMARK    8  A    between atoms: CB_11  and  CG_12 
REMARK    9  A    between atoms: N_15  and  CA_16 
REMARK   10  A    between atoms: CA_16  and  C_17 
REMARK   11  A    between atoms: CA_16  and  CB_19 
REMARK       I    between atoms: C_17  and  N_24 
REMARK   12  A    between atoms: CB_19  and  CG_20 
REMARK   13  A    between atoms: CG_20  and  CD_21 
REMARK   14  A    between atoms: N_24  and  CA_25 
REMARK   15  A    between atoms: CA_25  and  C_26 
REMARK   16  A    between atoms: CA_25  and  CB_28 
REMARK       I    between atoms: C_26  and  N_32 
REMARK   17  A    between atoms: CB_28  and  CG_29 
REMARK   18  A    between atoms: N_32  and  CA_33 
REMARK   19  A    between atoms: CA_33  and  C_34 
REMARK   20  A    between atoms: CA_33  and  CB_36 
REMARK       I    between atoms: C_34  and  N_40 
REMARK   21  A    between atoms: CB_36  and  CG_37 
REMARK   22  A    between atoms: CG_37  and  CD1_38 
REMARK   23  A    between atoms: CG_37  and  CD2_39 
REMARK   24  A    between atoms: N_40  and  CA_41 
REMARK   25  A    between atoms: CA_41  and  C_42 
REMARK   26  A    between atoms: CA_41  and  CB_44 
REMARK       I    between atoms: C_42  and  N_48 
REMARK   27  A    between atoms: CB_44  and  CG_45 
REMARK   28  A    between atoms: CG_45  and  CD1_46 
REMARK   29  A    between atoms: CG_45  and  CD2_47 
REMARK   30  A    between atoms: N_48  and  CA_49 
REMARK   31  A    between atoms: CA_49  and  C_50 
REMARK   32  A    between atoms: CA_49  and  CB_52 
REMARK   33  A    between atoms: CB_52  and  CG_53 
REMARK   34  A    between atoms: CG_53  and  CD_54 
ROOT
ATOM      1  C   ASP d   1      -7.210 -15.710  -9.827  0.00  0.00     0.241 C 
ATOM      2  O   ASP d   1      -6.311 -15.211 -10.507  0.00  0.00    -0.271 OA
ATOM      3  N   LEU d   1      -7.020 -16.741  -9.013  0.00  0.00    -0.346 N 
ATOM      4  H22 LEU d   1      -7.762 -17.026  -8.406  0.00  0.00     0.163 HD
ENDROOT
BRANCH   3   5
ATOM      5  CA  LEU d   1      -5.770 -17.462  -8.981  0.00  0.00     0.089 C 
ATOM      6  H23 LEU d   1      -4.981 -16.773  -8.646  0.00  0.00     0.087 H 
BRANCH   5   7
ATOM      7  C   LEU d   1      -5.407 -17.969 -10.379  0.00  0.00     0.241 C 
ATOM      8  O   LEU d   1      -6.186 -18.673 -11.017  0.00  0.00    -0.271 OA
ATOM      9  N   LEU d   1      -4.216 -17.601 -10.839  0.00  0.00    -0.346 N 
ATOM     10  H33 LEU d   1      -3.660 -16.977 -10.290  0.00  0.00     0.163 HD
BRANCH   9  11
ATOM     11  CA  LEU d   1      -3.692 -18.070 -12.109  0.00  0.00     0.089 C 
ATOM     12  H34 LEU d   1      -4.491 -18.022 -12.863  0.00  0.00     0.087 H 
BRANCH  11  13
ATOM     13  C   LEU d   1      -3.225 -19.512 -11.982  0.00  0.00     0.241 C 
ATOM     14  O   LEU d   1      -2.264 -19.801 -11.275  0.00  0.00    -0.271 OA
ATOM     15  N   GLU d   1      -3.910 -20.420 -12.666  0.00  0.00    -0.345 N 
ATOM     16  H44 GLU d   1      -4.756 -20.149 -13.126  0.00  0.00     0.163 HD
BRANCH  15  17
ATOM     17  CA  GLU d   1      -3.457 -21.809 -12.764  0.00  0.00     0.097 C 
ATOM     18  H45 GLU d   1      -3.203 -22.141 -11.747  0.00  0.00     0.089 H 
BRANCH  17  19
ATOM     19  C   GLU d   1      -2.189 -21.974 -13.624  0.00  0.00     0.196 C 
ATOM     20  O   GLU d   1      -1.085 -22.150 -13.097  0.00  0.00    -0.646 OA
ATOM     21  OXT GLU d   1      -2.212 -21.863 -14.856  0.00  0.00    -0.646 OA
ENDBRANCH  17  19
BRANCH  17  22
ATOM     22  CB  GLU d   1      -4.586 -22.702 -13.274  0.00  0.00    -0.028 C 
ATOM     23  H46 GLU d   1      -4.214 -23.735 -13.335  0.00  0.00     0.037 H 
ATOM     24  H47 GLU d   1      -4.879 -22.358 -14.277  0.00  0.00     0.037 H 
BRANCH  22  25
ATOM     25  CG  GLU d   1      -5.822 -22.682 -12.372  0.00  0.00     0.018 C 
ATOM     26  H48 GLU d   1      -6.619 -23.265 -12.857  0.00  0.00     0.049 H 
ATOM     27  H49 GLU d   1      -6.152 -21.639 -12.253  0.00  0.00     0.049 H 
BRANCH  25  28
ATOM     28  CD  GLU d   1      -5.562 -23.271 -10.987  0.00  0.00     0.172 C 
ATOM     29  OE1 GLU d   1      -4.843 -24.290 -10.897  0.00  0.00    -0.648 OA
ATOM     30  OE2 GLU d   1      -6.170 -22.789 -10.005  0.00  0.00    -0.648 OA
ENDBRANCH  25  28
ENDBRANCH  22  25
ENDBRANCH  17  22
ENDBRANCH  15  17
ENDBRANCH  11  13
BRANCH  11  31
ATOM     31  CB  LEU d   1      -2.534 -17.169 -12.557  0.00  0.00    -0.035 C 
ATOM     32  H35 LEU d   1      -1.790 -17.177 -11.747  0.00  0.00     0.037 H 
ATOM     33  H36 LEU d   1      -2.943 -16.154 -12.669  0.00  0.00     0.037 H 
BRANCH  31  34
ATOM     34  CG  LEU d   1      -1.787 -17.493 -13.851  0.00  0.00    -0.059 C 
ATOM     35  H37 LEU d   1      -1.397 -18.519 -13.783  0.00  0.00     0.038 H 
BRANCH  34  36
ATOM     36  CD1 LEU d   1      -2.735 -17.413 -15.049  0.00  0.00    -0.073 C 
ATOM     37  H38 LEU d   1      -2.182 -17.648 -15.970  0.00  0.00     0.028 H 
ATOM     38  H39 LEU d   1      -3.151 -16.397 -15.120  0.00  0.00     0.028 H 
ATOM     39  H40 LEU d   1      -3.554 -18.136 -14.918  0.00  0.00     0.028 H 
ENDBRANCH  34  36
BRANCH  34  40
ATOM     40  CD2 LEU d   1      -0.614 -16.542 -14.033  0.00  0.00    -0.073 C 
ATOM     41  H41 LEU d   1       0.055 -16.614 -13.163  0.00  0.00     0.028 H 
ATOM     42  H42 LEU d   1      -0.988 -15.511 -14.123  0.00  0.00     0.028 H 
ATOM     43  H43 LEU d   1      -0.060 -16.813 -14.944  0.00  0.00     0.028 H 
ENDBRANCH  34  40
ENDBRANCH  31  34
ENDBRANCH  11  31
ENDBRANCH   9  11
ENDBRANCH   5   7
BRANCH   5  44
ATOM     44  CB  LEU d   1      -5.847 -18.624  -7.992  0.00  0.00    -0.035 C 
ATOM     45  H24 LEU d   1      -6.716 -19.244  -8.259  0.00  0.00     0.037 H 
ATOM     46  H25 LEU d   1      -5.990 -18.207  -6.984  0.00  0.00     0.037 H 
BRANCH  44  47
ATOM     47  CG  LEU d   1      -4.612 -19.523  -7.964  0.00  0.00    -0.059 C 
ATOM     48  H26 LEU d   1      -4.503 -19.974  -8.961  0.00  0.00     0.038 H 
BRANCH  47  49
ATOM     49  CD1 LEU d   1      -3.338 -18.714  -7.678  0.00  0.00    -0.073 C 
ATOM     50  H27 LEU d   1      -2.470 -19.390  -7.665  0.00  0.00     0.028 H 
ATOM     51  H28 LEU d   1      -3.431 -18.217  -6.701  0.00  0.00     0.028 H 
ATOM     52  H29 LEU d   1      -3.201 -17.956  -8.463  0.00  0.00     0.028 H 
ENDBRANCH  47  49
BRANCH  47  53
ATOM     53  CD2 LEU d   1      -4.792 -20.656  -6.961  0.00  0.00    -0.073 C 
ATOM     54  H30 LEU d   1      -5.712 -21.212  -7.197  0.00  0.00     0.028 H 
ATOM     55  H31 LEU d   1      -4.866 -20.239  -5.946  0.00  0.00     0.028 H 
ATOM     56  H32 LEU d   1      -3.929 -21.335  -7.017  0.00  0.00     0.028 H 
ENDBRANCH  47  53
ENDBRANCH  44  47
ENDBRANCH   5  44
ENDBRANCH   3   5
BRANCH   1  57
ATOM     57  CA  ASP d   1      -8.638 -15.171  -9.885  0.00  0.00     0.098 C 
ATOM     58  H19 ASP d   1      -9.098 -15.318  -8.897  0.00  0.00     0.088 H 
BRANCH  57  59
ATOM     59  N   ASP d   1      -8.656 -13.747 -10.179  0.00  0.00    -0.346 N 
ATOM     60  C   GLU d   1      -8.349 -12.845  -9.255  0.00  0.00     0.241 C 
ATOM     61  O   GLU d   1      -8.299 -13.108  -8.057  0.00  0.00    -0.271 OA
ATOM     62  H18 ASP d   1      -8.905 -13.441 -11.098  0.00  0.00     0.163 HD
BRANCH  60  63
ATOM     63  CA  GLU d   1      -8.004 -11.452  -9.765  0.00  0.00     0.090 C 
ATOM     64  H13 GLU d   1      -8.721 -11.191 -10.558  0.00  0.00     0.087 H 
BRANCH  63  65
ATOM     65  N   GLU d   1      -8.116 -10.453  -8.708  0.00  0.00    -0.346 N 
ATOM     66  C   ASP d   1      -9.271 -10.175  -8.111  0.00  0.00     0.241 C 
ATOM     67  O   ASP d   1     -10.351 -10.641  -8.483  0.00  0.00    -0.271 OA
ATOM     68  H12 GLU d   1      -7.295  -9.960  -8.422  0.00  0.00     0.163 HD
BRANCH  66  69
ATOM     69  CA  ASP d   1      -9.174  -9.314  -6.849  0.00  0.00     0.098 C 
ATOM     70  H9  ASP d   1      -8.314  -8.640  -6.975  0.00  0.00     0.088 H 
BRANCH  69  71
ATOM     71  N   ASP d   1     -10.356  -8.472  -6.625  0.00  0.00    -0.345 N 
ATOM     72  C   SER d   1     -10.395  -7.550  -5.663  0.00  0.00     0.251 C 
ATOM     73  O   SER d   1      -9.683  -7.596  -4.654  0.00  0.00    -0.271 OA
ATOM     74  H8  ASP d   1     -11.156  -8.594  -7.212  0.00  0.00     0.163 HD
BRANCH  72  75
ATOM     75  CA  SER d   1     -11.416  -6.427  -5.840  0.00  0.00     0.195 C 
ATOM     76  H4  SER d   1     -10.881  -5.466  -5.828  0.00  0.00     0.102 H 
BRANCH  75  77
ATOM     77  N   SER d   1     -12.116  -6.559  -7.149  0.00  0.00    -0.064 N 
ATOM     78  H1  SER d   1     -12.785  -5.811  -7.249  0.00  0.00     0.275 HD
ATOM     79  H2  SER d   1     -12.595  -7.445  -7.186  0.00  0.00     0.275 HD
ATOM     80  H3  SER d   1     -11.442  -6.509  -7.897  0.00  0.00     0.275 HD
ENDBRANCH  75  77
BRANCH  75  81
ATOM     81  CB  SER d   1     -12.429  -6.432  -4.686  0.00  0.00     0.051 C 
ATOM     82  H5  SER d   1     -13.101  -7.294  -4.806  0.00  0.00     0.077 H 
ATOM     83  H6  SER d   1     -13.015  -5.502  -4.723  0.00  0.00     0.077 H 
BRANCH  81  84
ATOM     84  OG  SER d   1     -11.788  -6.522  -3.421  0.00  0.00    -0.398 OA
ATOM     85  H7  SER d   1     -11.284  -7.326  -3.379  0.00  0.00     0.209 HD
ENDBRANCH  81  84
ENDBRANCH  75  81
ENDBRANCH  72  75
ENDBRANCH  69  71
BRANCH  69  86
ATOM     86  CB  ASP d   1      -8.899 -10.207  -5.634  0.00  0.00     0.043 C 
ATOM     87  H10 ASP d   1      -9.592 -11.061  -5.660  0.00  0.00     0.052 H 
ATOM     88  H11 ASP d   1      -9.074  -9.621  -4.719  0.00  0.00     0.052 H 
BRANCH  86  89
ATOM     89  CG  ASP d   1      -7.477 -10.735  -5.609  0.00  0.00     0.175 C 
ATOM     90  OD1 ASP d   1      -6.639 -10.264  -6.416  0.00  0.00    -0.648 OA
ATOM     91  OD2 ASP d   1      -7.183 -11.581  -4.742  0.00  0.00    -0.648 OA
ENDBRANCH  86  89
ENDBRANCH  69  86
ENDBRANCH  66  69
ENDBRANCH  63  65
BRANCH  63  92
ATOM     92  CB  GLU d   1      -6.596 -11.442 -10.368  0.00  0.00    -0.029 C 
ATOM     93  H14 GLU d   1      -6.348 -12.465 -10.688  0.00  0.00     0.037 H 
ATOM     94  H15 GLU d   1      -5.888 -11.119  -9.591  0.00  0.00     0.037 H 
BRANCH  92  95
ATOM     95  CG  GLU d   1      -6.449 -10.516 -11.566  0.00  0.00     0.018 C 
ATOM     96  H16 GLU d   1      -6.956  -9.566 -11.340  0.00  0.00     0.049 H 
ATOM     97  H17 GLU d   1      -6.927 -10.989 -12.436  0.00  0.00     0.049 H 
BRANCH  95  98
ATOM     98  CD  GLU d   1      -4.998 -10.221 -11.911  0.00  0.00     0.172 C 
ATOM     99  OE1 GLU d   1      -4.236 -11.173 -12.228  0.00  0.00    -0.648 OA
ATOM    100  OE2 GLU d   1      -4.626  -9.025 -11.876  0.00  0.00    -0.648 OA
ENDBRANCH  95  98
ENDBRANCH  92  95
ENDBRANCH  63  92
ENDBRANCH  60  63
ENDBRANCH  57  59
BRANCH  57 101
ATOM    101  CB  ASP d   1      -9.461 -15.957 -10.917  0.00  0.00     0.043 C 
ATOM    102  H20 ASP d   1      -9.470 -17.018 -10.626  0.00  0.00     0.052 H 
ATOM    103  H21 ASP d   1      -8.984 -15.851 -11.902  0.00  0.00     0.052 H 
BRANCH 101 104
ATOM    104  CG  ASP d   1     -10.904 -15.466 -11.017  0.00  0.00     0.175 C 
ATOM    105  OD1 ASP d   1     -11.400 -15.304 -12.153  0.00  0.00    -0.648 OA
ATOM    106  OD2 ASP d   1     -11.537 -15.225  -9.963  0.00  0.00    -0.648 OA
ENDBRANCH 101 104
ENDBRANCH  57 101
ENDBRANCH   1  57
TORSDOF 34
