REMARK WARNING: 32 MAX_TORS EXCEEDED!!!
REMARK  43 active torsions:
REMARK  status: ('A' for Active; 'I' for Inactive)
REMARK    1  A    between atoms: N_1  and  CA_2 
REMARK    2  A    between atoms: CA_2  and  C_3 
REMARK    3  A    between atoms: CA_2  and  CB_5 
REMARK       I    between atoms: C_3  and  N_9 
REMARK    4  A    between atoms: CB_5  and  CG_6 
REMARK    5  A    between atoms: N_9  and  CA_10 
REMARK    6  A    between atoms: CA_10  and  C_11 
REMARK    7  A    between atoms: CA_10  and  CB_13 
REMARK       I    between atoms: C_11  and  N_17 
REMARK    8  A    between atoms: CB_13  and  CG_14 
REMARK    9  A    between atoms: N_17  and  CA_18 
REMARK   10  A    between atoms: CA_18  and  CB_19 
REMARK   11  A    between atoms: CA_18  and  C_21 
REMARK   12  A    between atoms: CB_19  and  OG_20 
REMARK   13  A    between atoms: OG_20  and  P_23 
REMARK       I    between atoms: C_21  and  N_27 
REMARK   14  A    between atoms: N_27  and  CA_28 
REMARK   15  A    between atoms: CA_28  and  C_29 
REMARK   16  A    between atoms: CA_28  and  CB_31 
REMARK       I    between atoms: C_29  and  N_35 
REMARK   17  A    between atoms: CB_31  and  CG_32 
REMARK   18  A    between atoms: N_35  and  CA_36 
REMARK   19  A    between atoms: CA_36  and  C_37 
REMARK   20  A    between atoms: CA_36  and  CB_39 
REMARK       I    between atoms: C_37  and  N_44 
REMARK   21  A    between atoms: CB_39  and  CG_40 
REMARK   22  A    between atoms: CG_40  and  CD_41 
REMARK   23  A    between atoms: N_44  and  CA_45 
REMARK   24  A    between atoms: CA_45  and  C_46 
REMARK   25  A    between atoms: CA_45  and  CB_48 
REMARK       I    between atoms: C_46  and  N_52 
REMARK   26  A    between atoms: CB_48  and  CG_49 
REMARK   27  A    between atoms: N_52  and  CA_53 
REMARK   28  A    between atoms: CA_53  and  C_54 
REMARK   29  A    between atoms: CA_53  and  CB_56 
REMARK       I    between atoms: C_54  and  N_60 
REMARK   30  A    between atoms: CB_56  and  CG_57 
REMARK   31  A    between atoms: CG_57  and  CD1_58 
REMARK   32  A    between atoms: CG_57  and  CD2_59 
REMARK   33  A    between atoms: N_60  and  CA_61 
REMARK   34  A    between atoms: CA_61  and  C_62 
REMARK   35  A    between atoms: CA_61  and  CB_64 
REMARK       I    between atoms: C_62  and  N_68 
REMARK   36  A    between atoms: CB_64  and  CG_65 
REMARK   37  A    between atoms: CG_65  and  CD1_66 
REMARK   38  A    between atoms: CG_65  and  CD2_67 
REMARK   39  A    between atoms: N_68  and  CA_69 
REMARK   40  A    between atoms: CA_69  and  C_70 
REMARK   41  A    between atoms: CA_69  and  CB_72 
REMARK   42  A    between atoms: CB_72  and  CG_73 
REMARK   43  A    between atoms: CG_73  and  CD_74 
ROOT
ATOM      1  N   ASP d   1      -8.402 -14.889  -9.432  0.00  0.00    -0.346 N 
ATOM      2  H25 ASP d   1      -8.719 -14.524 -10.307  0.00  0.00     0.163 HD
ATOM      3  C   GLU d   1      -8.096 -14.048  -8.451  0.00  0.00     0.241 C 
ATOM      4  O   GLU d   1      -7.982 -14.405  -7.278  0.00  0.00    -0.271 OA
ENDROOT
BRANCH   3   5
ATOM      5  CA  GLU d   1      -7.875 -12.597  -8.846  0.00  0.00     0.090 C 
ATOM      6  H20 GLU d   1      -8.699 -12.278  -9.502  0.00  0.00     0.087 H 
BRANCH   5   7
ATOM      7  N   GLU d   1      -7.860 -11.743  -7.661  0.00  0.00    -0.346 N 
ATOM      8  C   ASP d   1      -8.973 -11.446  -7.000  0.00  0.00     0.241 C 
ATOM      9  O   ASP d   1     -10.106 -11.708  -7.428  0.00  0.00    -0.271 OA
ATOM     10  H19 GLU d   1      -6.989 -11.372  -7.339  0.00  0.00     0.163 HD
BRANCH   8  11
ATOM     11  CA  ASP d   1      -8.793 -10.769  -5.645  0.00  0.00     0.098 C 
ATOM     12  H16 ASP d   1      -8.041  -9.971  -5.728  0.00  0.00     0.088 H 
BRANCH  11  13
ATOM     13  N   ASP d   1     -10.072 -10.207  -5.253  0.00  0.00    -0.345 N 
ATOM     14  C   SEP d   1     -10.171  -9.381  -4.227  0.00  0.00     0.243 C 
ATOM     15  O   SEP d   1      -9.200  -8.791  -3.737  0.00  0.00    -0.271 OA
ATOM     16  H15 ASP d   1     -10.894 -10.449  -5.769  0.00  0.00     0.163 HD
BRANCH  14  17
ATOM     17  CA  SEP d   1     -11.587  -9.123  -3.736  0.00  0.00     0.110 C 
ATOM     18  H12 SEP d   1     -12.132 -10.078  -3.764  0.00  0.00     0.090 H 
BRANCH  17  19
ATOM     19  N   SEP d   1     -11.600  -8.645  -2.364  0.00  0.00    -0.344 N 
ATOM     20  C   ASP d   1     -11.434  -9.476  -1.343  0.00  0.00     0.241 C 
ATOM     21  O   ASP d   1     -11.240 -10.685  -1.491  0.00  0.00    -0.271 OA
ATOM     22  H11 SEP d   1     -11.737  -7.671  -2.186  0.00  0.00     0.163 HD
BRANCH  20  23
ATOM     23  CA  ASP d   1     -11.599  -8.863   0.048  0.00  0.00     0.098 C 
ATOM     24  H8  ASP d   1     -10.792  -9.219   0.705  0.00  0.00     0.088 H 
BRANCH  23  25
ATOM     25  N   ASP d   1     -11.557  -7.406  -0.037  0.00  0.00    -0.345 N 
ATOM     26  C   ASP d   1     -10.494  -6.680   0.285  0.00  0.00     0.249 C 
ATOM     27  O   ASP d   1      -9.352  -7.141   0.342  0.00  0.00    -0.271 OA
ATOM     28  H7  ASP d   1     -12.376  -6.928  -0.356  0.00  0.00     0.163 HD
BRANCH  26  29
ATOM     29  CA  ASP d   1     -10.777  -5.208   0.591  0.00  0.00     0.185 C 
ATOM     30  H4  ASP d   1     -11.813  -5.141   0.955  0.00  0.00     0.100 H 
BRANCH  29  31
ATOM     31  N   ASP d   1      -9.888  -4.676   1.661  0.00  0.00    -0.066 N 
ATOM     32  H1  ASP d   1     -10.108  -3.707   1.830  0.00  0.00     0.275 HD
ATOM     33  H2  ASP d   1      -8.926  -4.756   1.370  0.00  0.00     0.275 HD
ATOM     34  H3  ASP d   1     -10.028  -5.205   2.508  0.00  0.00     0.275 HD
ENDBRANCH  29  31
BRANCH  29  35
ATOM     35  CB  ASP d   1     -10.667  -4.347  -0.663  0.00  0.00     0.050 C 
ATOM     36  H5  ASP d   1      -9.615  -4.327  -0.983  0.00  0.00     0.052 H 
ATOM     37  H6  ASP d   1     -10.995  -3.326  -0.417  0.00  0.00     0.052 H 
BRANCH  35  38
ATOM     38  CG  ASP d   1     -11.507  -4.860  -1.806  0.00  0.00     0.175 C 
ATOM     39  OD1 ASP d   1     -12.666  -4.403  -1.948  0.00  0.00    -0.648 OA
ATOM     40  OD2 ASP d   1     -10.964  -5.630  -2.628  0.00  0.00    -0.648 OA
ENDBRANCH  35  38
ENDBRANCH  29  35
ENDBRANCH  26  29
ENDBRANCH  23  25
BRANCH  23  41
ATOM     41  CB  ASP d   1     -12.963  -9.282   0.622  0.00  0.00     0.043 C 
ATOM     42  H9  ASP d   1     -13.016  -8.963   1.673  0.00  0.00     0.052 H 
ATOM     43  H10 ASP d   1     -13.048 -10.377   0.566  0.00  0.00     0.052 H 
BRANCH  41  44
ATOM     44  CG  ASP d   1     -14.142  -8.657  -0.142  0.00  0.00     0.175 C 
ATOM     45  OD1 ASP d   1     -14.103  -7.435  -0.432  0.00  0.00    -0.648 OA
ATOM     46  OD2 ASP d   1     -15.091  -9.397  -0.491  0.00  0.00    -0.648 OA
ENDBRANCH  41  44
ENDBRANCH  23  41
ENDBRANCH  20  23
ENDBRANCH  17  19
BRANCH  17  47
ATOM     47  CB  SEP d   1     -12.311  -8.138  -4.663  0.00  0.00     0.059 C 
ATOM     48  H13 SEP d   1     -12.454  -8.603  -5.649  0.00  0.00     0.079 H 
ATOM     49  H14 SEP d   1     -11.704  -7.227  -4.772  0.00  0.00     0.079 H 
BRANCH  47  50
ATOM     50  OG  SEP d   1     -13.578  -7.798  -4.115  0.00  0.00    -0.280 OA
BRANCH  50  51
ATOM     51  P   SEP d   1     -14.739  -7.742  -5.231  0.00  0.00     0.422 P 
ATOM     52  O1P SEP d   1     -16.134  -7.531  -4.454  0.00  0.00    -0.617 OA
ATOM     53  O2P SEP d   1     -14.825  -9.106  -6.079  0.00  0.00    -0.617 OA
ATOM     54  O3P SEP d   1     -14.434  -6.531  -6.249  0.00  0.00    -0.617 OA
ENDBRANCH  50  51
ENDBRANCH  47  50
ENDBRANCH  17  47
ENDBRANCH  14  17
ENDBRANCH  11  13
BRANCH  11  55
ATOM     55  CB  ASP d   1      -8.346 -11.782  -4.584  0.00  0.00     0.043 C 
ATOM     56  H17 ASP d   1      -8.851 -12.739  -4.779  0.00  0.00     0.052 H 
ATOM     57  H18 ASP d   1      -8.642 -11.406  -3.594  0.00  0.00     0.052 H 
BRANCH  55  58
ATOM     58  CG  ASP d   1      -6.846 -12.018  -4.583  0.00  0.00     0.175 C 
ATOM     59  OD1 ASP d   1      -6.135 -11.416  -5.423  0.00  0.00    -0.648 OA
ATOM     60  OD2 ASP d   1      -6.391 -12.838  -3.756  0.00  0.00    -0.648 OA
ENDBRANCH  55  58
ENDBRANCH  11  55
ENDBRANCH   8  11
ENDBRANCH   5   7
BRANCH   5  61
ATOM     61  CB  GLU d   1      -6.552 -12.461  -9.610  0.00  0.00    -0.029 C 
ATOM     62  H21 GLU d   1      -6.558 -13.182 -10.441  0.00  0.00     0.037 H 
ATOM     63  H22 GLU d   1      -5.729 -12.702  -8.921  0.00  0.00     0.037 H 
BRANCH  61  64
ATOM     64  CG  GLU d   1      -6.307 -11.087 -10.177  0.00  0.00     0.018 C 
ATOM     65  H23 GLU d   1      -6.341 -10.357  -9.354  0.00  0.00     0.049 H 
ATOM     66  H24 GLU d   1      -7.103 -10.860 -10.902  0.00  0.00     0.049 H 
BRANCH  64  67
ATOM     67  CD  GLU d   1      -4.961 -10.963 -10.880  0.00  0.00     0.172 C 
ATOM     68  OE1 GLU d   1      -4.280 -12.002 -11.099  0.00  0.00    -0.648 OA
ATOM     69  OE2 GLU d   1      -4.598  -9.814 -11.241  0.00  0.00    -0.648 OA
ENDBRANCH  64  67
ENDBRANCH  61  64
ENDBRANCH   5  61
ENDBRANCH   3   5
BRANCH   1  70
ATOM     70  CA  ASP d   1      -8.286 -16.331  -9.262  0.00  0.00     0.098 C 
ATOM     71  H26 ASP d   1      -8.820 -16.636  -8.350  0.00  0.00     0.088 H 
BRANCH  70  72
ATOM     72  C   ASP d   1      -6.803 -16.709  -9.148  0.00  0.00     0.241 C 
ATOM     73  O   ASP d   1      -5.969 -16.174  -9.873  0.00  0.00    -0.271 OA
ATOM     74  N   LEU d   1      -6.506 -17.711  -8.325  0.00  0.00    -0.346 N 
ATOM     75  H29 LEU d   1      -7.192 -18.022  -7.668  0.00  0.00     0.163 HD
BRANCH  74  76
ATOM     76  CA  LEU d   1      -5.201 -18.368  -8.358  0.00  0.00     0.089 C 
ATOM     77  H30 LEU d   1      -4.434 -17.646  -8.041  0.00  0.00     0.087 H 
BRANCH  76  78
ATOM     78  C   LEU d   1      -4.875 -18.843  -9.776  0.00  0.00     0.241 C 
ATOM     79  O   LEU d   1      -5.662 -19.569 -10.389  0.00  0.00    -0.271 OA
ATOM     80  N   LEU d   1      -3.739 -18.388 -10.302  0.00  0.00    -0.346 N 
ATOM     81  H40 LEU d   1      -3.200 -17.727  -9.780  0.00  0.00     0.163 HD
BRANCH  80  82
ATOM     82  CA  LEU d   1      -3.247 -18.814 -11.610  0.00  0.00     0.089 C 
ATOM     83  H41 LEU d   1      -4.074 -18.745 -12.332  0.00  0.00     0.087 H 
BRANCH  82  84
ATOM     84  C   LEU d   1      -2.761 -20.255 -11.569  0.00  0.00     0.241 C 
ATOM     85  O   LEU d   1      -1.684 -20.544 -11.057  0.00  0.00    -0.271 OA
ATOM     86  N   GLU d   1      -3.587 -21.167 -12.063  0.00  0.00    -0.345 N 
ATOM     87  H51 GLU d   1      -4.497 -20.890 -12.371  0.00  0.00     0.163 HD
BRANCH  86  88
ATOM     88  CA  GLU d   1      -3.192 -22.560 -12.164  0.00  0.00     0.097 C 
ATOM     89  H52 GLU d   1      -2.255 -22.694 -11.603  0.00  0.00     0.089 H 
BRANCH  88  90
ATOM     90  C   GLU d   1      -2.928 -22.942 -13.622  0.00  0.00     0.196 C 
ATOM     91  O   GLU d   1      -2.043 -22.377 -14.293  0.00  0.00    -0.646 OA
ATOM     92  OXT GLU d   1      -3.611 -23.811 -14.168  0.00  0.00    -0.646 OA
ENDBRANCH  88  90
BRANCH  88  93
ATOM     93  CB  GLU d   1      -4.256 -23.456 -11.531  0.00  0.00    -0.028 C 
ATOM     94  H53 GLU d   1      -4.017 -24.503 -11.768  0.00  0.00     0.037 H 
ATOM     95  H54 GLU d   1      -5.234 -23.196 -11.963  0.00  0.00     0.037 H 
BRANCH  93  96
ATOM     96  CG  GLU d   1      -4.340 -23.309 -10.020  0.00  0.00     0.018 C 
ATOM     97  H55 GLU d   1      -4.306 -22.238  -9.771  0.00  0.00     0.049 H 
ATOM     98  H56 GLU d   1      -3.474 -23.817  -9.572  0.00  0.00     0.049 H 
BRANCH  96  99
ATOM     99  CD  GLU d   1      -5.602 -23.899  -9.427  0.00  0.00     0.172 C 
ATOM    100  OE1 GLU d   1      -5.502 -24.931  -8.723  0.00  0.00    -0.648 OA
ATOM    101  OE2 GLU d   1      -6.688 -23.311  -9.630  0.00  0.00    -0.648 OA
ENDBRANCH  96  99
ENDBRANCH  93  96
ENDBRANCH  88  93
ENDBRANCH  86  88
ENDBRANCH  82  84
BRANCH  82 102
ATOM    102  CB  LEU d   1      -2.115 -17.898 -12.073  0.00  0.00    -0.035 C 
ATOM    103  H42 LEU d   1      -1.282 -18.017 -11.365  0.00  0.00     0.037 H 
ATOM    104  H43 LEU d   1      -2.487 -16.864 -12.031  0.00  0.00     0.037 H 
BRANCH 102 105
ATOM    105  CG  LEU d   1      -1.563 -18.132 -13.476  0.00  0.00    -0.059 C 
ATOM    106  H44 LEU d   1      -1.171 -19.158 -13.539  0.00  0.00     0.038 H 
BRANCH 105 107
ATOM    107  CD1 LEU d   1      -2.687 -17.971 -14.509  0.00  0.00    -0.073 C 
ATOM    108  H45 LEU d   1      -2.284 -18.141 -15.518  0.00  0.00     0.028 H 
ATOM    109  H46 LEU d   1      -3.100 -16.954 -14.445  0.00  0.00     0.028 H 
ATOM    110  H47 LEU d   1      -3.482 -18.703 -14.303  0.00  0.00     0.028 H 
ENDBRANCH 105 107
BRANCH 105 111
ATOM    111  CD2 LEU d   1      -0.426 -17.159 -13.752  0.00  0.00    -0.073 C 
ATOM    112  H48 LEU d   1       0.364 -17.295 -12.999  0.00  0.00     0.028 H 
ATOM    113  H49 LEU d   1      -0.806 -16.128 -13.703  0.00  0.00     0.028 H 
ATOM    114  H50 LEU d   1      -0.015 -17.351 -14.754  0.00  0.00     0.028 H 
ENDBRANCH 105 111
ENDBRANCH 102 105
ENDBRANCH  82 102
ENDBRANCH  80  82
ENDBRANCH  76  78
BRANCH  76 115
ATOM    115  CB  LEU d   1      -5.187 -19.554  -7.400  0.00  0.00    -0.035 C 
ATOM    116  H31 LEU d   1      -6.071 -20.170  -7.623  0.00  0.00     0.037 H 
ATOM    117  H32 LEU d   1      -5.266 -19.155  -6.378  0.00  0.00     0.037 H 
BRANCH 115 118
ATOM    118  CG  LEU d   1      -3.966 -20.471  -7.442  0.00  0.00    -0.059 C 
ATOM    119  H33 LEU d   1      -3.878 -20.887  -8.457  0.00  0.00     0.038 H 
BRANCH 118 120
ATOM    120  CD1 LEU d   1      -2.696 -19.693  -7.130  0.00  0.00    -0.073 C 
ATOM    121  H34 LEU d   1      -1.832 -20.372  -7.166  0.00  0.00     0.028 H 
ATOM    122  H35 LEU d   1      -2.774 -19.252  -6.125  0.00  0.00     0.028 H 
ATOM    123  H36 LEU d   1      -2.564 -18.893  -7.873  0.00  0.00     0.028 H 
ENDBRANCH 118 120
BRANCH 118 124
ATOM    124  CD2 LEU d   1      -4.139 -21.615  -6.468  0.00  0.00    -0.073 C 
ATOM    125  H37 LEU d   1      -5.061 -22.165  -6.709  0.00  0.00     0.028 H 
ATOM    126  H38 LEU d   1      -4.206 -21.218  -5.444  0.00  0.00     0.028 H 
ATOM    127  H39 LEU d   1      -3.277 -22.294  -6.543  0.00  0.00     0.028 H 
ENDBRANCH 118 124
ENDBRANCH 115 118
ENDBRANCH  76 115
ENDBRANCH  74  76
ENDBRANCH  70  72
BRANCH  70 128
ATOM    128  CB  ASP d   1      -8.875 -17.060 -10.467  0.00  0.00     0.043 C 
ATOM    129  H27 ASP d   1      -8.755 -18.143 -10.314  0.00  0.00     0.052 H 
ATOM    130  H28 ASP d   1      -8.322 -16.753 -11.367  0.00  0.00     0.052 H 
BRANCH 128 131
ATOM    131  CG  ASP d   1     -10.358 -16.760 -10.682  0.00  0.00     0.175 C 
ATOM    132  OD1 ASP d   1     -10.802 -16.863 -11.846  0.00  0.00    -0.648 OA
ATOM    133  OD2 ASP d   1     -11.075 -16.449  -9.702  0.00  0.00    -0.648 OA
ENDBRANCH 128 131
ENDBRANCH  70 128
ENDBRANCH   1  70
TORSDOF 43
