REMARK WARNING: 32 MAX_TORS EXCEEDED!!!
REMARK  47 active torsions:
REMARK  status: ('A' for Active; 'I' for Inactive)
REMARK    1  A    between atoms: N_1  and  CA_2 
REMARK    2  A    between atoms: CA_2  and  C_3 
REMARK    3  A    between atoms: CA_2  and  CB_5 
REMARK       I    between atoms: C_3  and  N_9 
REMARK    4  A    between atoms: CB_5  and  CG_6 
REMARK    5  A    between atoms: CG_6  and  CD1_7 
REMARK    6  A    between atoms: CG_6  and  CD2_8 
REMARK    7  A    between atoms: N_9  and  CA_10 
REMARK    8  A    between atoms: CA_10  and  C_11 
REMARK    9  A    between atoms: CA_10  and  CB_13 
REMARK       I    between atoms: C_11  and  N_17 
REMARK   10  A    between atoms: CB_13  and  CG_14 
REMARK   11  A    between atoms: CG_14  and  CD1_15 
REMARK   12  A    between atoms: CG_14  and  CD2_16 
REMARK   13  A    between atoms: N_17  and  CA_18 
REMARK   14  A    between atoms: CA_18  and  C_19 
REMARK   15  A    between atoms: CA_18  and  CB_21 
REMARK       I    between atoms: C_19  and  N_25 
REMARK   16  A    between atoms: CB_21  and  CG_22 
REMARK   17  A    between atoms: N_25  and  CA_26 
REMARK   18  A    between atoms: CA_26  and  C_27 
REMARK   19  A    between atoms: CA_26  and  CB_29 
REMARK       I    between atoms: C_27  and  N_33 
REMARK   20  A    between atoms: CB_29  and  CG_30 
REMARK   21  A    between atoms: N_33  and  CA_34 
REMARK   22  A    between atoms: CA_34  and  C_35 
REMARK   23  A    between atoms: CA_34  and  CB_37 
REMARK       I    between atoms: C_35  and  N_42 
REMARK   24  A    between atoms: CB_37  and  CG_38 
REMARK   25  A    between atoms: CG_38  and  CD_39 
REMARK   26  A    between atoms: N_42  and  CA_43 
REMARK   27  A    between atoms: CA_43  and  C_44 
REMARK   28  A    between atoms: CA_43  and  CB_46 
REMARK       I    between atoms: C_44  and  N_50 
REMARK   29  A    between atoms: CB_46  and  CG_47 
REMARK   30  A    between atoms: CG_47  and  CD1_48 
REMARK   31  A    between atoms: CG_47  and  CD2_49 
REMARK   32  A    between atoms: N_50  and  CA_51 
REMARK   33  A    between atoms: CA_51  and  C_52 
REMARK   34  A    between atoms: CA_51  and  CB_54 
REMARK       I    between atoms: C_52  and  N_58 
REMARK   35  A    between atoms: CB_54  and  CG_55 
REMARK   36  A    between atoms: CG_55  and  SD_56 
REMARK   37  A    between atoms: SD_56  and  CE_57 
REMARK   38  A    between atoms: N_58  and  CA_59 
REMARK   39  A    between atoms: CA_59  and  C_60 
REMARK   40  A    between atoms: CA_59  and  CB_62 
REMARK       I    between atoms: C_60  and  N_64 
REMARK   41  A    between atoms: CB_62  and  OG_63 
REMARK   42  A    between atoms: N_64  and  CA_65 
REMARK   43  A    between atoms: CA_65  and  C_66 
REMARK   44  A    between atoms: CA_65  and  CB_68 
REMARK   45  A    between atoms: CB_68  and  CG_69 
REMARK   46  A    between atoms: CG_69  and  CD1_70 
REMARK   47  A    between atoms: CG_69  and  CD2_71 
ROOT
ATOM      1  CA  GLU d   1      -8.584 -15.689  -8.439  0.00  0.00     0.090 C 
ATOM      2  H34 GLU d   1      -8.833 -15.876  -7.384  0.00  0.00     0.087 H 
ENDROOT
BRANCH   1   3
ATOM      3  N   GLU d   1      -8.591 -14.267  -8.709  0.00  0.00    -0.346 N 
ATOM      4  C   ASP d   1      -8.549 -13.388  -7.722  0.00  0.00     0.241 C 
ATOM      5  O   ASP d   1      -8.641 -13.725  -6.547  0.00  0.00    -0.271 OA
ATOM      6  H33 GLU d   1      -8.628 -13.945  -9.655  0.00  0.00     0.163 HD
BRANCH   4   7
ATOM      7  CA  ASP d   1      -8.284 -11.942  -8.133  0.00  0.00     0.098 C 
ATOM      8  H30 ASP d   1      -9.040 -11.628  -8.867  0.00  0.00     0.088 H 
BRANCH   7   9
ATOM      9  N   ASP d   1      -8.326 -11.042  -6.992  0.00  0.00    -0.345 N 
ATOM     10  C   ASP d   1      -9.455 -10.756  -6.358  0.00  0.00     0.241 C 
ATOM     11  O   ASP d   1     -10.539 -11.220  -6.712  0.00  0.00    -0.271 OA
ATOM     12  H29 ASP d   1      -7.475 -10.624  -6.675  0.00  0.00     0.163 HD
BRANCH  10  13
ATOM     13  CA  ASP d   1      -9.370  -9.721  -5.226  0.00  0.00     0.098 C 
ATOM     14  H26 ASP d   1      -9.419  -8.734  -5.709  0.00  0.00     0.088 H 
BRANCH  13  15
ATOM     15  N   ASP d   1     -10.502  -9.807  -4.309  0.00  0.00    -0.346 N 
ATOM     16  C   LEU d   1     -11.294  -8.782  -3.998  0.00  0.00     0.241 C 
ATOM     17  O   LEU d   1     -11.986  -8.780  -2.983  0.00  0.00    -0.271 OA
ATOM     18  H25 ASP d   1     -10.696 -10.693  -3.887  0.00  0.00     0.163 HD
BRANCH  16  19
ATOM     19  CA  LEU d   1     -11.364  -7.582  -4.936  0.00  0.00     0.089 C 
ATOM     20  H15 LEU d   1     -12.290  -7.067  -4.641  0.00  0.00     0.087 H 
BRANCH  19  21
ATOM     21  N   LEU d   1     -10.326  -6.571  -4.773  0.00  0.00    -0.346 N 
ATOM     22  C   LEU d   1     -10.761  -5.470  -4.163  0.00  0.00     0.249 C 
ATOM     23  O   LEU d   1     -11.886  -5.409  -3.716  0.00  0.00    -0.271 OA
ATOM     24  H14 LEU d   1      -9.384  -6.692  -5.087  0.00  0.00     0.163 HD
BRANCH  22  25
ATOM     25  CA  LEU d   1      -9.873  -4.269  -4.034  0.00  0.00     0.176 C 
ATOM     26  H4  LEU d   1     -10.112  -3.757  -3.090  0.00  0.00     0.099 H 
BRANCH  25  27
ATOM     27  N   LEU d   1      -8.479  -4.633  -3.998  0.00  0.00    -0.066 N 
ATOM     28  H1  LEU d   1      -7.917  -3.801  -3.911  0.00  0.00     0.275 HD
ATOM     29  H2  LEU d   1      -8.236  -5.116  -4.849  0.00  0.00     0.275 HD
ATOM     30  H3  LEU d   1      -8.310  -5.237  -3.209  0.00  0.00     0.275 HD
ENDBRANCH  25  27
BRANCH  25  31
ATOM     31  CB  LEU d   1     -10.180  -3.327  -5.187  0.00  0.00    -0.028 C 
ATOM     32  H5  LEU d   1      -9.498  -3.535  -6.024  0.00  0.00     0.037 H 
ATOM     33  H6  LEU d   1     -10.049  -2.286  -4.857  0.00  0.00     0.037 H 
BRANCH  31  34
ATOM     34  CG  LEU d   1     -11.625  -3.543  -5.638  0.00  0.00    -0.059 C 
ATOM     35  H7  LEU d   1     -12.040  -4.289  -4.944  0.00  0.00     0.038 H 
BRANCH  34  36
ATOM     36  CD1 LEU d   1     -12.491  -2.303  -5.487  0.00  0.00    -0.073 C 
ATOM     37  H8  LEU d   1     -13.513  -2.526  -5.827  0.00  0.00     0.028 H 
ATOM     38  H9  LEU d   1     -12.072  -1.487  -6.094  0.00  0.00     0.028 H 
ATOM     39  H10 LEU d   1     -12.515  -1.999  -4.430  0.00  0.00     0.028 H 
ENDBRANCH  34  36
BRANCH  34  40
ATOM     40  CD2 LEU d   1     -11.760  -4.153  -7.033  0.00  0.00    -0.073 C 
ATOM     41  H11 LEU d   1     -11.121  -5.046  -7.106  0.00  0.00     0.028 H 
ATOM     42  H12 LEU d   1     -11.447  -3.416  -7.787  0.00  0.00     0.028 H 
ATOM     43  H13 LEU d   1     -12.808  -4.436  -7.209  0.00  0.00     0.028 H 
ENDBRANCH  34  40
ENDBRANCH  31  34
ENDBRANCH  25  31
ENDBRANCH  22  25
ENDBRANCH  19  21
BRANCH  19  44
ATOM     44  CB  LEU d   1     -11.583  -7.967  -6.403  0.00  0.00    -0.035 C 
ATOM     45  H16 LEU d   1     -11.443  -9.054  -6.499  0.00  0.00     0.037 H 
ATOM     46  H17 LEU d   1     -10.831  -7.445  -7.012  0.00  0.00     0.037 H 
BRANCH  44  47
ATOM     47  CG  LEU d   1     -12.972  -7.612  -6.947  0.00  0.00    -0.059 C 
ATOM     48  H18 LEU d   1     -13.068  -6.517  -6.915  0.00  0.00     0.038 H 
BRANCH  47  49
ATOM     49  CD1 LEU d   1     -13.151  -8.038  -8.402  0.00  0.00    -0.073 C 
ATOM     50  H19 LEU d   1     -14.160  -7.762  -8.743  0.00  0.00     0.028 H 
ATOM     51  H20 LEU d   1     -13.022  -9.127  -8.484  0.00  0.00     0.028 H 
ATOM     52  H21 LEU d   1     -12.401  -7.532  -9.027  0.00  0.00     0.028 H 
ENDBRANCH  47  49
BRANCH  47  53
ATOM     53  CD2 LEU d   1     -14.065  -8.199  -6.049  0.00  0.00    -0.073 C 
ATOM     54  H22 LEU d   1     -13.903  -7.871  -5.012  0.00  0.00     0.028 H 
ATOM     55  H23 LEU d   1     -14.028  -9.297  -6.096  0.00  0.00     0.028 H 
ATOM     56  H24 LEU d   1     -15.050  -7.850  -6.394  0.00  0.00     0.028 H 
ENDBRANCH  47  53
ENDBRANCH  44  47
ENDBRANCH  19  44
ENDBRANCH  16  19
ENDBRANCH  13  15
BRANCH  13  57
ATOM     57  CB  ASP d   1      -8.053  -9.757  -4.428  0.00  0.00     0.043 C 
ATOM     58  H27 ASP d   1      -8.297  -9.716  -3.356  0.00  0.00     0.052 H 
ATOM     59  H28 ASP d   1      -7.458  -8.873  -4.702  0.00  0.00     0.052 H 
BRANCH  57  60
ATOM     60  CG  ASP d   1      -7.211 -10.997  -4.680  0.00  0.00     0.175 C 
ATOM     61  OD1 ASP d   1      -6.371 -10.920  -5.588  0.00  0.00    -0.648 OA
ATOM     62  OD2 ASP d   1      -7.176 -11.924  -3.842  0.00  0.00    -0.648 OA
ENDBRANCH  57  60
ENDBRANCH  13  57
ENDBRANCH  10  13
ENDBRANCH   7   9
BRANCH   7  63
ATOM     63  CB  ASP d   1      -6.893 -11.884  -8.763  0.00  0.00     0.043 C 
ATOM     64  H31 ASP d   1      -6.590 -12.906  -9.033  0.00  0.00     0.052 H 
ATOM     65  H32 ASP d   1      -6.191 -11.478  -8.020  0.00  0.00     0.052 H 
BRANCH  63  66
ATOM     66  CG  ASP d   1      -6.828 -11.017 -10.011  0.00  0.00     0.175 C 
ATOM     67  OD1 ASP d   1      -7.409  -9.908 -10.035  0.00  0.00    -0.648 OA
ATOM     68  OD2 ASP d   1      -6.036 -11.388 -10.905  0.00  0.00    -0.648 OA
ENDBRANCH  63  66
ENDBRANCH   7  63
ENDBRANCH   4   7
ENDBRANCH   1   3
BRANCH   1  69
ATOM     69  C   GLU d   1      -7.177 -16.203  -8.734  0.00  0.00     0.241 C 
ATOM     70  O   GLU d   1      -6.460 -15.642  -9.562  0.00  0.00    -0.271 OA
ATOM     71  N   LEU d   1      -6.762 -17.235  -8.007  0.00  0.00    -0.346 N 
ATOM     72  H39 LEU d   1      -7.315 -17.534  -7.229  0.00  0.00     0.163 HD
BRANCH  71  73
ATOM     73  CA  LEU d   1      -5.528 -17.943  -8.309  0.00  0.00     0.089 C 
ATOM     74  H40 LEU d   1      -4.668 -17.278  -8.141  0.00  0.00     0.087 H 
BRANCH  73  75
ATOM     75  C   LEU d   1      -5.536 -18.418  -9.762  0.00  0.00     0.241 C 
ATOM     76  O   LEU d   1      -6.511 -19.026 -10.228  0.00  0.00    -0.271 OA
ATOM     77  N   MET d   1      -4.407 -18.214 -10.435  0.00  0.00    -0.346 N 
ATOM     78  H50 MET d   1      -3.811 -17.465 -10.147  0.00  0.00     0.163 HD
BRANCH  77  79
ATOM     79  CA  MET d   1      -3.995 -19.030 -11.573  0.00  0.00     0.090 C 
ATOM     80  H51 MET d   1      -4.623 -18.729 -12.425  0.00  0.00     0.087 H 
BRANCH  79  81
ATOM     81  C   MET d   1      -4.156 -20.541 -11.410  0.00  0.00     0.241 C 
ATOM     82  O   MET d   1      -4.061 -21.094 -10.315  0.00  0.00    -0.271 OA
ATOM     83  N   SER d   1      -4.324 -21.231 -12.532  0.00  0.00    -0.344 N 
ATOM     84  H59 SER d   1      -4.804 -20.818 -13.306  0.00  0.00     0.163 HD
BRANCH  83  85
ATOM     85  CA  SER d   1      -3.809 -22.590 -12.635  0.00  0.00     0.109 C 
ATOM     86  H60 SER d   1      -3.506 -22.952 -11.642  0.00  0.00     0.090 H 
BRANCH  85  87
ATOM     87  C   SER d   1      -2.602 -22.507 -13.551  0.00  0.00     0.243 C 
ATOM     88  O   SER d   1      -2.704 -21.998 -14.667  0.00  0.00    -0.271 OA
ATOM     89  N   LEU d   1      -1.494 -22.988 -13.051  0.00  0.00    -0.345 N 
ATOM     90  H64 LEU d   1      -1.471 -23.227 -12.080  0.00  0.00     0.163 HD
BRANCH  89  91
ATOM     91  CA  LEU d   1      -0.304 -23.188 -13.840  0.00  0.00     0.096 C 
ATOM     92  H65 LEU d   1       0.028 -24.221 -13.660  0.00  0.00     0.089 H 
BRANCH  91  93
ATOM     93  C   LEU d   1       0.813 -22.294 -13.397  0.00  0.00     0.196 C 
ATOM     94  O   LEU d   1       1.701 -22.773 -12.721  0.00  0.00    -0.646 OA
ATOM     95  OXT LEU d   1       1.012 -20.935 -13.193  0.00  0.00    -0.646 OA
ENDBRANCH  91  93
BRANCH  91  96
ATOM     96  CB  LEU d   1      -0.587 -23.072 -15.340  0.00  0.00    -0.034 C 
ATOM     97  H66 LEU d   1      -0.164 -22.118 -15.687  0.00  0.00     0.037 H 
ATOM     98  H67 LEU d   1      -1.679 -23.060 -15.474  0.00  0.00     0.037 H 
BRANCH  96  99
ATOM     99  CG  LEU d   1      -0.015 -24.194 -16.238  0.00  0.00    -0.059 C 
ATOM    100  H68 LEU d   1       0.913 -23.786 -16.665  0.00  0.00     0.038 H 
BRANCH  99 101
ATOM    101  CD1 LEU d   1       0.396 -25.472 -15.492  0.00  0.00    -0.073 C 
ATOM    102  H69 LEU d   1       0.788 -26.206 -16.211  0.00  0.00     0.028 H 
ATOM    103  H70 LEU d   1      -0.480 -25.894 -14.978  0.00  0.00     0.028 H 
ATOM    104  H71 LEU d   1       1.174 -25.231 -14.753  0.00  0.00     0.028 H 
ENDBRANCH  99 101
BRANCH  99 105
ATOM    105  CD2 LEU d   1      -0.922 -24.511 -17.418  0.00  0.00    -0.073 C 
ATOM    106  H72 LEU d   1      -1.198 -23.577 -17.930  0.00  0.00     0.028 H 
ATOM    107  H73 LEU d   1      -1.831 -25.013 -17.057  0.00  0.00     0.028 H 
ATOM    108  H74 LEU d   1      -0.393 -25.172 -18.120  0.00  0.00     0.028 H 
ENDBRANCH  99 105
ENDBRANCH  96  99
ENDBRANCH  91  96
ENDBRANCH  89  91
ENDBRANCH  85  87
BRANCH  85 109
ATOM    109  CB  SER d   1      -4.856 -23.544 -13.214  0.00  0.00     0.044 C 
ATOM    110  H61 SER d   1      -4.820 -24.493 -12.659  0.00  0.00     0.077 H 
ATOM    111  H62 SER d   1      -4.624 -23.729 -14.273  0.00  0.00     0.077 H 
BRANCH 109 112
ATOM    112  OG  SER d   1      -6.164 -23.004 -13.117  0.00  0.00    -0.398 OA
ATOM    113  H63 SER d   1      -6.787 -23.619 -13.484  0.00  0.00     0.209 HD
ENDBRANCH 109 112
ENDBRANCH  85 109
ENDBRANCH  83  85
ENDBRANCH  79  81
BRANCH  79 114
ATOM    114  CB  MET d   1      -2.540 -18.730 -11.921  0.00  0.00    -0.030 C 
ATOM    115  H52 MET d   1      -2.183 -19.507 -12.614  0.00  0.00     0.037 H 
ATOM    116  H53 MET d   1      -1.949 -18.766 -10.994  0.00  0.00     0.037 H 
BRANCH 114 117
ATOM    117  CG  MET d   1      -2.323 -17.373 -12.573  0.00  0.00    -0.021 C 
ATOM    118  H54 MET d   1      -2.358 -16.592 -11.799  0.00  0.00     0.049 H 
ATOM    119  H55 MET d   1      -3.120 -17.195 -13.309  0.00  0.00     0.049 H 
BRANCH 117 120
ATOM    120  SD  MET d   1      -0.721 -17.309 -13.408  0.00  0.00    -0.173 SA
BRANCH 120 121
ATOM    121  CE  MET d   1      -1.087 -16.124 -14.704  0.00  0.00    -0.035 C 
ATOM    122  H56 MET d   1      -0.190 -15.967 -15.321  0.00  0.00     0.041 H 
ATOM    123  H57 MET d   1      -1.393 -15.169 -14.252  0.00  0.00     0.041 H 
ATOM    124  H58 MET d   1      -1.903 -16.509 -15.334  0.00  0.00     0.041 H 
ENDBRANCH 120 121
ENDBRANCH 117 120
ENDBRANCH 114 117
ENDBRANCH  79 114
ENDBRANCH  77  79
ENDBRANCH  73  75
BRANCH  73 125
ATOM    125  CB  LEU d   1      -5.430 -19.164  -7.399  0.00  0.00    -0.035 C 
ATOM    126  H41 LEU d   1      -5.725 -20.026  -8.016  0.00  0.00     0.037 H 
ATOM    127  H42 LEU d   1      -6.175 -19.010  -6.604  0.00  0.00     0.037 H 
BRANCH 125 128
ATOM    128  CG  LEU d   1      -4.139 -19.575  -6.692  0.00  0.00    -0.059 C 
ATOM    129  H43 LEU d   1      -4.136 -19.053  -5.723  0.00  0.00     0.038 H 
BRANCH 128 130
ATOM    130  CD1 LEU d   1      -4.179 -21.066  -6.395  0.00  0.00    -0.073 C 
ATOM    131  H44 LEU d   1      -3.250 -21.363  -5.886  0.00  0.00     0.028 H 
ATOM    132  H45 LEU d   1      -4.276 -21.625  -7.337  0.00  0.00     0.028 H 
ATOM    133  H46 LEU d   1      -5.040 -21.288  -5.747  0.00  0.00     0.028 H 
ENDBRANCH 128 130
BRANCH 128 134
ATOM    134  CD2 LEU d   1      -2.860 -19.164  -7.387  0.00  0.00    -0.073 C 
ATOM    135  H47 LEU d   1      -2.879 -18.081  -7.580  0.00  0.00     0.028 H 
ATOM    136  H48 LEU d   1      -2.771 -19.704  -8.341  0.00  0.00     0.028 H 
ATOM    137  H49 LEU d   1      -2.000 -19.407  -6.746  0.00  0.00     0.028 H 
ENDBRANCH 128 134
ENDBRANCH 125 128
ENDBRANCH  73 125
ENDBRANCH  71  73
ENDBRANCH   1  69
BRANCH   1 138
ATOM    138  CB  GLU d   1      -9.625 -16.371  -9.335  0.00  0.00    -0.029 C 
ATOM    139  H35 GLU d   1      -9.132 -16.641 -10.281  0.00  0.00     0.037 H 
ATOM    140  H36 GLU d   1     -10.428 -15.646  -9.534  0.00  0.00     0.037 H 
BRANCH 138 141
ATOM    141  CG  GLU d   1     -10.266 -17.636  -8.761  0.00  0.00     0.018 C 
ATOM    142  H37 GLU d   1      -9.472 -18.265  -8.332  0.00  0.00     0.049 H 
ATOM    143  H38 GLU d   1     -10.761 -18.178  -9.580  0.00  0.00     0.049 H 
BRANCH 141 144
ATOM    144  CD  GLU d   1     -11.302 -17.355  -7.672  0.00  0.00     0.172 C 
ATOM    145  OE1 GLU d   1     -11.515 -18.248  -6.822  0.00  0.00    -0.648 OA
ATOM    146  OE2 GLU d   1     -11.905 -16.257  -7.652  0.00  0.00    -0.648 OA
ENDBRANCH 141 144
ENDBRANCH 138 141
ENDBRANCH   1 138
TORSDOF 47
