REMARK  6 active torsions:
REMARK  status: ('A' for Active; 'I' for Inactive)
REMARK    1  A    between atoms: N1_9  and  C1'_10 
REMARK    2  A    between atoms: C2'_12  and  O2'_13 
REMARK    3  A    between atoms: C3'_14  and  O3'_15 
REMARK    4  A    between atoms: C4'_16  and  C5'_17 
REMARK    5  A    between atoms: C5'_17  and  O5'_18 
REMARK    6  A    between atoms: O5'_18  and  P_19 
ROOT
ATOM      1  C1' 5FU d   1      22.252   7.728  15.788  0.00  0.00     0.141 C 
ATOM      2  O4' 5FU d   1      23.489   7.644  15.020  0.00  0.00    -0.353 OA
ATOM      3  C2' 5FU d   1      22.254   6.522  16.699  0.00  0.00     0.105 C 
ATOM      4  C3' 5FU d   1      23.740   6.168  16.794  0.00  0.00     0.091 C 
ATOM      5  C4' 5FU d   1      24.366   6.618  15.484  0.00  0.00     0.089 C 
ATOM      6  H3  5FU d   1      22.288   8.595  16.464  0.00  0.00     0.123 H 
ATOM      7  H4  5FU d   1      21.648   5.681  16.331  0.00  0.00     0.093 H 
ATOM      8  H6  5FU d   1      23.871   5.089  16.965  0.00  0.00     0.091 H 
ATOM      9  H8  5FU d   1      25.365   7.037  15.675  0.00  0.00     0.090 H 
ENDROOT
BRANCH   1  10
ATOM     10  N1  5FU d   1      21.250   8.072  14.761  0.00  0.00    -0.277 N 
ATOM     11  C2  5FU d   1      21.152   7.259  13.686  0.00  0.00     0.331 A 
ATOM     12  N3  5FU d   1      20.336   7.512  12.631  0.00  0.00    -0.273 N 
ATOM     13  O2  5FU d   1      21.757   6.172  13.699  0.00  0.00    -0.246 OA
ATOM     14  C4  5FU d   1      19.629   8.666  12.601  0.00  0.00     0.289 A 
ATOM     15  H1  5FU d   1      20.258   6.852  11.883  0.00  0.00     0.173 HD
ATOM     16  C5  5FU d   1      19.741   9.569  13.770  0.00  0.00     0.199 A 
ATOM     17  O4  5FU d   1      18.858   8.971  11.643  0.00  0.00    -0.265 OA
ATOM     18  F5  5FU d   1      19.034  10.696  13.801  0.00  0.00    -0.199 F 
ATOM     19  C6  5FU d   1      20.561   9.238  14.854  0.00  0.00     0.030 A 
ATOM     20  H2  5FU d   1      20.642   9.883  15.728  0.00  0.00     0.117 H 
ENDBRANCH   1  10
BRANCH   3  21
ATOM     21  O2' 5FU d   1      21.760   7.046  17.930  0.00  0.00    -0.388 OA
ATOM     22  H5  5FU d   1      20.889   7.400  17.795  0.00  0.00     0.210 HD
ENDBRANCH   3  21
BRANCH   5  23
ATOM     23  C5' 5FU d   1      24.514   5.475  14.463  0.00  0.00     0.059 C 
ATOM     24  H9  5FU d   1      25.022   5.845  13.560  0.00  0.00     0.079 H 
ATOM     25  H10 5FU d   1      23.521   5.087  14.192  0.00  0.00     0.079 H 
BRANCH  23  26
ATOM     26  O5' 5FU d   1      25.290   4.439  15.064  0.00  0.00    -0.280 OA
BRANCH  26  27
ATOM     27  P   5FU d   1      25.654   2.987  14.443  0.00  0.00     0.422 P 
ATOM     28  O1P 5FU d   1      26.241   2.362  15.692  0.00  0.00    -0.617 OA
ATOM     29  O2P 5FU d   1      24.367   2.383  13.996  0.00  0.00    -0.617 OA
ATOM     30  O3P 5FU d   1      26.757   3.250  13.473  0.00  0.00    -0.617 OA
ENDBRANCH  26  27
ENDBRANCH  23  26
ENDBRANCH   5  23
BRANCH   4  31
ATOM     31  O3' 5FU d   1      24.411   6.928  17.802  0.00  0.00    -0.390 OA
ATOM     32  H7  5FU d   1      25.327   6.678  17.828  0.00  0.00     0.210 HD
ENDBRANCH   4  31
TORSDOF 6
