REMARK  6 active torsions:
REMARK  status: ('A' for Active; 'I' for Inactive)
REMARK    1  A    between atoms: N1_9  and  C1'_10 
REMARK    2  A    between atoms: C2'_12  and  O2'_13 
REMARK    3  A    between atoms: C3'_14  and  O3'_15 
REMARK    4  A    between atoms: C4'_16  and  C5'_17 
REMARK    5  A    between atoms: C5'_17  and  O5'_18 
REMARK    6  A    between atoms: O5'_18  and  P_19 
ROOT
ATOM      1  C1' 5FU d   1     -13.037 -10.030   5.922  0.00  0.00     0.141 C 
ATOM      2  O4' 5FU d   1     -13.046 -11.458   6.173  0.00  0.00    -0.353 OA
ATOM      3  C2' 5FU d   1     -12.297  -9.446   7.120  0.00  0.00     0.105 C 
ATOM      4  C3' 5FU d   1     -11.340 -10.548   7.550  0.00  0.00     0.091 C 
ATOM      5  C4' 5FU d   1     -12.131 -11.806   7.215  0.00  0.00     0.089 C 
ATOM      6  H3  5FU d   1     -12.492  -9.805   4.993  0.00  0.00     0.123 H 
ATOM      7  H4  5FU d   1     -12.996  -9.189   7.930  0.00  0.00     0.093 H 
ATOM      8  H6  5FU d   1     -11.113 -10.484   8.624  0.00  0.00     0.091 H 
ATOM      9  H8  5FU d   1     -11.443 -12.579   6.843  0.00  0.00     0.090 H 
ENDROOT
BRANCH   1  10
ATOM     10  N1  5FU d   1     -14.419  -9.511   5.805  0.00  0.00    -0.277 N 
ATOM     11  C2  5FU d   1     -15.406 -10.088   6.624  0.00  0.00     0.331 A 
ATOM     12  N3  5FU d   1     -16.717 -10.012   6.322  0.00  0.00    -0.273 N 
ATOM     13  O2  5FU d   1     -15.033 -10.556   7.729  0.00  0.00    -0.246 OA
ATOM     14  C4  5FU d   1     -17.170  -9.464   5.154  0.00  0.00     0.289 A 
ATOM     15  H1  5FU d   1     -17.383 -10.370   6.976  0.00  0.00     0.173 HD
ATOM     16  C5  5FU d   1     -16.214  -8.921   4.282  0.00  0.00     0.199 A 
ATOM     17  O4  5FU d   1     -18.402  -9.488   4.912  0.00  0.00    -0.265 OA
ATOM     18  F5  5FU d   1     -16.649  -8.261   3.190  0.00  0.00    -0.199 F 
ATOM     19  C6  5FU d   1     -14.855  -8.909   4.582  0.00  0.00     0.030 A 
ATOM     20  H2  5FU d   1     -14.139  -8.451   3.901  0.00  0.00     0.117 H 
ENDBRANCH   1  10
BRANCH   3  21
ATOM     21  O2' 5FU d   1     -11.555  -8.283   6.724  0.00  0.00    -0.388 OA
ATOM     22  H5  5FU d   1     -12.152  -7.630   6.378  0.00  0.00     0.210 HD
ENDBRANCH   3  21
BRANCH   5  23
ATOM     23  C5' 5FU d   1     -12.842 -12.357   8.466  0.00  0.00     0.059 C 
ATOM     24  H9  5FU d   1     -13.512 -13.186   8.194  0.00  0.00     0.079 H 
ATOM     25  H10 5FU d   1     -13.422 -11.564   8.960  0.00  0.00     0.079 H 
BRANCH  23  26
ATOM     26  O5' 5FU d   1     -11.800 -12.818   9.321  0.00  0.00    -0.280 OA
BRANCH  26  27
ATOM     27  P   5FU d   1     -12.176 -13.426  10.787  0.00  0.00     0.422 P 
ATOM     28  O1P 5FU d   1     -12.550 -14.880  10.539  0.00  0.00    -0.617 OA
ATOM     29  O2P 5FU d   1     -10.870 -13.295  11.505  0.00  0.00    -0.617 OA
ATOM     30  O3P 5FU d   1     -13.333 -12.662  11.377  0.00  0.00    -0.617 OA
ENDBRANCH  26  27
ENDBRANCH  23  26
ENDBRANCH   5  23
BRANCH   4  31
ATOM     31  O3' 5FU d   1     -10.122 -10.523   6.793  0.00  0.00    -0.390 OA
ATOM     32  H7  5FU d   1      -9.552 -11.223   7.089  0.00  0.00     0.210 HD
ENDBRANCH   4  31
TORSDOF 6
