REMARK  3 active torsions:
REMARK  status: ('A' for Active; 'I' for Inactive)
REMARK    1  A    between atoms: C1_1  and  S2_2 
REMARK    2  A    between atoms: S2_2  and  C3_3 
REMARK    3  A    between atoms: N13_13  and  C14_14 
ROOT
ATOM      1  C3  TC8 d   1     -45.951 -26.209   9.131  0.00  0.00     0.176 A 
ATOM      2  N4  TC8 d   1     -45.889 -27.545   9.230  0.00  0.00    -0.223 NA
ATOM      3  C5  TC8 d   1     -46.779 -28.335   8.613  0.00  0.00     0.075 A 
ATOM      4  C6  TC8 d   1     -46.670 -29.716   8.732  0.00  0.00    -0.054 A 
ATOM      5  C7  TC8 d   1     -47.580 -30.544   8.085  0.00  0.00    -0.081 A 
ATOM      6  C8  TC8 d   1     -48.602 -29.993   7.319  0.00  0.00    -0.082 A 
ATOM      7  C9  TC8 d   1     -48.713 -28.612   7.201  0.00  0.00    -0.065 A 
ATOM      8  C10 TC8 d   1     -47.801 -27.785   7.848  0.00  0.00     0.061 A 
ATOM      9  C11 TC8 d   1     -47.897 -26.403   7.726  0.00  0.00     0.267 A 
ATOM     10  O12 TC8 d   1     -48.808 -25.898   7.071  0.00  0.00    -0.267 OA
ATOM     11  N13 TC8 d   1     -46.957 -25.596   8.375  0.00  0.00    -0.250 N 
ATOM     12  H4  TC8 d   1     -45.875 -30.147   9.330  0.00  0.00     0.087 H 
ATOM     13  H5  TC8 d   1     -47.493 -31.620   8.178  0.00  0.00     0.083 H 
ATOM     14  H6  TC8 d   1     -49.311 -30.640   6.815  0.00  0.00     0.083 H 
ATOM     15  H7  TC8 d   1     -49.509 -28.180   6.606  0.00  0.00     0.085 H 
ENDROOT
BRANCH  11  16
ATOM     16  C14 TC8 d   1     -47.016 -24.199   8.280  0.00  0.00     0.121 A 
ATOM     17  C15 TC8 d   1     -47.703 -23.466   9.243  0.00  0.00     0.146 A 
ATOM     18  F16 TC8 d   1     -48.314 -24.095  10.267  0.00  0.00    -0.204 F 
ATOM     19  C17 TC8 d   1     -47.762 -22.080   9.158  0.00  0.00    -0.043 A 
ATOM     20  C18 TC8 d   1     -47.136 -21.417   8.109  0.00  0.00    -0.077 A 
ATOM     21  H8  TC8 d   1     -48.298 -21.515   9.912  0.00  0.00     0.088 H 
ATOM     22  C19 TC8 d   1     -46.448 -22.146   7.145  0.00  0.00    -0.043 A 
ATOM     23  H9  TC8 d   1     -47.184 -20.336   8.043  0.00  0.00     0.083 H 
ATOM     24  C20 TC8 d   1     -46.387 -23.532   7.233  0.00  0.00     0.146 A 
ATOM     25  H10 TC8 d   1     -45.959 -21.633   6.325  0.00  0.00     0.088 H 
ATOM     26  F21 TC8 d   1     -45.691 -24.218   6.305  0.00  0.00    -0.204 F 
ENDBRANCH  11  16
BRANCH   1  27
ATOM     27  S2  TC8 d   1     -44.760 -25.230   9.955  0.00  0.00    -0.096 SA
BRANCH  27  28
ATOM     28  C1  TC8 d   1     -43.572 -26.371  10.632  0.00  0.00    -0.027 C 
ATOM     29  H1  TC8 d   1     -42.790 -25.812  11.167  0.00  0.00     0.042 H 
ATOM     30  H2  TC8 d   1     -43.115 -26.951   9.817  0.00  0.00     0.042 H 
ATOM     31  H3  TC8 d   1     -44.077 -27.055  11.330  0.00  0.00     0.042 H 
ENDBRANCH  27  28
ENDBRANCH   1  27
TORSDOF 3
