REMARK  10 active torsions:
REMARK  status: ('A' for Active; 'I' for Inactive)
REMARK    1  A    between atoms: C5_5  and  C48_29 
REMARK    2  A    between atoms: S7_7  and  C8_8 
REMARK    3  A    between atoms: N27_26  and  S7_7 
REMARK    4  A    between atoms: C11_11  and  O14_14 
REMARK    5  A    between atoms: O14_14  and  C15_15 
REMARK    6  A    between atoms: C15_15  and  C16_16 
REMARK    7  A    between atoms: C24_23  and  C23_22 
REMARK    8  A    between atoms: C25_24  and  C24_23 
REMARK    9  A    between atoms: C25_24  and  C26_25 
REMARK   10  A    between atoms: C25_24  and  N27_26 
ROOT
ATOM      1  C16 792 d   1      48.014  34.493 110.326  0.00  0.00    -0.091 C 
ATOM      2  C17 792 d   1      48.094  33.986 111.400  0.00  0.00    -0.152 C 
ATOM      3  H10 792 d   1      48.165  33.536 112.353  0.00  0.00     0.166 H 
ENDROOT
BRANCH   1   4
ATOM      4  C15 792 d   1      47.938  35.179 109.013  0.00  0.00     0.080 C 
ATOM      5  H8  792 d   1      46.900  35.502 108.843  0.00  0.00     0.094 H 
ATOM      6  H9  792 d   1      48.597  36.059 109.036  0.00  0.00     0.094 H 
BRANCH   4   7
ATOM      7  O14 792 d   1      48.341  34.330 107.924  0.00  0.00    -0.340 OA
BRANCH   7   8
ATOM      8  C11 792 d   1      49.708  33.988 107.766  0.00  0.00     0.070 A 
ATOM      9  C10 792 d   1      50.021  32.595 107.832  0.00  0.00    -0.049 A 
ATOM     10  C9  792 d   1      51.371  32.154 107.678  0.00  0.00    -0.058 A 
ATOM     11  H5  792 d   1      49.232  31.871 107.999  0.00  0.00     0.087 H 
ATOM     12  C8  792 d   1      52.407  33.117 107.455  0.00  0.00     0.079 A 
ATOM     13  H4  792 d   1      51.609  31.098 107.730  0.00  0.00     0.086 H 
ATOM     14  C13 792 d   1      52.111  34.527 107.385  0.00  0.00    -0.058 A 
ATOM     15  C12 792 d   1      50.754  34.967 107.541  0.00  0.00    -0.049 A 
ATOM     16  H7  792 d   1      52.904  35.246 107.216  0.00  0.00     0.086 H 
ATOM     17  H6  792 d   1      50.513  36.023 107.491  0.00  0.00     0.087 H 
BRANCH  12  18
ATOM     18  S7  792 d   1      54.092  32.566 107.262  0.00  0.00     0.259 S 
ATOM     19  O19 792 d   1      54.942  33.539 107.880  0.00  0.00    -0.201 OA
ATOM     20  O20 792 d   1      54.178  31.236 107.812  0.00  0.00    -0.201 OA
BRANCH  18  21
ATOM     21  N27 792 d   1      54.498  32.492 105.645  0.00  0.00    -0.300 N 
ATOM     22  H16 792 d   1      55.222  33.098 105.315  0.00  0.00     0.173 HD
BRANCH  21  23
ATOM     23  C25 792 d   1      53.849  31.580 104.663  0.00  0.00     0.107 C 
ATOM     24  H15 792 d   1      53.369  30.767 105.228  0.00  0.00     0.091 H 
BRANCH  23  25
ATOM     25  C24 792 d   1      54.923  30.943 103.713  0.00  0.00    -0.010 C 
ATOM     26  H13 792 d   1      55.688  30.464 104.342  0.00  0.00     0.044 H 
ATOM     27  H14 792 d   1      54.421  30.180 103.100  0.00  0.00     0.044 H 
BRANCH  25  28
ATOM     28  C23 792 d   1      55.639  31.921 102.759  0.00  0.00    -0.028 A 
ATOM     29  C3  792 d   1      55.255  32.346 101.416  0.00  0.00    -0.001 A 
ATOM     30  C2  792 d   1      56.265  33.278 100.954  0.00  0.00     0.043 A 
ATOM     31  C4  792 d   1      54.145  32.032 100.552  0.00  0.00    -0.065 A 
ATOM     32  C1  792 d   1      56.173  33.887  99.656  0.00  0.00    -0.056 A 
ATOM     33  N21 792 d   1      57.198  33.390 101.973  0.00  0.00    -0.365 N 
ATOM     34  C6  792 d   1      55.070  33.569  98.808  0.00  0.00    -0.075 A 
ATOM     35  H1  792 d   1      56.935  34.582  99.323  0.00  0.00     0.087 H 
ATOM     36  C5  792 d   1      54.066  32.645  99.258  0.00  0.00    -0.061 A 
ATOM     37  H3  792 d   1      54.990  34.023  97.827  0.00  0.00     0.084 H 
ATOM     38  C22 792 d   1      56.838  32.606 103.018  0.00  0.00    -0.015 A 
ATOM     39  H11 792 d   1      58.041  33.982 101.941  0.00  0.00     0.165 HD
ATOM     40  H12 792 d   1      57.407  32.518 103.942  0.00  0.00     0.112 H 
ATOM     41  H2  792 d   1      53.377  31.339 100.877  0.00  0.00     0.085 H 
BRANCH  36  42
ATOM     42  C48 792 d   1      52.931  32.321  98.379  0.00  0.00    -0.051 C 
ATOM     43  H17 792 d   1      52.269  31.603  98.885  0.00  0.00     0.033 H 
ATOM     44  H18 792 d   1      53.306  31.878  97.444  0.00  0.00     0.033 H 
ATOM     45  H19 792 d   1      52.370  33.239  98.151  0.00  0.00     0.033 H 
ENDBRANCH  36  42
ENDBRANCH  25  28
ENDBRANCH  23  25
BRANCH  23  46
ATOM     46  C26 792 d   1      52.773  32.277 103.856  0.00  0.00     0.197 C 
ATOM     47  O28 792 d   1      52.886  33.484 103.666  0.00  0.00    -0.646 OA
ATOM     48  O29 792 d   1      51.852  31.604 103.396  0.00  0.00    -0.646 OA
ENDBRANCH  23  46
ENDBRANCH  21  23
ENDBRANCH  18  21
ENDBRANCH  12  18
ENDBRANCH   7   8
ENDBRANCH   4   7
ENDBRANCH   1   4
TORSDOF 10
