REMARK  4 active torsions:
REMARK  status: ('A' for Active; 'I' for Inactive)
REMARK    1  A    between atoms: C15_8  and  C35_17 
REMARK    2  A    between atoms: C19_10  and  C22_11 
REMARK    3  A    between atoms: C25_13  and  N50_24 
REMARK    4  A    between atoms: C35_17  and  C37_18 
ROOT
ATOM      1  C1  988 d   1      28.766  22.951  10.538  0.00  0.00    -0.069 A 
ATOM      2  C2  988 d   1      29.137  21.710  11.008  0.00  0.00    -0.006 A 
ATOM      3  C3  988 d   1      29.474  21.569  12.437  0.00  0.00     0.077 A 
ATOM      4  N4  988 d   1      29.427  22.646  13.254  0.00  0.00    -0.259 NA
ATOM      5  C5  988 d   1      29.066  23.846  12.761  0.00  0.00     0.003 A 
ATOM      6  C6  988 d   1      28.729  24.026  11.420  0.00  0.00    -0.065 A 
ATOM      7  C13 988 d   1      29.191  20.603  10.182  0.00  0.00    -0.064 A 
ATOM      8  C15 988 d   1      29.551  19.340  10.671  0.00  0.00    -0.052 A 
ATOM      9  C17 988 d   1      29.878  19.156  12.022  0.00  0.00    -0.064 A 
ATOM     10  C19 988 d   1      29.839  20.224  12.919  0.00  0.00     0.004 A 
ATOM     11  H   988 d   1      28.505  23.088   9.489  0.00  0.00     0.085 H 
ATOM     12  H   988 d   1      29.036  24.704  13.432  0.00  0.00     0.114 H 
ATOM     13  H   988 d   1      28.436  25.013  11.062  0.00  0.00     0.085 H 
ATOM     14  H   988 d   1      28.948  20.715   9.125  0.00  0.00     0.085 H 
ATOM     15  H   988 d   1      30.166  18.166  12.376  0.00  0.00     0.085 H 
ENDROOT
BRANCH   8  16
ATOM     16  C35 988 d   1      29.614  18.175   9.696  0.00  0.00    -0.017 C 
ATOM     17  H   988 d   1      30.608  17.732   9.755  0.00  0.00     0.047 H 
ATOM     18  H   988 d   1      29.398  18.552   8.697  0.00  0.00     0.047 H 
BRANCH  16  19
ATOM     19  C37 988 d   1      28.608  17.118  10.028  0.00  0.00    -0.051 A 
ATOM     20  C39 988 d   1      27.275  17.263   9.655  0.00  0.00    -0.060 A 
ATOM     21  C40 988 d   1      26.365  16.264   9.996  0.00  0.00     0.002 A 
ATOM     22  H   988 d   1      26.948  18.145   9.104  0.00  0.00     0.086 H 
ATOM     23  N41 988 d   1      26.752  15.174  10.661  0.00  0.00    -0.273 NA
ATOM     24  H   988 d   1      25.318  16.375   9.714  0.00  0.00     0.114 H 
ATOM     25  C42 988 d   1      28.032  15.003  11.007  0.00  0.00     0.002 A 
ATOM     26  C43 988 d   1      28.997  15.970  10.697  0.00  0.00    -0.060 A 
ATOM     27  H   988 d   1      28.329  14.098  11.538  0.00  0.00     0.114 H 
ATOM     28  H   988 d   1      30.039  15.821  10.979  0.00  0.00     0.086 H 
ENDBRANCH  16  19
ENDBRANCH   8  16
BRANCH  10  29
ATOM     29  C22 988 d   1      30.204  20.063  14.335  0.00  0.00    -0.021 A 
ATOM     30  C24 988 d   1      31.410  19.465  14.629  0.00  0.00    -0.040 A 
ATOM     31  C25 988 d   1      31.817  19.289  15.941  0.00  0.00     0.103 A 
ATOM     32  H   988 d   1      32.053  19.125  13.817  0.00  0.00     0.088 H 
ATOM     33  C26 988 d   1      31.013  19.736  16.968  0.00  0.00    -0.051 A 
ATOM     34  C27 988 d   1      29.804  20.349  16.675  0.00  0.00    -0.080 A 
ATOM     35  H   988 d   1      31.326  19.608  18.004  0.00  0.00     0.087 H 
ATOM     36  C28 988 d   1      29.398  20.514  15.358  0.00  0.00    -0.072 A 
ATOM     37  H   988 d   1      29.168  20.704  17.485  0.00  0.00     0.083 H 
ATOM     38  H   988 d   1      28.447  20.997  15.134  0.00  0.00     0.084 H 
BRANCH  31  39
ATOM     39  N50 988 d   1      33.040  18.663  16.226  0.00  0.00    -0.116 N 
ATOM     40  O52 988 d   1      33.763  18.243  15.323  0.00  0.00    -0.532 OA
ATOM     41  O54 988 d   1      33.431  18.520  17.566  0.00  0.00    -0.532 OA
ENDBRANCH  31  39
ENDBRANCH  10  29
TORSDOF 4
