REMARK  4 active torsions:
REMARK  status: ('A' for Active; 'I' for Inactive)
REMARK    1  A    between atoms: C40_10  and  N54_8 
REMARK    2  A    between atoms: C22_15  and  N13_16 
REMARK    3  A    between atoms: N15_19  and  C24_22 
REMARK    4  A    between atoms: C24_22  and  C26_23 
ROOT
ATOM      1  C1  D71 d   1      22.803   6.199  19.335  0.00  0.00    -0.062 A 
ATOM      2  C2  D71 d   1      23.383   6.801  18.273  0.00  0.00     0.079 A 
ATOM      3  C3  D71 d   1      24.575   7.669  18.492  0.00  0.00     0.154 A 
ATOM      4  C5  D71 d   1      24.386   7.202  20.845  0.00  0.00     0.004 A 
ATOM      5  C6  D71 d   1      23.316   6.407  20.695  0.00  0.00    -0.065 A 
ATOM      6  C14 D71 d   1      24.649   8.111  16.036  0.00  0.00     0.338 A 
ATOM      7  N13 D71 d   1      25.210   8.311  17.351  0.00  0.00    -0.247 N 
ATOM      8  N4  D71 d   1      25.007   7.857  19.731  0.00  0.00    -0.242 NA
ATOM      9  O52 D71 d   1      25.189   8.644  15.067  0.00  0.00    -0.246 OA
ATOM     10  N15 D71 d   1      23.474   7.272  15.833  0.00  0.00    -0.261 N 
ATOM     11  C16 D71 d   1      22.849   6.606  16.922  0.00  0.00     0.266 A 
ATOM     12  O50 D71 d   1      21.824   5.886  16.715  0.00  0.00    -0.267 OA
ATOM     13  H1  D71 d   1      21.946   5.553  19.180  0.00  0.00     0.085 H 
ATOM     14  H2  D71 d   1      24.793   7.354  21.838  0.00  0.00     0.114 H 
ATOM     15  H3  D71 d   1      22.846   5.934  21.549  0.00  0.00     0.085 H 
ENDROOT
BRANCH   7  16
ATOM     16  C22 D71 d   1      26.407   9.160  17.523  0.00  0.00     0.048 A 
ATOM     17  C39 D71 d   1      26.419  10.600  17.179  0.00  0.00    -0.025 A 
ATOM     18  C40 D71 d   1      27.545  11.352  17.371  0.00  0.00     0.105 A 
ATOM     19  H4  D71 d   1      25.527  11.062  16.771  0.00  0.00     0.090 H 
ATOM     20  C41 D71 d   1      28.772  10.726  17.925  0.00  0.00    -0.051 A 
ATOM     21  C42 D71 d   1      28.772   9.419  18.234  0.00  0.00    -0.078 A 
ATOM     22  H5  D71 d   1      29.664  11.322  18.079  0.00  0.00     0.087 H 
ATOM     23  C43 D71 d   1      27.547   8.601  18.038  0.00  0.00    -0.056 A 
ATOM     24  H6  D71 d   1      29.670   8.958  18.628  0.00  0.00     0.083 H 
ATOM     25  H7  D71 d   1      27.555   7.551  18.305  0.00  0.00     0.086 H 
BRANCH  18  26
ATOM     26  N54 D71 d   1      27.548  12.713  17.008  0.00  0.00    -0.116 N 
ATOM     27  O56 D71 d   1      26.580  13.234  16.547  0.00  0.00    -0.532 OA
ATOM     28  O58 D71 d   1      28.666  13.435  17.137  0.00  0.00    -0.532 OA
ENDBRANCH  18  26
ENDBRANCH   7  16
BRANCH  10  29
ATOM     29  C24 D71 d   1      22.940   7.045  14.460  0.00  0.00     0.031 C 
ATOM     30  H8  D71 d   1      22.785   8.015  13.966  0.00  0.00     0.072 H 
ATOM     31  H9  D71 d   1      21.981   6.510  14.527  0.00  0.00     0.072 H 
BRANCH  29  32
ATOM     32  C26 D71 d   1      23.907   6.228  13.653  0.00  0.00    -0.037 A 
ATOM     33  C32 D71 d   1      24.704   6.731  12.679  0.00  0.00    -0.058 A 
ATOM     34  C31 D71 d   1      25.644   5.803  11.963  0.00  0.00     0.002 A 
ATOM     35  H10 D71 d   1      24.664   7.783  12.421  0.00  0.00     0.086 H 
ATOM     36  N30 D71 d   1      25.677   4.534  12.287  0.00  0.00    -0.273 NA
ATOM     37  H11 D71 d   1      26.292   6.182  11.181  0.00  0.00     0.114 H 
ATOM     38  C29 D71 d   1      24.848   4.010  13.331  0.00  0.00     0.002 A 
ATOM     39  C28 D71 d   1      24.006   4.802  14.020  0.00  0.00    -0.058 A 
ATOM     40  H12 D71 d   1      24.900   2.954  13.571  0.00  0.00     0.114 H 
ATOM     41  H13 D71 d   1      23.410   4.399  14.831  0.00  0.00     0.086 H 
ENDBRANCH  29  32
ENDBRANCH  10  29
TORSDOF 4
