REMARK  4 active torsions:
REMARK  status: ('A' for Active; 'I' for Inactive)
REMARK    1  A    between atoms: C40_10  and  N54_8 
REMARK    2  A    between atoms: C22_15  and  N13_16 
REMARK    3  A    between atoms: N15_19  and  C24_22 
REMARK    4  A    between atoms: C24_22  and  C26_23 
ROOT
ATOM      1  C1  D71 d   1      22.511  -1.324  34.622  0.00  0.00    -0.062 A 
ATOM      2  C2  D71 d   1      22.468  -2.381  33.766  0.00  0.00     0.079 A 
ATOM      3  C3  D71 d   1      22.533  -3.772  34.351  0.00  0.00     0.154 A 
ATOM      4  C5  D71 d   1      22.667  -2.833  36.550  0.00  0.00     0.004 A 
ATOM      5  C6  D71 d   1      22.610  -1.558  36.077  0.00  0.00    -0.065 A 
ATOM      6  C14 D71 d   1      22.391  -4.689  31.997  0.00  0.00     0.338 A 
ATOM      7  N13 D71 d   1      22.490  -4.917  33.459  0.00  0.00    -0.247 N 
ATOM      8  N4  D71 d   1      22.626  -3.939  35.650  0.00  0.00    -0.242 NA
ATOM      9  O52 D71 d   1      22.355  -5.657  31.229  0.00  0.00    -0.246 OA
ATOM     10  N15 D71 d   1      22.349  -3.336  31.435  0.00  0.00    -0.261 N 
ATOM     11  C16 D71 d   1      22.375  -2.189  32.293  0.00  0.00     0.266 A 
ATOM     12  O50 D71 d   1      22.338  -1.026  31.787  0.00  0.00    -0.267 OA
ATOM     13  H1  D71 d   1      22.473  -0.312  34.236  0.00  0.00     0.085 H 
ATOM     14  H2  D71 d   1      22.744  -3.009  37.617  0.00  0.00     0.114 H 
ATOM     15  H3  D71 d   1      22.637  -0.720  36.764  0.00  0.00     0.085 H 
ENDROOT
BRANCH   7  16
ATOM     16  C22 D71 d   1      22.553  -6.301  33.944  0.00  0.00     0.048 A 
ATOM     17  C39 D71 d   1      23.712  -7.111  33.477  0.00  0.00    -0.025 A 
ATOM     18  C40 D71 d   1      23.874  -8.415  33.875  0.00  0.00     0.105 A 
ATOM     19  H4  D71 d   1      24.441  -6.663  32.811  0.00  0.00     0.090 H 
ATOM     20  C41 D71 d   1      22.841  -8.999  34.797  0.00  0.00    -0.051 A 
ATOM     21  C42 D71 d   1      21.783  -8.272  35.222  0.00  0.00    -0.078 A 
ATOM     22  H5  D71 d   1      22.946 -10.026  35.129  0.00  0.00     0.087 H 
ATOM     23  C43 D71 d   1      21.620  -6.850  34.783  0.00  0.00    -0.056 A 
ATOM     24  H6  D71 d   1      21.050  -8.720  35.883  0.00  0.00     0.083 H 
ATOM     25  H7  D71 d   1      20.775  -6.263  35.124  0.00  0.00     0.086 H 
BRANCH  18  26
ATOM     26  N54 D71 d   1      24.973  -9.189  33.401  0.00  0.00    -0.116 N 
ATOM     27  O56 D71 d   1      25.776  -8.743  32.636  0.00  0.00    -0.532 OA
ATOM     28  O58 D71 d   1      25.121 -10.468  33.781  0.00  0.00    -0.532 OA
ENDBRANCH  18  26
ENDBRANCH   7  16
BRANCH  10  29
ATOM     29  C24 D71 d   1      22.250  -3.162  29.955  0.00  0.00     0.031 C 
ATOM     30  H8  D71 d   1      23.012  -3.788  29.468  0.00  0.00     0.072 H 
ATOM     31  H9  D71 d   1      22.428  -2.106  29.705  0.00  0.00     0.072 H 
BRANCH  29  32
ATOM     32  C26 D71 d   1      20.882  -3.566  29.450  0.00  0.00    -0.037 A 
ATOM     33  C32 D71 d   1      20.626  -4.648  28.671  0.00  0.00    -0.058 A 
ATOM     34  C31 D71 d   1      19.221  -4.905  28.273  0.00  0.00     0.002 A 
ATOM     35  H10 D71 d   1      21.426  -5.305  28.349  0.00  0.00     0.086 H 
ATOM     36  N30 D71 d   1      18.272  -4.107  28.693  0.00  0.00    -0.273 NA
ATOM     37  H11 D71 d   1      18.981  -5.750  27.637  0.00  0.00     0.114 H 
ATOM     38  C29 D71 d   1      18.538  -2.972  29.522  0.00  0.00     0.002 A 
ATOM     39  C28 D71 d   1      19.784  -2.688  29.913  0.00  0.00    -0.058 A 
ATOM     40  H12 D71 d   1      17.719  -2.335  29.837  0.00  0.00     0.114 H 
ATOM     41  H13 D71 d   1      19.985  -1.837  30.553  0.00  0.00     0.086 H 
ENDBRANCH  29  32
ENDBRANCH  10  29
TORSDOF 4
