REMARK  5 active torsions:
REMARK  status: ('A' for Active; 'I' for Inactive)
REMARK    1  A    between atoms: C5_1  and  C3_7 
REMARK    2  A    between atoms: C7_3  and  O3_13 
REMARK    3  A    between atoms: C8_4  and  O2_19 
REMARK    4  A    between atoms: O3_13  and  C11_14 
REMARK    5  A    between atoms: O2_19  and  C16_20 
ROOT
ATOM      1  C5  ROL d   1      21.167  -2.893  31.038  0.00  0.00    -0.049 A 
ATOM      2  C6  ROL d   1      21.580  -4.056  31.680  0.00  0.00    -0.042 A 
ATOM      3  C7  ROL d   1      22.007  -4.033  33.019  0.00  0.00     0.103 A 
ATOM      4  C8  ROL d   1      22.003  -2.763  33.765  0.00  0.00     0.101 A 
ATOM      5  C9  ROL d   1      21.581  -1.622  33.091  0.00  0.00    -0.048 A 
ATOM      6  C10 ROL d   1      21.171  -1.688  31.749  0.00  0.00    -0.074 A 
ATOM      7  H1  ROL d   1      21.572  -4.995  31.139  0.00  0.00     0.088 H 
ATOM      8  H2  ROL d   1      21.568  -0.669  33.608  0.00  0.00     0.087 H 
ATOM      9  H3  ROL d   1      20.849  -0.781  31.251  0.00  0.00     0.084 H 
ENDROOT
BRANCH   3  10
ATOM     10  O3  ROL d   1      22.411  -5.156  33.686  0.00  0.00    -0.343 OA
BRANCH  10  11
ATOM     11  C11 ROL d   1      22.504  -6.423  33.032  0.00  0.00     0.045 C 
ATOM     12  C15 ROL d   1      21.112  -7.006  32.932  0.00  0.00    -0.040 C 
ATOM     13  C14 ROL d   1      20.903  -7.818  34.194  0.00  0.00    -0.063 C 
ATOM     14  H11 ROL d   1      21.032  -7.652  32.045  0.00  0.00     0.036 H 
ATOM     15  H12 ROL d   1      20.365  -6.201  32.868  0.00  0.00     0.036 H 
ATOM     16  C13 ROL d   1      22.275  -8.064  34.791  0.00  0.00    -0.063 C 
ATOM     17  H13 ROL d   1      20.419  -8.775  33.952  0.00  0.00     0.033 H 
ATOM     18  H14 ROL d   1      20.276  -7.259  34.904  0.00  0.00     0.033 H 
ATOM     19  C12 ROL d   1      23.292  -7.412  33.878  0.00  0.00    -0.040 C 
ATOM     20  H15 ROL d   1      22.468  -9.145  34.857  0.00  0.00     0.033 H 
ATOM     21  H16 ROL d   1      22.333  -7.620  35.795  0.00  0.00     0.033 H 
ATOM     22  H17 ROL d   1      24.058  -6.888  34.468  0.00  0.00     0.036 H 
ATOM     23  H18 ROL d   1      23.774  -8.166  33.239  0.00  0.00     0.036 H 
ATOM     24  H10 ROL d   1      22.962  -6.306  32.039  0.00  0.00     0.084 H 
ENDBRANCH  10  11
ENDBRANCH   3  10
BRANCH   4  25
ATOM     25  O2  ROL d   1      22.419  -2.779  35.082  0.00  0.00    -0.353 OA
BRANCH  25  26
ATOM     26  C16 ROL d   1      22.318  -1.650  35.949  0.00  0.00     0.010 C 
ATOM     27  H19 ROL d   1      22.714  -1.913  36.941  0.00  0.00     0.066 H 
ATOM     28  H20 ROL d   1      21.263  -1.353  36.042  0.00  0.00     0.066 H 
ATOM     29  H21 ROL d   1      22.899  -0.814  35.532  0.00  0.00     0.066 H 
ENDBRANCH  25  26
ENDBRANCH   4  25
BRANCH   1  30
ATOM     30  C3  ROL d   1      20.729  -3.020  29.616  0.00  0.00    -0.005 C 
ATOM     31  C2  ROL d   1      19.298  -2.524  29.368  0.00  0.00     0.018 C 
ATOM     32  C1  ROL d   1      19.364  -1.897  27.989  0.00  0.00     0.218 C 
ATOM     33  H5  ROL d   1      19.005  -1.779  30.123  0.00  0.00     0.048 H 
ATOM     34  H6  ROL d   1      18.585  -3.362  29.384  0.00  0.00     0.048 H 
ATOM     35  O1  ROL d   1      18.380  -1.549  27.335  0.00  0.00    -0.274 OA
ATOM     36  N1  ROL d   1      20.641  -1.794  27.622  0.00  0.00    -0.360 N 
ATOM     37  C4  ROL d   1      21.600  -2.270  28.611  0.00  0.00     0.003 C 
ATOM     38  H7  ROL d   1      20.919  -1.419  26.738  0.00  0.00     0.162 HD
ATOM     39  H8  ROL d   1      22.339  -2.943  28.151  0.00  0.00     0.065 H 
ATOM     40  H9  ROL d   1      22.120  -1.428  29.092  0.00  0.00     0.065 H 
ATOM     41  H4  ROL d   1      20.770  -4.091  29.371  0.00  0.00     0.050 H 
ENDBRANCH   1  30
TORSDOF 5
