REMARK  7 active torsions:
REMARK  status: ('A' for Active; 'I' for Inactive)
REMARK    1  A    between atoms: C20_16  and  C21_4 
REMARK    2  A    between atoms: C9_6  and  C8_5 
REMARK       I    between atoms: C8_5  and  N7_18 
REMARK    3  A    between atoms: C12_9  and  O15_10 
REMARK    4  A    between atoms: O15_10  and  C16_11 
REMARK    5  A    between atoms: O19_15  and  C13_14 
REMARK    6  A    between atoms: O19_15  and  C20_16 
REMARK    7  A    between atoms: N7_18  and  C6_19 
ROOT
ATOM      1  C9  ROF d   1      21.562  -3.575  30.607  0.00  0.00     0.035 A 
ATOM      2  C10 ROF d   1      21.430  -2.401  31.346  0.00  0.00    -0.065 A 
ATOM      3  C11 ROF d   1      21.765  -2.388  32.704  0.00  0.00    -0.047 A 
ATOM      4  C12 ROF d   1      22.214  -3.559  33.337  0.00  0.00     0.108 A 
ATOM      5  C13 ROF d   1      22.314  -4.737  32.611  0.00  0.00     0.103 A 
ATOM      6  C14 ROF d   1      21.967  -4.742  31.253  0.00  0.00    -0.033 A 
ATOM      7  H6  ROF d   1      21.068  -1.498  30.869  0.00  0.00     0.085 H 
ATOM      8  H7  ROF d   1      21.678  -1.469  33.272  0.00  0.00     0.087 H 
ATOM      9  H11 ROF d   1      22.014  -5.670  30.695  0.00  0.00     0.089 H 
ENDROOT
BRANCH   1  10
ATOM     10  C8  ROF d   1      21.153  -3.673  29.170  0.00  0.00     0.256 C 
ATOM     11  O24 ROF d   1      20.799  -4.795  28.848  0.00  0.00    -0.267 OA
ATOM     12  N7  ROF d   1      21.025  -2.610  28.361  0.00  0.00    -0.320 N 
ATOM     13  H12 ROF d   1      21.386  -1.726  28.658  0.00  0.00     0.169 HD
BRANCH  12  14
ATOM     14  C6  ROF d   1      20.407  -2.705  27.127  0.00  0.00     0.081 A 
ATOM     15  C5  ROF d   1      20.947  -1.953  26.113  0.00  0.00     0.080 A 
ATOM     16 CL26 ROF d   1      22.225  -0.793  26.540  0.00  0.00    -0.080 Cl
ATOM     17  C4  ROF d   1      20.511  -2.071  24.798  0.00  0.00     0.025 A 
ATOM     18  N3  ROF d   1      19.564  -2.949  24.452  0.00  0.00    -0.270 NA
ATOM     19  H13 ROF d   1      20.949  -1.437  24.036  0.00  0.00     0.117 H 
ATOM     20  C2  ROF d   1      19.012  -3.726  25.392  0.00  0.00     0.025 A 
ATOM     21  C1  ROF d   1      19.411  -3.624  26.732  0.00  0.00     0.080 A 
ATOM     22  H14 ROF d   1      18.248  -4.442  25.114  0.00  0.00     0.117 H 
ATOM     23 CL25 ROF d   1      18.556  -4.712  27.874  0.00  0.00    -0.080 Cl
ENDBRANCH  12  14
ENDBRANCH   1  10
BRANCH   5  24
ATOM     24  O19 ROF d   1      22.758  -5.864  33.273  0.00  0.00    -0.348 OA
BRANCH  24  25
ATOM     25  C20 ROF d   1      23.024  -7.111  32.635  0.00  0.00     0.029 C 
ATOM     26  H9  ROF d   1      22.523  -7.158  31.657  0.00  0.00     0.075 H 
ATOM     27  H10 ROF d   1      24.107  -7.251  32.499  0.00  0.00     0.075 H 
BRANCH  25  28
ATOM     28  C21 ROF d   1      22.466  -8.164  33.568  0.00  0.00    -0.033 A 
ATOM     29  C23 ROF d   1      23.525  -8.990  34.276  0.00  0.00    -0.059 A 
ATOM     30  C22 ROF d   1      22.675  -9.616  33.171  0.00  0.00    -0.059 A 
ATOM     31  H1  ROF d   1      24.591  -8.785  34.101  0.00  0.00     0.033 H 
ATOM     32  H2  ROF d   1      23.377  -9.294  35.323  0.00  0.00     0.033 H 
ATOM     33  H3  ROF d   1      21.915 -10.370  33.422  0.00  0.00     0.033 H 
ATOM     34  H4  ROF d   1      23.129  -9.861  32.199  0.00  0.00     0.033 H 
ATOM     35  H5  ROF d   1      21.545  -7.829  34.067  0.00  0.00     0.043 H 
ENDBRANCH  25  28
ENDBRANCH  24  25
ENDBRANCH   5  24
BRANCH   4  36
ATOM     36  O15 ROF d   1      22.558  -3.637  34.667  0.00  0.00    -0.287 OA
BRANCH  36  37
ATOM     37  C16 ROF d   1      22.766  -2.520  35.507  0.00  0.00     0.310 C 
ATOM     38  F18 ROF d   1      23.579  -1.613  34.879  0.00  0.00    -0.184 F 
ATOM     39  F17 ROF d   1      21.545  -1.996  35.784  0.00  0.00    -0.184 F 
ATOM     40  H8  ROF d   1      23.247  -2.841  36.443  0.00  0.00     0.195 H 
ENDBRANCH  36  37
ENDBRANCH   4  36
TORSDOF 7
