REMARK  4 active torsions:
REMARK  status: ('A' for Active; 'I' for Inactive)
REMARK    1  A    between atoms: C15_8  and  C35_17 
REMARK    2  A    between atoms: C19_10  and  C22_11 
REMARK    3  A    between atoms: C25_13  and  N50_24 
REMARK    4  A    between atoms: C35_17  and  C37_18 
ROOT
ATOM      1  C1  988 d   1      21.911  -1.269  34.093  0.00  0.00    -0.069 A 
ATOM      2  C2  988 d   1      21.930  -2.340  33.212  0.00  0.00    -0.006 A 
ATOM      3  C3  988 d   1      22.239  -3.677  33.762  0.00  0.00     0.077 A 
ATOM      4  N4  988 d   1      22.480  -3.831  35.088  0.00  0.00    -0.259 NA
ATOM      5  C5  988 d   1      22.447  -2.772  35.925  0.00  0.00     0.003 A 
ATOM      6  C6  988 d   1      22.158  -1.487  35.451  0.00  0.00    -0.065 A 
ATOM      7  C13 988 d   1      21.705  -2.200  31.838  0.00  0.00    -0.064 A 
ATOM      8  C15 988 d   1      21.734  -3.302  30.965  0.00  0.00    -0.052 A 
ATOM      9  C17 988 d   1      22.015  -4.584  31.440  0.00  0.00    -0.064 A 
ATOM     10  C19 988 d   1      22.269  -4.804  32.793  0.00  0.00     0.004 A 
ATOM     11  H1  988 d   1      21.706  -0.268  33.730  0.00  0.00     0.085 H 
ATOM     12  H2  988 d   1      22.647  -2.919  36.980  0.00  0.00     0.114 H 
ATOM     13  H3  988 d   1      22.125  -0.654  36.144  0.00  0.00     0.085 H 
ATOM     14  H4  988 d   1      21.503  -1.214  31.435  0.00  0.00     0.085 H 
ATOM     15  H5  988 d   1      22.036  -5.419  30.749  0.00  0.00     0.085 H 
ENDROOT
BRANCH   8  16
ATOM     16  C35 988 d   1      21.487  -3.078  29.482  0.00  0.00    -0.017 C 
ATOM     17  H10 988 d   1      22.454  -3.106  28.959  0.00  0.00     0.047 H 
ATOM     18  H11 988 d   1      21.027  -2.087  29.350  0.00  0.00     0.047 H 
BRANCH  16  19
ATOM     19  C37 988 d   1      20.577  -4.116  28.865  0.00  0.00    -0.051 A 
ATOM     20  C39 988 d   1      19.195  -3.986  28.968  0.00  0.00    -0.060 A 
ATOM     21  C40 988 d   1      18.379  -4.952  28.390  0.00  0.00     0.002 A 
ATOM     22  H12 988 d   1      18.761  -3.143  29.492  0.00  0.00     0.086 H 
ATOM     23  N41 988 d   1      18.928  -6.003  27.749  0.00  0.00    -0.273 NA
ATOM     24  H13 988 d   1      17.301  -4.860  28.455  0.00  0.00     0.114 H 
ATOM     25  C42 988 d   1      20.261  -6.156  27.633  0.00  0.00     0.002 A 
ATOM     26  C43 988 d   1      21.120  -5.212  28.190  0.00  0.00    -0.060 A 
ATOM     27  H14 988 d   1      20.665  -7.013  27.107  0.00  0.00     0.114 H 
ATOM     28  H15 988 d   1      22.194  -5.326  28.101  0.00  0.00     0.086 H 
ENDBRANCH  16  19
ENDBRANCH   8  16
BRANCH  10  29
ATOM     29  C22 988 d   1      22.546  -6.165  33.276  0.00  0.00    -0.021 A 
ATOM     30  C24 988 d   1      23.571  -6.925  32.726  0.00  0.00    -0.040 A 
ATOM     31  C25 988 d   1      23.795  -8.213  33.222  0.00  0.00     0.103 A 
ATOM     32  H6  988 d   1      24.186  -6.527  31.927  0.00  0.00     0.088 H 
ATOM     33  C26 988 d   1      22.980  -8.700  34.245  0.00  0.00    -0.051 A 
ATOM     34  C27 988 d   1      21.956  -7.931  34.775  0.00  0.00    -0.080 A 
ATOM     35  H7  988 d   1      23.151  -9.698  34.632  0.00  0.00     0.087 H 
ATOM     36  C28 988 d   1      21.739  -6.654  34.290  0.00  0.00    -0.072 A 
ATOM     37  H8  988 d   1      21.329  -8.328  35.565  0.00  0.00     0.083 H 
ATOM     38  H9  988 d   1      20.944  -6.041  34.700  0.00  0.00     0.084 H 
BRANCH  31  39
ATOM     39  N50 988 d   1      24.810  -9.048  32.716  0.00  0.00    -0.116 N 
ATOM     40  O52 988 d   1      25.484  -8.732  31.742  0.00  0.00    -0.532 OA
ATOM     41  O54 988 d   1      25.038 -10.272  33.331  0.00  0.00    -0.532 OA
ENDBRANCH  31  39
ENDBRANCH  10  29
TORSDOF 4
