REMARK  10 active torsions:
REMARK  status: ('A' for Active; 'I' for Inactive)
REMARK    1  A    between atoms: C3_3  and  C2_2 
REMARK       I    between atoms: N2_22  and  C3_3 
REMARK    2  A    between atoms: N6_4  and  C20_16 
REMARK    3  A    between atoms: C9_7  and  C10_8 
REMARK    4  A    between atoms: N_18  and  C11_9 
REMARK    5  A    between atoms: C13_11  and  N5_30 
REMARK    6  A    between atoms: C14_12  and  C15_13 
REMARK    7  A    between atoms: C20_16  and  C21_17 
REMARK    8  A    between atoms: C21_17  and  O1_33 
REMARK    9  A    between atoms: C_19  and  N_18 
REMARK   10  A    between atoms: N2_22  and  C4_23 
ROOT
ATOM      1  C11 1N1 d   1      10.072 -37.509  -4.167  0.00  0.00     0.135 A 
ATOM      2  C12 1N1 d   1      11.262 -38.028  -3.671  0.00  0.00     0.006 A 
ATOM      3  C13 1N1 d   1      11.205 -39.235  -2.967  0.00  0.00     0.131 A 
ATOM      4  C14 1N1 d   1       8.881 -39.339  -3.308  0.00  0.00     0.126 A 
ATOM      5  N3  1N1 d   1      10.019 -39.860  -2.824  0.00  0.00    -0.216 NA
ATOM      6  N4  1N1 d   1       8.919 -38.174  -3.971  0.00  0.00    -0.216 NA
ATOM      7  H8  1N1 d   1      12.204 -37.514  -3.825  0.00  0.00     0.095 H 
ENDROOT
BRANCH   1   8
ATOM      8  N   1N1 d   1      10.070 -36.363  -4.853  0.00  0.00    -0.320 N 
ATOM      9  H20 1N1 d   1      10.928 -35.793  -4.851  0.00  0.00     0.169 HD
BRANCH   8  10
ATOM     10  C   1N1 d   1       9.017 -35.916  -5.541  0.00  0.00     0.172 A 
ATOM     11  N1  1N1 d   1       8.993 -34.750  -6.215  0.00  0.00    -0.235 NA
ATOM     12  C1  1N1 d   1       7.817 -34.498  -6.829  0.00  0.00     0.027 A 
ATOM     13  C2  1N1 d   1       6.884 -35.443  -6.651  0.00  0.00     0.094 A 
ATOM     14  H1  1N1 d   1       7.641 -33.600  -7.420  0.00  0.00     0.117 H 
ATOM     15  S   1N1 d   1       7.497 -36.673  -5.688  0.00  0.00    -0.045 SA
BRANCH  13  16
ATOM     16  C3  1N1 d   1       5.468 -35.438  -7.207  0.00  0.00     0.264 C 
ATOM     17  N2  1N1 d   1       5.182 -34.456  -8.063  0.00  0.00    -0.320 N 
ATOM     18  H21 1N1 d   1       5.876 -33.774  -8.295  0.00  0.00     0.169 HD
ATOM     19  O   1N1 d   1       4.656 -36.287  -6.839  0.00  0.00    -0.267 OA
BRANCH  17  20
ATOM     20  C4  1N1 d   1       3.952 -34.387  -8.614  0.00  0.00     0.062 A 
ATOM     21  C9  1N1 d   1       3.695 -34.981  -9.863  0.00  0.00    -0.034 A 
ATOM     22  C8  1N1 d   1       2.417 -34.896 -10.430  0.00  0.00    -0.075 A 
ATOM     23  C7  1N1 d   1       1.390 -34.246  -9.754  0.00  0.00    -0.081 A 
ATOM     24  H4  1N1 d   1       2.227 -35.339 -11.401  0.00  0.00     0.084 H 
ATOM     25  C6  1N1 d   1       1.644 -33.663  -8.505  0.00  0.00    -0.060 A 
ATOM     26  H3  1N1 d   1       0.399 -34.191 -10.190  0.00  0.00     0.083 H 
ATOM     27  C5  1N1 d   1       2.924 -33.732  -7.948  0.00  0.00     0.061 A 
ATOM     28  H22 1N1 d   1       0.847 -33.158  -7.971  0.00  0.00     0.086 H 
ATOM     29 CL   1N1 d   1       3.253 -33.020  -6.403  0.00  0.00    -0.082 Cl
BRANCH  21  30
ATOM     30  C10 1N1 d   1       4.816 -35.694 -10.616  0.00  0.00    -0.049 C 
ATOM     31  H5  1N1 d   1       4.426 -36.091 -11.565  0.00  0.00     0.033 H 
ATOM     32  H6  1N1 d   1       5.201 -36.522 -10.003  0.00  0.00     0.033 H 
ATOM     33  H7  1N1 d   1       5.629 -34.983 -10.823  0.00  0.00     0.033 H 
ENDBRANCH  21  30
ENDBRANCH  17  20
ENDBRANCH  13  16
ENDBRANCH   8  10
ENDBRANCH   1   8
BRANCH   3  34
ATOM     34  N5  1N1 d   1      12.333 -39.880  -2.414  0.00  0.00    -0.362 N 
ATOM     35  C16 1N1 d   1      12.132 -41.248  -1.864  0.00  0.00     0.019 C 
ATOM     36  C17 1N1 d   1      12.739 -41.333  -0.481  0.00  0.00     0.098 C 
ATOM     37  H12 1N1 d   1      12.618 -41.983  -2.523  0.00  0.00     0.066 H 
ATOM     38  H13 1N1 d   1      11.055 -41.464  -1.805  0.00  0.00     0.066 H 
ATOM     39  N6  1N1 d   1      14.132 -40.866  -0.518  0.00  0.00    -0.066 N 
ATOM     40  H23 1N1 d   1      12.161 -40.703   0.211  0.00  0.00     0.078 H 
ATOM     41  H24 1N1 d   1      12.713 -42.377  -0.135  0.00  0.00     0.078 H 
ATOM     42  C18 1N1 d   1      14.266 -39.465  -0.980  0.00  0.00     0.098 C 
ATOM     43  H2  1N1 d   1      14.673 -41.456  -1.130  0.00  0.00     0.280 HD
ATOM     44  C19 1N1 d   1      13.683 -39.294  -2.382  0.00  0.00     0.019 C 
ATOM     45  H25 1N1 d   1      15.331 -39.192  -0.998  0.00  0.00     0.078 H 
ATOM     46  H26 1N1 d   1      13.729 -38.803  -0.284  0.00  0.00     0.078 H 
ATOM     47  H14 1N1 d   1      13.627 -38.224  -2.630  0.00  0.00     0.066 H 
ATOM     48  H15 1N1 d   1      14.325 -39.806  -3.114  0.00  0.00     0.066 H 
BRANCH  39  49
ATOM     49  C20 1N1 d   1      14.602 -41.011   0.882  0.00  0.00     0.103 C 
ATOM     50  H16 1N1 d   1      15.024 -42.019   1.011  0.00  0.00     0.079 H 
ATOM     51  H17 1N1 d   1      13.744 -40.883   1.558  0.00  0.00     0.079 H 
BRANCH  49  52
ATOM     52  C21 1N1 d   1      15.676 -39.976   1.247  0.00  0.00     0.039 C 
ATOM     53  H18 1N1 d   1      15.213 -39.138   1.788  0.00  0.00     0.076 H 
ATOM     54  H19 1N1 d   1      16.155 -39.601   0.331  0.00  0.00     0.076 H 
BRANCH  52  55
ATOM     55  O1  1N1 d   1      16.666 -40.612   2.089  0.00  0.00    -0.399 OA
ATOM     56  H27 1N1 d   1      17.336 -39.980   2.321  0.00  0.00     0.209 HD
ENDBRANCH  52  55
ENDBRANCH  49  52
ENDBRANCH  39  49
ENDBRANCH   3  34
BRANCH   4  57
ATOM     57  C15 1N1 d   1       7.546 -40.060  -3.091  0.00  0.00    -0.019 C 
ATOM     58  H9  1N1 d   1       7.719 -40.991  -2.531  0.00  0.00     0.037 H 
ATOM     59  H10 1N1 d   1       7.094 -40.297  -4.066  0.00  0.00     0.037 H 
ATOM     60  H11 1N1 d   1       6.867 -39.410  -2.520  0.00  0.00     0.037 H 
ENDBRANCH   4  57
TORSDOF 10
