REMARK WARNING: 32 MAX_TORS EXCEEDED!!!
REMARK  37 active torsions:
REMARK  status: ('A' for Active; 'I' for Inactive)
REMARK    1  A    between atoms: N_1  and  CA_2 
REMARK    2  A    between atoms: CA_12  and  CB_15 
REMARK    3  A    between atoms: CA_17  and  CB_20 
REMARK    4  A    between atoms: CB_20  and  CG_21 
REMARK    5  A    between atoms: CA_25  and  CB_28 
REMARK    6  A    between atoms: CB_28  and  OG_29 
REMARK    7  A    between atoms: CA_31  and  CB_34 
REMARK    8  A    between atoms: CB_34  and  CG_35 
REMARK    9  A    between atoms: CZ_40  and  OH_41 
REMARK   10  A    between atoms: CA_43  and  CB_46 
REMARK   11  A    between atoms: CB_46  and  CG_47 
REMARK   12  A    between atoms: CG_47  and  CD_48 
REMARK   13  A    between atoms: CA_52  and  CB_55 
REMARK   14  A    between atoms: CB_55  and  CG_56 
REMARK   15  A    between atoms: CG_56  and  SD_57 
REMARK   16  A    between atoms: SD_57  and  CE_58 
REMARK   17  A    between atoms: CA_60  and  CB_63 
REMARK   18  A    between atoms: CB_63  and  CG_64 
REMARK   19  A    between atoms: CG_64  and  CD_65 
REMARK   20  A    between atoms: CA_69  and  CB_72 
REMARK   21  A    between atoms: CB_72  and  CG_73 
REMARK   22  A    between atoms: CG_73  and  CD_74 
REMARK   23  A    between atoms: CA_78  and  CB_81 
REMARK   24  A    between atoms: CB_81  and  CG_82 
REMARK   25  A    between atoms: CA_90  and  CB_93 
REMARK   26  A    between atoms: CB_93  and  CG1_94 
REMARK   27  A    between atoms: CB_93  and  CG2_95 
REMARK   28  A    between atoms: CA_97  and  CB_100 
REMARK   29  A    between atoms: CB_100  and  CG_101 
REMARK   30  A    between atoms: CG_101  and  CD_102 
REMARK   31  A    between atoms: CD_102  and  NE_103 
REMARK       I    between atoms: NE_103  and  CZ_104 
REMARK       I    between atoms: CZ_104  and  NH1_105 
REMARK   32  A    between atoms: CA_108  and  CB_111 
REMARK   33  A    between atoms: CB_111  and  CG_112 
REMARK   34  A    between atoms: CG_112  and  CD_113 
REMARK   35  A    between atoms: CD_113  and  CE_114 
REMARK   36  A    between atoms: CE_114  and  NZ_115 
REMARK   37  A    between atoms: CA_117  and  C_118 
ROOT
ATOM      1  CA  CYS d   1      25.418  18.202  -9.022  0.00  0.00     0.184 C 
ATOM      2  C   CYS d   1      26.824  17.973  -8.456  0.00  0.00     0.249 C 
ATOM      3  O   CYS d   1      27.693  17.419  -9.131  0.00  0.00    -0.271 OA
ATOM      4  CB  CYS d   1      24.405  17.311  -8.298  0.00  0.00     0.021 C 
ATOM      5  SG  CYS d   1      24.565  15.547  -8.652  0.00  0.00    -0.095 SA
ATOM      6  N   CYS d   1      26.191  11.970  -8.304  0.00  0.00    -0.344 N 
ATOM      7  CA  CYS d   1      26.928  13.150  -8.735  0.00  0.00     0.105 C 
ATOM      8  CB  CYS d   1      27.042  14.166  -7.597  0.00  0.00     0.015 C 
ATOM      9  SG  CYS d   1      25.462  14.792  -6.985  0.00  0.00    -0.095 SA
ATOM     10  H4  CYS d   1      25.148  19.252  -8.833  0.00  0.00     0.100 H 
ATOM     11  H5  CYS d   1      23.395  17.630  -8.594  0.00  0.00     0.054 H 
ATOM     12  H6  CYS d   1      24.533  17.456  -7.215  0.00  0.00     0.054 H 
ATOM     13 2H10 CYS d   1      26.273  11.668  -7.354  0.00  0.00     0.163 HD
ATOM     14 3H10 CYS d   1      26.386  13.619  -9.569  0.00  0.00     0.090 H 
ATOM     15 4H10 CYS d   1      27.633  15.021  -7.958  0.00  0.00     0.054 H 
ATOM     16 5H10 CYS d   1      27.568  13.685  -6.759  0.00  0.00     0.054 H 
ATOM     17  N   GLY d   1      27.028  18.394  -7.208  0.00  0.00    -0.351 N 
ATOM     18  CA  GLY d   1      28.326  18.277  -6.551  0.00  0.00     0.069 C 
ATOM     19  C   GLY d   1      29.266  19.378  -6.998  0.00  0.00     0.236 C 
ATOM     20  O   GLY d   1      28.878  20.547  -7.046  0.00  0.00    -0.272 OA
ATOM     21  N   GLY d   1      20.429   2.365 -12.339  0.00  0.00    -0.351 N 
ATOM     22  CA  GLY d   1      19.218   3.080 -11.930  0.00  0.00     0.069 C 
ATOM     23  C   GLY d   1      19.353   3.996 -10.723  0.00  0.00     0.236 C 
ATOM     24  O   GLY d   1      18.363   4.570 -10.259  0.00  0.00    -0.272 OA
ATOM     25  H7  GLY d   1      26.267  18.803  -6.705  0.00  0.00     0.163 HD
ATOM     26  H8  GLY d   1      28.769  17.302  -6.803  0.00  0.00     0.078 H 
ATOM     27  H9  GLY d   1      28.185  18.346  -5.462  0.00  0.00     0.078 H 
ATOM     28  H64 GLY d   1      20.948   2.706 -13.123  0.00  0.00     0.163 HD
ATOM     29  H65 GLY d   1      18.448   2.330 -11.697  0.00  0.00     0.078 H 
ATOM     30  H66 GLY d   1      18.887   3.693 -12.781  0.00  0.00     0.078 H 
ATOM     31  N   ALA d   1      30.497  19.001  -7.335  0.00  0.00    -0.347 N 
ATOM     32  CA  ALA d   1      31.508  19.951  -7.806  0.00  0.00     0.086 C 
ATOM     33  C   ALA d   1      31.141  20.578  -9.155  0.00  0.00     0.240 C 
ATOM     34  O   ALA d   1      31.477  21.733  -9.422  0.00  0.00    -0.271 OA
ATOM     35  H10 ALA d   1      30.741  18.034  -7.264  0.00  0.00     0.163 HD
ATOM     36  H11 ALA d   1      31.572  20.764  -7.068  0.00  0.00     0.086 H 
ATOM     37  N   ASP d   1      30.439  19.812  -9.987  0.00  0.00    -0.346 N 
ATOM     38  CA  ASP d   1      30.085  20.239 -11.339  0.00  0.00     0.098 C 
ATOM     39  C   ASP d   1      28.564  20.348 -11.513  0.00  0.00     0.241 C 
ATOM     40  O   ASP d   1      27.815  20.338 -10.530  0.00  0.00    -0.271 OA
ATOM     41  N   ASP d   1      23.131   1.661 -12.675  0.00  0.00    -0.346 N 
ATOM     42  CA  ASP d   1      22.163   0.647 -12.226  0.00  0.00     0.098 C 
ATOM     43  C   ASP d   1      20.864   1.276 -11.704  0.00  0.00     0.241 C 
ATOM     44  O   ASP d   1      20.281   0.791 -10.726  0.00  0.00    -0.271 OA
ATOM     45  H15 ASP d   1      30.142  18.910  -9.675  0.00  0.00     0.163 HD
ATOM     46  H16 ASP d   1      30.528  21.229 -11.523  0.00  0.00     0.088 H 
ATOM     47  H60 ASP d   1      23.555   1.557 -13.574  0.00  0.00     0.163 HD
ATOM     48  H61 ASP d   1      21.915   0.009 -13.087  0.00  0.00     0.088 H 
ATOM     49  N   SER d   1      28.118  20.460 -12.765  0.00  0.00    -0.344 N 
ATOM     50  CA  SER d   1      26.691  20.434 -13.095  0.00  0.00     0.109 C 
ATOM     51  C   SER d   1      26.229  19.058 -13.607  0.00  0.00     0.243 C 
ATOM     52  O   SER d   1      25.041  18.855 -13.865  0.00  0.00    -0.271 OA
ATOM     53  H19 SER d   1      28.782  20.566 -13.505  0.00  0.00     0.163 HD
ATOM     54  H20 SER d   1      26.133  20.650 -12.172  0.00  0.00     0.090 H 
ATOM     55  N   TYR d   1      27.170  18.121 -13.737  0.00  0.00    -0.346 N 
ATOM     56  CA  TYR d   1      26.880  16.767 -14.220  0.00  0.00     0.093 C 
ATOM     57  C   TYR d   1      26.209  15.882 -13.171  0.00  0.00     0.241 C 
ATOM     58  O   TYR d   1      26.686  15.773 -12.038  0.00  0.00    -0.271 OA
ATOM     59  H24 TYR d   1      28.112  18.352 -13.495  0.00  0.00     0.163 HD
ATOM     60  H25 TYR d   1      26.197  16.858 -15.078  0.00  0.00     0.088 H 
ATOM     61  N   GLU d   1      25.102  15.257 -13.563  0.00  0.00    -0.346 N 
ATOM     62  CA  GLU d   1      24.509  14.146 -12.812  0.00  0.00     0.090 C 
ATOM     63  C   GLU d   1      24.550  12.927 -13.737  0.00  0.00     0.241 C 
ATOM     64  O   GLU d   1      24.496  13.074 -14.961  0.00  0.00    -0.271 OA
ATOM     65  N   GLU d   1      23.563   8.318 -13.964  0.00  0.00    -0.346 N 
ATOM     66  CA  GLU d   1      22.986   7.127 -13.315  0.00  0.00     0.090 C 
ATOM     67  C   GLU d   1      23.768   5.842 -13.556  0.00  0.00     0.241 C 
ATOM     68  O   GLU d   1      24.339   5.625 -14.622  0.00  0.00    -0.271 OA
ATOM     69  N   GLU d   1      23.774   5.005 -12.528  0.00  0.00    -0.346 N 
ATOM     70  CA  GLU d   1      24.435   3.716 -12.538  0.00  0.00     0.090 C 
ATOM     71  C   GLU d   1      23.463   2.715 -11.925  0.00  0.00     0.241 C 
ATOM     72  O   GLU d   1      23.017   2.910 -10.793  0.00  0.00    -0.271 OA
ATOM     73  H33 GLU d   1      24.655  15.558 -14.406  0.00  0.00     0.163 HD
ATOM     74  H34 GLU d   1      25.110  13.949 -11.912  0.00  0.00     0.087 H 
ATOM     75  H48 GLU d   1      23.697   8.331 -14.955  0.00  0.00     0.163 HD
ATOM     76  H49 GLU d   1      23.076   7.322 -12.236  0.00  0.00     0.087 H 
ATOM     77  H54 GLU d   1      23.293   5.280 -11.695  0.00  0.00     0.163 HD
ATOM     78  H55 GLU d   1      24.685   3.420 -13.567  0.00  0.00     0.087 H 
ATOM     79  N   MET d   1      24.664  11.737 -13.153  0.00  0.00    -0.346 N 
ATOM     80  CA  MET d   1      24.720  10.488 -13.919  0.00  0.00     0.090 C 
ATOM     81  C   MET d   1      23.908   9.381 -13.231  0.00  0.00     0.241 C 
ATOM     82  O   MET d   1      23.557   9.518 -12.054  0.00  0.00    -0.271 OA
ATOM     83  H39 MET d   1      24.713  11.693 -12.155  0.00  0.00     0.163 HD
ATOM     84  H40 MET d   1      24.248  10.672 -14.896  0.00  0.00     0.087 H 
ATOM     85  N   VAL d   1      20.572   4.147 -10.207  0.00  0.00    -0.346 N 
ATOM     86  CA  VAL d   1      20.793   5.065  -9.095  0.00  0.00     0.092 C 
ATOM     87  C   VAL d   1      21.496   6.328  -9.586  0.00  0.00     0.241 C 
ATOM     88  O   VAL d   1      22.545   6.256 -10.222  0.00  0.00    -0.271 OA
ATOM     89  H67 VAL d   1      21.339   3.628 -10.584  0.00  0.00     0.163 HD
ATOM     90  H68 VAL d   1      19.806   5.358  -8.709  0.00  0.00     0.088 H 
ATOM     91  N   ARG d   1      20.880   7.467  -9.287  0.00  0.00    -0.346 N 
ATOM     92  CA  ARG d   1      21.377   8.779  -9.668  0.00  0.00     0.089 C 
ATOM     93  C   ARG d   1      22.501   9.159  -8.727  0.00  0.00     0.241 C 
ATOM     94  O   ARG d   1      22.390   8.986  -7.512  0.00  0.00    -0.271 OA
ATOM     95  H76 ARG d   1      20.025   7.419  -8.770  0.00  0.00     0.163 HD
ATOM     96  H77 ARG d   1      21.767   8.732 -10.696  0.00  0.00     0.087 H 
ATOM     97  N   LYS d   1      23.588   9.652  -9.303  0.00  0.00    -0.346 N 
ATOM     98  CA  LYS d   1      24.779  10.019  -8.552  0.00  0.00     0.089 C 
ATOM     99  C   LYS d   1      25.414  11.282  -9.132  0.00  0.00     0.241 C 
ATOM    100  O   LYS d   1      25.195  11.628 -10.296  0.00  0.00    -0.271 OA
ATOM    101  H89 LYS d   1      23.590   9.777 -10.295  0.00  0.00     0.163 HD
ATOM    102  H90 LYS d   1      24.481  10.228  -7.514  0.00  0.00     0.087 H 
ENDROOT
BRANCH  92 103
ATOM    103  CB  ARG d   1      20.255   9.823  -9.615  0.00  0.00    -0.036 C 
ATOM    104  H78 ARG d   1      20.713  10.811  -9.459  0.00  0.00     0.036 H 
ATOM    105  H79 ARG d   1      19.603   9.582  -8.762  0.00  0.00     0.036 H 
BRANCH 103 106
ATOM    106  CG  ARG d   1      19.384   9.895 -10.877  0.00  0.00    -0.048 C 
ATOM    107  H80 ARG d   1      20.026  10.123 -11.741  0.00  0.00     0.035 H 
ATOM    108  H81 ARG d   1      18.640  10.696 -10.752  0.00  0.00     0.035 H 
BRANCH 106 109
ATOM    109  CD  ARG d   1      18.660   8.587 -11.134  0.00  0.00     0.009 C 
ATOM    110  H82 ARG d   1      18.096   8.316 -10.229  0.00  0.00     0.064 H 
ATOM    111  H83 ARG d   1      19.408   7.809 -11.347  0.00  0.00     0.064 H 
BRANCH 109 112
ATOM    112  NE  ARG d   1      17.729   8.656 -12.259  0.00  0.00    -0.227 N 
ATOM    113  CZ  ARG d   1      17.007   7.629 -12.696  0.00  0.00     0.665 C 
ATOM    114  NH1 ARG d   1      16.185   7.788 -13.728  0.00  0.00    -0.235 N 
ATOM    115  NH2 ARG d   1      17.108   6.442 -12.111  0.00  0.00    -0.235 N 
ATOM    116  H85 ARG d   1      15.625   6.993 -14.068  0.00  0.00     0.174 HD
ATOM    117  H86 ARG d   1      16.108   8.706 -14.188  0.00  0.00     0.174 HD
ATOM    118  H87 ARG d   1      17.744   6.315 -11.311  0.00  0.00     0.174 HD
ATOM    119  H88 ARG d   1      16.550   5.648 -12.457  0.00  0.00     0.174 HD
ATOM    120  H84 ARG d   1      17.626   9.559 -12.744  0.00  0.00     0.177 HD
ENDBRANCH 109 112
ENDBRANCH 106 109
ENDBRANCH 103 106
ENDBRANCH  92 103
BRANCH  86 121
ATOM    121  CB  VAL d   1      21.570   4.421  -7.926  0.00  0.00    -0.033 C 
ATOM    122  H69 VAL d   1      22.591   4.191  -8.265  0.00  0.00     0.042 H 
BRANCH 121 123
ATOM    123  CG1 VAL d   1      21.646   5.378  -6.745  0.00  0.00    -0.071 C 
ATOM    124  H70 VAL d   1      22.202   4.903  -5.923  0.00  0.00     0.028 H 
ATOM    125  H71 VAL d   1      20.629   5.623  -6.406  0.00  0.00     0.028 H 
ATOM    126  H72 VAL d   1      22.162   6.300  -7.052  0.00  0.00     0.028 H 
ENDBRANCH 121 123
BRANCH 121 127
ATOM    127  CG2 VAL d   1      20.894   3.131  -7.485  0.00  0.00    -0.071 C 
ATOM    128  H73 VAL d   1      20.837   2.437  -8.337  0.00  0.00     0.028 H 
ATOM    129  H74 VAL d   1      19.878   3.353  -7.125  0.00  0.00     0.028 H 
ATOM    130  H75 VAL d   1      21.477   2.670  -6.674  0.00  0.00     0.028 H 
ENDBRANCH 121 127
ENDBRANCH  86 121
BRANCH  98 131
ATOM    131  CB  LYS d   1      25.791   8.864  -8.540  0.00  0.00    -0.038 C 
ATOM    132  H91 LYS d   1      26.630   9.148  -7.888  0.00  0.00     0.036 H 
ATOM    133  H92 LYS d   1      26.157   8.716  -9.567  0.00  0.00     0.036 H 
BRANCH 131 134
ATOM    134  CG  LYS d   1      25.221   7.529  -8.036  0.00  0.00    -0.061 C 
ATOM    135  H93 LYS d   1      24.388   7.231  -8.690  0.00  0.00     0.033 H 
ATOM    136  H94 LYS d   1      24.850   7.668  -7.010  0.00  0.00     0.033 H 
BRANCH 134 137
ATOM    137  CD  LYS d   1      26.262   6.419  -8.033  0.00  0.00    -0.043 C 
ATOM    138  H95 LYS d   1      26.968   6.585  -7.206  0.00  0.00     0.035 H 
ATOM    139  H96 LYS d   1      26.807   6.429  -8.988  0.00  0.00     0.035 H 
BRANCH 137 140
ATOM    140  CE  LYS d   1      25.585   5.067  -7.854  0.00  0.00     0.080 C 
ATOM    141  H97 LYS d   1      24.877   4.913  -8.682  0.00  0.00     0.075 H 
ATOM    142  H98 LYS d   1      25.038   5.069  -6.900  0.00  0.00     0.075 H 
BRANCH 140 143
ATOM    143  NZ  LYS d   1      26.569   3.936  -7.844  0.00  0.00    -0.079 N 
ATOM    144  H99 LYS d   1      26.078   3.064  -7.724  0.00  0.00     0.274 HD
ATOM    145 0H10 LYS d   1      27.219   4.063  -7.084  0.00  0.00     0.274 HD
ATOM    146 1H10 LYS d   1      27.072   3.920  -8.717  0.00  0.00     0.274 HD
ENDBRANCH 140 143
ENDBRANCH 137 140
ENDBRANCH 134 137
ENDBRANCH 131 134
ENDBRANCH  98 131
BRANCH   7 147
ATOM    147  C   CYS d   1      28.311  12.740  -9.218  0.00  0.00     0.197 C 
ATOM    148  O   CYS d   1      28.999  11.934  -8.589  0.00  0.00    -0.646 OA
ATOM    149  OXT CYS d   1      28.763  13.207 -10.257  0.00  0.00    -0.646 OA
ENDBRANCH   7 147
BRANCH  42 150
ATOM    150  CB  ASP d   1      22.774  -0.233 -11.125  0.00  0.00     0.043 C 
ATOM    151  H62 ASP d   1      21.966  -0.808 -10.649  0.00  0.00     0.052 H 
ATOM    152  H63 ASP d   1      23.248   0.421 -10.378  0.00  0.00     0.052 H 
BRANCH 150 153
ATOM    153  CG  ASP d   1      23.817  -1.206 -11.644  0.00  0.00     0.175 C 
ATOM    154  OD1 ASP d   1      23.702  -1.693 -12.796  0.00  0.00    -0.648 OA
ATOM    155  OD2 ASP d   1      24.756  -1.501 -10.871  0.00  0.00    -0.648 OA
ENDBRANCH 150 153
ENDBRANCH  42 150
BRANCH   1 156
ATOM    156  N   CYS d   1      25.348  17.973 -10.496  0.00  0.00    -0.066 N 
ATOM    157  H1  CYS d   1      24.407  18.136 -10.817  0.00  0.00     0.275 HD
ATOM    158  H2  CYS d   1      25.613  17.022 -10.701  0.00  0.00     0.275 HD
ATOM    159  H3  CYS d   1      25.977  18.606 -10.965  0.00  0.00     0.275 HD
ENDBRANCH   1 156
BRANCH  70 160
ATOM    160  CB  GLU d   1      25.708   3.807 -11.704  0.00  0.00    -0.029 C 
ATOM    161  H56 GLU d   1      25.453   4.285 -10.746  0.00  0.00     0.037 H 
ATOM    162  H57 GLU d   1      26.426   4.438 -12.249  0.00  0.00     0.037 H 
BRANCH 160 163
ATOM    163  CG  GLU d   1      26.384   2.484 -11.401  0.00  0.00     0.018 C 
ATOM    164  H58 GLU d   1      26.520   1.931 -12.342  0.00  0.00     0.049 H 
ATOM    165  H59 GLU d   1      25.740   1.903 -10.724  0.00  0.00     0.049 H 
BRANCH 163 166
ATOM    166  CD  GLU d   1      27.739   2.673 -10.745  0.00  0.00     0.172 C 
ATOM    167  OE1 GLU d   1      27.968   3.753 -10.146  0.00  0.00    -0.648 OA
ATOM    168  OE2 GLU d   1      28.575   1.743 -10.838  0.00  0.00    -0.648 OA
ENDBRANCH 163 166
ENDBRANCH 160 163
ENDBRANCH  70 160
BRANCH  66 169
ATOM    169  CB  GLU d   1      21.469   6.945 -13.571  0.00  0.00    -0.029 C 
ATOM    170  H50 GLU d   1      20.972   7.881 -13.275  0.00  0.00     0.037 H 
ATOM    171  H51 GLU d   1      21.124   6.125 -12.924  0.00  0.00     0.037 H 
BRANCH 169 172
ATOM    172  CG  GLU d   1      21.020   6.623 -14.988  0.00  0.00     0.018 C 
ATOM    173  H52 GLU d   1      21.593   7.258 -15.679  0.00  0.00     0.049 H 
ATOM    174  H53 GLU d   1      19.950   6.865 -15.069  0.00  0.00     0.049 H 
BRANCH 172 175
ATOM    175  CD  GLU d   1      21.210   5.156 -15.421  0.00  0.00     0.172 C 
ATOM    176  OE1 GLU d   1      21.262   4.229 -14.579  0.00  0.00    -0.648 OA
ATOM    177  OE2 GLU d   1      21.296   4.937 -16.640  0.00  0.00    -0.648 OA
ENDBRANCH 172 175
ENDBRANCH 169 172
ENDBRANCH  66 169
BRANCH  32 178
ATOM    178  CB  ALA d   1      32.872  19.276  -7.884  0.00  0.00    -0.049 C 
ATOM    179  H12 ALA d   1      33.620  20.000  -8.239  0.00  0.00     0.030 H 
ATOM    180  H13 ALA d   1      32.822  18.428  -8.583  0.00  0.00     0.030 H 
ATOM    181  H14 ALA d   1      33.158  18.912  -6.886  0.00  0.00     0.030 H 
ENDBRANCH  32 178
BRANCH  80 182
ATOM    182  CB  MET d   1      26.194  10.107 -14.187  0.00  0.00    -0.030 C 
ATOM    183  H41 MET d   1      26.823  10.821 -13.636  0.00  0.00     0.037 H 
ATOM    184  H42 MET d   1      26.371  10.220 -15.267  0.00  0.00     0.037 H 
BRANCH 182 185
ATOM    185  CG  MET d   1      26.647   8.701 -13.794  0.00  0.00    -0.021 C 
ATOM    186  H43 MET d   1      27.527   8.434 -14.398  0.00  0.00     0.049 H 
ATOM    187  H44 MET d   1      25.829   7.997 -14.006  0.00  0.00     0.049 H 
BRANCH 185 188
ATOM    188  SD  MET d   1      27.085   8.567 -12.044  0.00  0.00    -0.173 SA
BRANCH 188 189
ATOM    189  CE  MET d   1      28.572   9.573 -11.996  0.00  0.00    -0.035 C 
ATOM    190  H45 MET d   1      28.970   9.591 -10.970  0.00  0.00     0.041 H 
ATOM    191  H46 MET d   1      28.332  10.598 -12.314  0.00  0.00     0.041 H 
ATOM    192  H47 MET d   1      29.326   9.146 -12.674  0.00  0.00     0.041 H 
ENDBRANCH 188 189
ENDBRANCH 185 188
ENDBRANCH 182 185
ENDBRANCH  80 182
BRANCH  38 193
ATOM    193  CB  ASP d   1      30.662  19.240 -12.352  0.00  0.00     0.043 C 
ATOM    194  H17 ASP d   1      29.851  18.583 -12.699  0.00  0.00     0.052 H 
ATOM    195  H18 ASP d   1      31.433  18.637 -11.850  0.00  0.00     0.052 H 
BRANCH 193 196
ATOM    196  CG  ASP d   1      31.285  19.917 -13.557  0.00  0.00     0.175 C 
ATOM    197  OD1 ASP d   1      31.786  19.193 -14.444  0.00  0.00    -0.648 OA
ATOM    198  OD2 ASP d   1      31.291  21.168 -13.621  0.00  0.00    -0.648 OA
ENDBRANCH 193 196
ENDBRANCH  38 193
BRANCH  62 199
ATOM    199  CB  GLU d   1      23.066  14.454 -12.382  0.00  0.00    -0.029 C 
ATOM    200  H35 GLU d   1      22.433  14.458 -13.282  0.00  0.00     0.037 H 
ATOM    201  H36 GLU d   1      23.051  15.451 -11.918  0.00  0.00     0.037 H 
BRANCH 199 202
ATOM    202  CG  GLU d   1      22.465  13.443 -11.373  0.00  0.00     0.018 C 
ATOM    203  H37 GLU d   1      22.876  13.664 -10.377  0.00  0.00     0.049 H 
ATOM    204  H38 GLU d   1      22.767  12.430 -11.678  0.00  0.00     0.049 H 
BRANCH 202 205
ATOM    205  CD  GLU d   1      20.930  13.482 -11.282  0.00  0.00     0.172 C 
ATOM    206  OE1 GLU d   1      20.268  13.874 -12.271  0.00  0.00    -0.648 OA
ATOM    207  OE2 GLU d   1      20.380  13.108 -10.219  0.00  0.00    -0.648 OA
ENDBRANCH 202 205
ENDBRANCH 199 202
ENDBRANCH  62 199
BRANCH  50 208
ATOM    208  CB  SER d   1      26.355  21.523 -14.115  0.00  0.00     0.044 C 
ATOM    209  H21 SER d   1      25.285  21.464 -14.363  0.00  0.00     0.077 H 
ATOM    210  H22 SER d   1      26.952  21.359 -15.024  0.00  0.00     0.077 H 
BRANCH 208 211
ATOM    211  OG  SER d   1      26.640  22.813 -13.602  0.00  0.00    -0.398 OA
ATOM    212  H23 SER d   1      26.422  23.468 -14.255  0.00  0.00     0.209 HD
ENDBRANCH 208 211
ENDBRANCH  50 208
BRANCH  56 213
ATOM    213  CB  TYR d   1      28.162  16.072 -14.688  0.00  0.00    -0.014 C 
ATOM    214  H26 TYR d   1      27.959  14.992 -14.748  0.00  0.00     0.043 H 
ATOM    215  H27 TYR d   1      28.942  16.257 -13.935  0.00  0.00     0.043 H 
BRANCH 213 216
ATOM    216  CG  TYR d   1      28.697  16.522 -16.034  0.00  0.00    -0.056 A 
ATOM    217  CD1 TYR d   1      28.041  16.183 -17.222  0.00  0.00    -0.074 A 
ATOM    218  CE1 TYR d   1      28.539  16.586 -18.459  0.00  0.00    -0.051 A 
ATOM    219  H28 TYR d   1      27.130  15.597 -17.179  0.00  0.00     0.084 H 
ATOM    220  CZ  TYR d   1      29.710  17.322 -18.517  0.00  0.00     0.065 A 
ATOM    221  H30 TYR d   1      28.013  16.325 -19.370  0.00  0.00     0.087 H 
ATOM    222  CE2 TYR d   1      30.384  17.661 -17.356  0.00  0.00    -0.051 A 
ATOM    223  CD2 TYR d   1      29.877  17.256 -16.123  0.00  0.00    -0.074 A 
ATOM    224  H31 TYR d   1      31.300  18.238 -17.406  0.00  0.00     0.087 H 
ATOM    225  H29 TYR d   1      30.411  17.517 -15.216  0.00  0.00     0.084 H 
BRANCH 220 226
ATOM    226  OH  TYR d   1      30.209  17.720 -19.735  0.00  0.00    -0.361 OA
ATOM    227  H32 TYR d   1      29.636  17.411 -20.427  0.00  0.00     0.217 HD
ENDBRANCH 220 226
ENDBRANCH 213 216
ENDBRANCH  56 213
TORSDOF 37
