REMARK WARNING: 32 MAX_TORS EXCEEDED!!!
REMARK  37 active torsions:
REMARK  status: ('A' for Active; 'I' for Inactive)
REMARK    1  A    between atoms: N_1  and  CA_2 
REMARK    2  A    between atoms: CA_12  and  CB_15 
REMARK    3  A    between atoms: CA_17  and  CB_20 
REMARK    4  A    between atoms: CB_20  and  CG_21 
REMARK    5  A    between atoms: CA_25  and  CB_28 
REMARK    6  A    between atoms: CB_28  and  OG_29 
REMARK    7  A    between atoms: CA_31  and  CB_34 
REMARK    8  A    between atoms: CB_34  and  CG_35 
REMARK    9  A    between atoms: CZ_40  and  OH_41 
REMARK   10  A    between atoms: CA_43  and  CB_46 
REMARK   11  A    between atoms: CB_46  and  CG_47 
REMARK   12  A    between atoms: CG_47  and  CD_48 
REMARK   13  A    between atoms: CA_52  and  CB_55 
REMARK   14  A    between atoms: CB_55  and  CG_56 
REMARK   15  A    between atoms: CG_56  and  SD_57 
REMARK   16  A    between atoms: SD_57  and  CE_58 
REMARK   17  A    between atoms: CA_60  and  CB_63 
REMARK   18  A    between atoms: CB_63  and  CG_64 
REMARK   19  A    between atoms: CG_64  and  CD_65 
REMARK   20  A    between atoms: CA_69  and  CB_72 
REMARK   21  A    between atoms: CB_72  and  CG_73 
REMARK   22  A    between atoms: CG_73  and  CD_74 
REMARK   23  A    between atoms: CA_78  and  CB_81 
REMARK   24  A    between atoms: CB_81  and  CG_82 
REMARK   25  A    between atoms: CA_90  and  CB_93 
REMARK   26  A    between atoms: CB_93  and  CG1_94 
REMARK   27  A    between atoms: CB_93  and  CG2_95 
REMARK   28  A    between atoms: CA_97  and  CB_100 
REMARK   29  A    between atoms: CB_100  and  CG_101 
REMARK   30  A    between atoms: CG_101  and  CD_102 
REMARK   31  A    between atoms: CD_102  and  NE_103 
REMARK       I    between atoms: NE_103  and  CZ_104 
REMARK       I    between atoms: CZ_104  and  NH1_105 
REMARK   32  A    between atoms: CA_108  and  CB_111 
REMARK   33  A    between atoms: CB_111  and  CG_112 
REMARK   34  A    between atoms: CG_112  and  CD_113 
REMARK   35  A    between atoms: CD_113  and  CE_114 
REMARK   36  A    between atoms: CE_114  and  NZ_115 
REMARK   37  A    between atoms: CA_117  and  C_118 
ROOT
ATOM      1  CA  CYS d   1       1.417  22.250   8.501  0.00  0.00     0.184 C 
ATOM      2  C   CYS d   1       2.752  22.984   8.681  0.00  0.00     0.249 C 
ATOM      3  O   CYS d   1       3.638  22.481   9.370  0.00  0.00    -0.271 OA
ATOM      4  CB  CYS d   1       0.465  22.518   9.671  0.00  0.00     0.021 C 
ATOM      5  SG  CYS d   1      -1.172  21.660   9.508  0.00  0.00    -0.095 SA
ATOM      6  N   CYS d   1      -4.731  23.280   8.804  0.00  0.00    -0.344 N 
ATOM      7  CA  CYS d   1      -3.495  23.896   9.300  0.00  0.00     0.105 C 
ATOM      8  CB  CYS d   1      -2.471  23.963   8.174  0.00  0.00     0.015 C 
ATOM      9  SG  CYS d   1      -1.942  22.318   7.731  0.00  0.00    -0.095 SA
ATOM     10  H4  CYS d   1       0.944  22.622   7.580  0.00  0.00     0.100 H 
ATOM     11  H5  CYS d   1       0.285  23.602   9.732  0.00  0.00     0.054 H 
ATOM     12  H6  CYS d   1       0.947  22.174  10.598  0.00  0.00     0.054 H 
ATOM     13 2H10 CYS d   1      -4.921  23.310   7.823  0.00  0.00     0.163 HD
ATOM     14 3H10 CYS d   1      -3.091  23.292  10.126  0.00  0.00     0.090 H 
ATOM     15 4H10 CYS d   1      -1.601  24.548   8.507  0.00  0.00     0.054 H 
ATOM     16 5H10 CYS d   1      -2.925  24.448   7.297  0.00  0.00     0.054 H 
ATOM     17  N   GLY d   1       2.890  24.156   8.056  0.00  0.00    -0.351 N 
ATOM     18  CA  GLY d   1       4.135  24.944   8.108  0.00  0.00     0.069 C 
ATOM     19  C   GLY d   1       4.589  25.300   9.517  0.00  0.00     0.236 C 
ATOM     20  O   GLY d   1       3.816  25.187  10.481  0.00  0.00    -0.272 OA
ATOM     21  N   GLY d   1     -14.985  18.624  12.690  0.00  0.00    -0.351 N 
ATOM     22  CA  GLY d   1     -14.538  17.306  12.226  0.00  0.00     0.069 C 
ATOM     23  C   GLY d   1     -13.503  17.418  11.104  0.00  0.00     0.236 C 
ATOM     24  O   GLY d   1     -12.982  16.408  10.655  0.00  0.00    -0.272 OA
ATOM     25  H7  GLY d   1       2.118  24.514   7.531  0.00  0.00     0.163 HD
ATOM     26  H8  GLY d   1       3.975  25.879   7.550  0.00  0.00     0.078 H 
ATOM     27  H9  GLY d   1       4.933  24.361   7.625  0.00  0.00     0.078 H 
ATOM     28  H64 GLY d   1     -14.492  19.083  13.429  0.00  0.00     0.163 HD
ATOM     29  H65 GLY d   1     -15.408  16.746  11.853  0.00  0.00     0.078 H 
ATOM     30  H66 GLY d   1     -14.089  16.765  13.072  0.00  0.00     0.078 H 
ATOM     31  N   ALA d   1       5.846  25.732   9.643  0.00  0.00    -0.347 N 
ATOM     32  CA  ALA d   1       6.472  25.952  10.958  0.00  0.00     0.086 C 
ATOM     33  C   ALA d   1       5.791  27.070  11.753  0.00  0.00     0.240 C 
ATOM     34  O   ALA d   1       6.077  27.279  12.934  0.00  0.00    -0.271 OA
ATOM     35  H10 ALA d   1       6.380  25.912   8.817  0.00  0.00     0.163 HD
ATOM     36  H11 ALA d   1       6.353  25.024  11.536  0.00  0.00     0.086 H 
ATOM     37  N   ASP d   1       4.882  27.777  11.093  0.00  0.00    -0.346 N 
ATOM     38  CA  ASP d   1       4.121  28.862  11.707  0.00  0.00     0.098 C 
ATOM     39  C   ASP d   1       2.735  28.386  12.174  0.00  0.00     0.241 C 
ATOM     40  O   ASP d   1       1.932  29.181  12.659  0.00  0.00    -0.271 OA
ATOM     41  N   ASP d   1     -15.218  21.290  13.252  0.00  0.00    -0.346 N 
ATOM     42  CA  ASP d   1     -16.390  20.583  12.676  0.00  0.00     0.098 C 
ATOM     43  C   ASP d   1     -16.036  19.210  12.137  0.00  0.00     0.241 C 
ATOM     44  O   ASP d   1     -16.700  18.694  11.220  0.00  0.00    -0.271 OA
ATOM     45  H15 ASP d   1       4.710  27.557  10.133  0.00  0.00     0.163 HD
ATOM     46  H16 ASP d   1       4.679  29.245  12.574  0.00  0.00     0.088 H 
ATOM     47  H60 ASP d   1     -15.212  21.507  14.228  0.00  0.00     0.163 HD
ATOM     48  H61 ASP d   1     -17.121  20.449  13.487  0.00  0.00     0.088 H 
ATOM     49  N   SER d   1       2.471  27.092  12.031  0.00  0.00    -0.344 N 
ATOM     50  CA  SER d   1       1.129  26.528  12.167  0.00  0.00     0.109 C 
ATOM     51  C   SER d   1       1.077  25.240  12.977  0.00  0.00     0.243 C 
ATOM     52  O   SER d   1       2.104  24.617  13.237  0.00  0.00    -0.271 OA
ATOM     53  H19 SER d   1       3.228  26.473  11.820  0.00  0.00     0.163 HD
ATOM     54  H20 SER d   1       0.490  27.276  12.658  0.00  0.00     0.090 H 
ATOM     55  N   TYR d   1      -0.131  24.845  13.377  0.00  0.00    -0.346 N 
ATOM     56  CA  TYR d   1      -0.375  23.482  13.853  0.00  0.00     0.093 C 
ATOM     57  C   TYR d   1      -1.691  22.955  13.278  0.00  0.00     0.241 C 
ATOM     58  O   TYR d   1      -2.559  23.746  12.925  0.00  0.00    -0.271 OA
ATOM     59  H24 TYR d   1      -0.890  25.496  13.351  0.00  0.00     0.163 HD
ATOM     60  H25 TYR d   1       0.430  22.850  13.450  0.00  0.00     0.088 H 
ATOM     61  N   GLU d   1      -1.826  21.638  13.151  0.00  0.00    -0.346 N 
ATOM     62  CA  GLU d   1      -3.106  21.060  12.715  0.00  0.00     0.090 C 
ATOM     63  C   GLU d   1      -4.199  21.224  13.772  0.00  0.00     0.241 C 
ATOM     64  O   GLU d   1      -4.037  20.820  14.935  0.00  0.00    -0.271 OA
ATOM     65  N   GLU d   1      -8.724  21.079  14.490  0.00  0.00    -0.346 N 
ATOM     66  CA  GLU d   1      -9.906  20.439  13.985  0.00  0.00     0.090 C 
ATOM     67  C   GLU d   1     -11.078  21.393  14.180  0.00  0.00     0.241 C 
ATOM     68  O   GLU d   1     -11.295  21.907  15.279  0.00  0.00    -0.271 OA
ATOM     69  N   GLU d   1     -11.834  21.615  13.111  0.00  0.00    -0.346 N 
ATOM     70  CA  GLU d   1     -13.037  22.448  13.152  0.00  0.00     0.090 C 
ATOM     71  C   GLU d   1     -14.170  21.645  12.499  0.00  0.00     0.241 C 
ATOM     72  O   GLU d   1     -14.070  21.325  11.330  0.00  0.00    -0.271 OA
ATOM     73  H33 GLU d   1      -1.052  21.037  13.353  0.00  0.00     0.163 HD
ATOM     74  H34 GLU d   1      -3.426  21.610  11.817  0.00  0.00     0.087 H 
ATOM     75  H48 GLU d   1      -8.699  21.420  15.430  0.00  0.00     0.163 HD
ATOM     76  H49 GLU d   1      -9.782  20.249  12.909  0.00  0.00     0.087 H 
ATOM     77  H54 GLU d   1     -11.571  21.196  12.242  0.00  0.00     0.163 HD
ATOM     78  H55 GLU d   1     -13.296  22.689  14.194  0.00  0.00     0.087 H 
ATOM     79  N   MET d   1      -5.312  21.824  13.375  0.00  0.00    -0.346 N 
ATOM     80  CA  MET d   1      -6.449  21.948  14.283  0.00  0.00     0.090 C 
ATOM     81  C   MET d   1      -7.664  21.216  13.702  0.00  0.00     0.241 C 
ATOM     82  O   MET d   1      -7.596  20.714  12.584  0.00  0.00    -0.271 OA
ATOM     83  H39 MET d   1      -5.374  22.194  12.448  0.00  0.00     0.163 HD
ATOM     84  H40 MET d   1      -6.182  21.456  15.230  0.00  0.00     0.087 H 
ATOM     85  N   VAL d   1     -13.196  18.637  10.642  0.00  0.00    -0.346 N 
ATOM     86  CA  VAL d   1     -12.235  18.830   9.537  0.00  0.00     0.092 C 
ATOM     87  C   VAL d   1     -10.902  19.290  10.095  0.00  0.00     0.241 C 
ATOM     88  O   VAL d   1     -10.832  20.278  10.828  0.00  0.00    -0.271 OA
ATOM     89  H67 VAL d   1     -13.629  19.438  11.056  0.00  0.00     0.163 HD
ATOM     90  H68 VAL d   1     -12.093  17.866   9.027  0.00  0.00     0.088 H 
ATOM     91  N   ARG d   1      -9.837  18.575   9.762  0.00  0.00    -0.346 N 
ATOM     92  CA  ARG d   1      -8.483  18.980  10.179  0.00  0.00     0.089 C 
ATOM     93  C   ARG d   1      -7.975  20.024   9.210  0.00  0.00     0.241 C 
ATOM     94  O   ARG d   1      -8.224  19.915   7.983  0.00  0.00    -0.271 OA
ATOM     95  H76 ARG d   1      -9.954  17.745   9.217  0.00  0.00     0.163 HD
ATOM     96  H77 ARG d   1      -8.526  19.406  11.192  0.00  0.00     0.087 H 
ATOM     97  N   LYS d   1      -7.282  21.033   9.747  0.00  0.00    -0.346 N 
ATOM     98  CA  LYS d   1      -6.864  22.200   8.956  0.00  0.00     0.089 C 
ATOM     99  C   LYS d   1      -5.606  22.685   9.602  0.00  0.00     0.241 C 
ATOM    100  O   LYS d   1      -5.445  22.523  10.803  0.00  0.00    -0.271 OA
ATOM    101  H89 LYS d   1      -7.040  20.993  10.716  0.00  0.00     0.163 HD
ATOM    102  H90 LYS d   1      -6.683  21.900   7.913  0.00  0.00     0.087 H 
ENDROOT
BRANCH  92 103
ATOM    103  CB  ARG d   1      -7.531  17.783  10.178  0.00  0.00    -0.036 C 
ATOM    104  H78 ARG d   1      -6.499  18.163  10.182  0.00  0.00     0.036 H 
ATOM    105  H79 ARG d   1      -7.705  17.205   9.258  0.00  0.00     0.036 H 
BRANCH 103 106
ATOM    106  CG  ARG d   1      -7.702  16.835  11.384  0.00  0.00    -0.048 C 
ATOM    107  H80 ARG d   1      -7.417  17.368  12.303  0.00  0.00     0.035 H 
ATOM    108  H81 ARG d   1      -7.048  15.961  11.249  0.00  0.00     0.035 H 
BRANCH 106 109
ATOM    109  CD  ARG d   1      -9.114  16.372  11.507  0.00  0.00     0.009 C 
ATOM    110  H82 ARG d   1      -9.481  16.043  10.524  0.00  0.00     0.064 H 
ATOM    111  H83 ARG d   1      -9.742  17.197  11.875  0.00  0.00     0.064 H 
BRANCH 109 112
ATOM    112  NE  ARG d   1      -9.170  15.256  12.449  0.00  0.00    -0.227 N 
ATOM    113  CZ  ARG d   1     -10.261  14.566  12.764  0.00  0.00     0.665 C 
ATOM    114  NH1 ARG d   1     -11.441  14.866  12.222  0.00  0.00    -0.235 N 
ATOM    115  NH2 ARG d   1     -10.152  13.559  13.629  0.00  0.00    -0.235 N 
ATOM    116  H85 ARG d   1     -12.278  14.322  12.476  0.00  0.00     0.174 HD
ATOM    117  H86 ARG d   1     -11.516  15.642  11.549  0.00  0.00     0.174 HD
ATOM    118  H87 ARG d   1      -9.237  13.333  14.044  0.00  0.00     0.174 HD
ATOM    119  H88 ARG d   1     -10.983  13.006  13.883  0.00  0.00     0.174 HD
ATOM    120  H84 ARG d   1      -8.290  14.981  12.907  0.00  0.00     0.177 HD
ENDBRANCH 109 112
ENDBRANCH 106 109
ENDBRANCH 103 106
ENDBRANCH  92 103
BRANCH  86 121
ATOM    121  CB  VAL d   1     -12.757  19.873   8.490  0.00  0.00    -0.033 C 
ATOM    122  H69 VAL d   1     -12.780  20.858   8.979  0.00  0.00     0.042 H 
BRANCH 121 123
ATOM    123  CG1 VAL d   1     -11.806  19.972   7.272  0.00  0.00    -0.071 C 
ATOM    124  H70 VAL d   1     -12.200  20.710   6.558  0.00  0.00     0.028 H 
ATOM    125  H71 VAL d   1     -11.735  18.990   6.782  0.00  0.00     0.028 H 
ATOM    126  H72 VAL d   1     -10.808  20.286   7.611  0.00  0.00     0.028 H 
ENDBRANCH 121 123
BRANCH 121 127
ATOM    127  CG2 VAL d   1     -14.193  19.530   8.048  0.00  0.00    -0.071 C 
ATOM    128  H73 VAL d   1     -14.844  19.467   8.933  0.00  0.00     0.028 H 
ATOM    129  H74 VAL d   1     -14.194  18.564   7.522  0.00  0.00     0.028 H 
ATOM    130  H75 VAL d   1     -14.566  20.315   7.374  0.00  0.00     0.028 H 
ENDBRANCH 121 127
ENDBRANCH  86 121
BRANCH  98 131
ATOM    131  CB  LYS d   1      -7.884  23.356   8.987  0.00  0.00    -0.038 C 
ATOM    132  H91 LYS d   1      -7.498  24.174   8.361  0.00  0.00     0.036 H 
ATOM    133  H92 LYS d   1      -7.980  23.704  10.026  0.00  0.00     0.036 H 
BRANCH 131 134
ATOM    134  CG  LYS d   1      -9.272  22.979   8.479  0.00  0.00    -0.061 C 
ATOM    135  H93 LYS d   1      -9.590  22.043   8.962  0.00  0.00     0.033 H 
ATOM    136  H94 LYS d   1      -9.229  22.833   7.389  0.00  0.00     0.033 H 
BRANCH 134 137
ATOM    137  CD  LYS d   1     -10.279  24.068   8.795  0.00  0.00    -0.043 C 
ATOM    138  H95 LYS d   1      -9.971  25.003   8.304  0.00  0.00     0.035 H 
ATOM    139  H96 LYS d   1     -10.320  24.222   9.883  0.00  0.00     0.035 H 
BRANCH 137 140
ATOM    140  CE  LYS d   1     -11.645  23.669   8.296  0.00  0.00     0.080 C 
ATOM    141  H97 LYS d   1     -11.961  22.744   8.800  0.00  0.00     0.075 H 
ATOM    142  H98 LYS d   1     -11.601  23.499   7.210  0.00  0.00     0.075 H 
BRANCH 140 143
ATOM    143  NZ  LYS d   1     -12.616  24.734   8.582  0.00  0.00    -0.079 N 
ATOM    144  H99 LYS d   1     -13.525  24.459   8.245  0.00  0.00     0.274 HD
ATOM    145 0H10 LYS d   1     -12.329  25.583   8.120  0.00  0.00     0.274 HD
ATOM    146 1H10 LYS d   1     -12.659  24.891   9.577  0.00  0.00     0.274 HD
ENDBRANCH 140 143
ENDBRANCH 137 140
ENDBRANCH 134 137
ENDBRANCH 131 134
ENDBRANCH  98 131
BRANCH   7 147
ATOM    147  C   CYS d   1      -3.790  25.295   9.796  0.00  0.00     0.197 C 
ATOM    148  O   CYS d   1      -4.349  26.085   9.037  0.00  0.00    -0.646 OA
ATOM    149  OXT CYS d   1      -3.452  25.667  10.943  0.00  0.00    -0.646 OA
ENDBRANCH   7 147
BRANCH  42 150
ATOM    150  CB  ASP d   1     -17.066  21.396  11.556  0.00  0.00     0.043 C 
ATOM    151  H62 ASP d   1     -17.660  20.711  10.934  0.00  0.00     0.052 H 
ATOM    152  H63 ASP d   1     -16.284  21.865  10.941  0.00  0.00     0.052 H 
BRANCH 150 153
ATOM    153  CG  ASP d   1     -17.978  22.480  12.088  0.00  0.00     0.175 C 
ATOM    154  OD1 ASP d   1     -18.349  22.407  13.273  0.00  0.00    -0.648 OA
ATOM    155  OD2 ASP d   1     -18.317  23.399  11.313  0.00  0.00    -0.648 OA
ENDBRANCH 150 153
ENDBRANCH  42 150
BRANCH   1 156
ATOM    156  N   CYS d   1       1.643  20.781   8.357  0.00  0.00    -0.066 N 
ATOM    157  H1  CYS d   1       0.757  20.315   8.240  0.00  0.00     0.275 HD
ATOM    158  H2  CYS d   1       2.101  20.429   9.183  0.00  0.00     0.275 HD
ATOM    159  H3  CYS d   1       2.223  20.608   7.551  0.00  0.00     0.275 HD
ENDBRANCH   1 156
BRANCH  70 160
ATOM    160  CB  GLU d   1     -12.791  23.748  12.367  0.00  0.00    -0.029 C 
ATOM    161  H56 GLU d   1     -12.591  23.484  11.318  0.00  0.00     0.037 H 
ATOM    162  H57 GLU d   1     -11.909  24.247  12.795  0.00  0.00     0.037 H 
BRANCH 160 163
ATOM    163  CG  GLU d   1     -13.954  24.727  12.398  0.00  0.00     0.018 C 
ATOM    164  H58 GLU d   1     -14.064  25.103  13.426  0.00  0.00     0.049 H 
ATOM    165  H59 GLU d   1     -14.868  24.189  12.105  0.00  0.00     0.049 H 
BRANCH 163 166
ATOM    166  CD  GLU d   1     -13.777  25.937  11.454  0.00  0.00     0.172 C 
ATOM    167  OE1 GLU d   1     -12.654  26.148  10.892  0.00  0.00    -0.648 OA
ATOM    168  OE2 GLU d   1     -14.784  26.682  11.295  0.00  0.00    -0.648 OA
ENDBRANCH 163 166
ENDBRANCH 160 163
ENDBRANCH  70 160
BRANCH  66 169
ATOM    169  CB  GLU d   1     -10.117  19.091  14.691  0.00  0.00    -0.029 C 
ATOM    170  H50 GLU d   1      -9.991  19.249  15.772  0.00  0.00     0.037 H 
ATOM    171  H51 GLU d   1      -9.348  18.393  14.330  0.00  0.00     0.037 H 
BRANCH 169 172
ATOM    172  CG  GLU d   1     -11.475  18.454  14.463  0.00  0.00     0.018 C 
ATOM    173  H52 GLU d   1     -11.365  17.363  14.556  0.00  0.00     0.049 H 
ATOM    174  H53 GLU d   1     -11.807  18.704  13.444  0.00  0.00     0.049 H 
BRANCH 172 175
ATOM    175  CD  GLU d   1     -12.546  18.910  15.439  0.00  0.00     0.172 C 
ATOM    176  OE1 GLU d   1     -13.599  19.371  14.975  0.00  0.00    -0.648 OA
ATOM    177  OE2 GLU d   1     -12.362  18.784  16.677  0.00  0.00    -0.648 OA
ENDBRANCH 172 175
ENDBRANCH 169 172
ENDBRANCH  66 169
BRANCH  32 178
ATOM    178  CB  ALA d   1       7.973  26.213  10.808  0.00  0.00    -0.049 C 
ATOM    179  H12 ALA d   1       8.418  26.374  11.801  0.00  0.00     0.030 H 
ATOM    180  H13 ALA d   1       8.129  27.107  10.187  0.00  0.00     0.030 H 
ATOM    181  H14 ALA d   1       8.450  25.345  10.329  0.00  0.00     0.030 H 
ENDBRANCH  32 178
BRANCH  80 182
ATOM    182  CB  MET d   1      -6.756  23.422  14.598  0.00  0.00    -0.030 C 
ATOM    183  H41 MET d   1      -5.897  23.830  15.150  0.00  0.00     0.037 H 
ATOM    184  H42 MET d   1      -7.649  23.446  15.240  0.00  0.00     0.037 H 
BRANCH 182 185
ATOM    185  CG  MET d   1      -7.019  24.344  13.405  0.00  0.00    -0.021 C 
ATOM    186  H43 MET d   1      -6.466  23.949  12.540  0.00  0.00     0.049 H 
ATOM    187  H44 MET d   1      -6.639  25.345  13.657  0.00  0.00     0.049 H 
BRANCH 185 188
ATOM    188  SD  MET d   1      -8.752  24.506  12.934  0.00  0.00    -0.173 SA
BRANCH 188 189
ATOM    189  CE  MET d   1      -9.486  25.354  14.339  0.00  0.00    -0.035 C 
ATOM    190  H45 MET d   1     -10.560  25.507  14.155  0.00  0.00     0.041 H 
ATOM    191  H46 MET d   1      -8.995  26.329  14.476  0.00  0.00     0.041 H 
ATOM    192  H47 MET d   1      -9.352  24.745  15.245  0.00  0.00     0.041 H 
ENDBRANCH 188 189
ENDBRANCH 185 188
ENDBRANCH 182 185
ENDBRANCH  80 182
BRANCH  38 193
ATOM    193  CB  ASP d   1       3.943  29.981  10.678  0.00  0.00     0.043 C 
ATOM    194  H17 ASP d   1       4.930  30.257  10.279  0.00  0.00     0.052 H 
ATOM    195  H18 ASP d   1       3.492  30.852  11.175  0.00  0.00     0.052 H 
BRANCH 193 196
ATOM    196  CG  ASP d   1       3.045  29.554   9.521  0.00  0.00     0.175 C 
ATOM    197  OD1 ASP d   1       3.252  28.431   8.976  0.00  0.00    -0.648 OA
ATOM    198  OD2 ASP d   1       2.116  30.325   9.181  0.00  0.00    -0.648 OA
ENDBRANCH 193 196
ENDBRANCH  38 193
BRANCH  62 199
ATOM    199  CB  GLU d   1      -2.957  19.586  12.330  0.00  0.00    -0.029 C 
ATOM    200  H35 GLU d   1      -2.749  19.003  13.239  0.00  0.00     0.037 H 
ATOM    201  H36 GLU d   1      -2.114  19.488  11.631  0.00  0.00     0.037 H 
BRANCH 199 202
ATOM    202  CG  GLU d   1      -4.230  19.018  11.656  0.00  0.00     0.018 C 
ATOM    203  H37 GLU d   1      -4.379  19.530  10.694  0.00  0.00     0.049 H 
ATOM    204  H38 GLU d   1      -5.092  19.211  12.311  0.00  0.00     0.049 H 
BRANCH 202 205
ATOM    205  CD  GLU d   1      -4.135  17.527  11.403  0.00  0.00     0.172 C 
ATOM    206  OE1 GLU d   1      -3.854  16.795  12.376  0.00  0.00    -0.648 OA
ATOM    207  OE2 GLU d   1      -4.354  17.069  10.251  0.00  0.00    -0.648 OA
ENDBRANCH 202 205
ENDBRANCH 199 202
ENDBRANCH  62 199
BRANCH  50 208
ATOM    208  CB  SER d   1       0.576  26.216  10.781  0.00  0.00     0.044 C 
ATOM    209  H21 SER d   1       0.105  25.222  10.792  0.00  0.00     0.077 H 
ATOM    210  H22 SER d   1       1.398  26.224  10.050  0.00  0.00     0.077 H 
BRANCH 208 211
ATOM    211  OG  SER d   1      -0.378  27.177  10.417  0.00  0.00    -0.398 OA
ATOM    212  H23 SER d   1      -0.716  26.974   9.553  0.00  0.00     0.209 HD
ENDBRANCH 208 211
ENDBRANCH  50 208
BRANCH  56 213
ATOM    213  CB  TYR d   1      -0.299  23.362  15.402  0.00  0.00    -0.014 C 
ATOM    214  H26 TYR d   1       0.718  23.655  15.702  0.00  0.00     0.043 H 
ATOM    215  H27 TYR d   1      -0.466  22.305  15.656  0.00  0.00     0.043 H 
BRANCH 213 216
ATOM    216  CG  TYR d   1      -1.270  24.184  16.236  0.00  0.00    -0.056 A 
ATOM    217  CD1 TYR d   1      -2.400  23.594  16.797  0.00  0.00    -0.074 A 
ATOM    218  CE1 TYR d   1      -3.289  24.331  17.577  0.00  0.00    -0.051 A 
ATOM    219  H28 TYR d   1      -2.592  22.541  16.624  0.00  0.00     0.084 H 
ATOM    220  CZ  TYR d   1      -3.030  25.669  17.829  0.00  0.00     0.065 A 
ATOM    221  H30 TYR d   1      -4.177  23.861  17.984  0.00  0.00     0.087 H 
ATOM    222  CE2 TYR d   1      -1.901  26.276  17.306  0.00  0.00    -0.051 A 
ATOM    223  CD2 TYR d   1      -1.019  25.530  16.528  0.00  0.00    -0.074 A 
ATOM    224  H31 TYR d   1      -1.705  27.324  17.501  0.00  0.00     0.087 H 
ATOM    225  H29 TYR d   1      -0.122  26.000  16.142  0.00  0.00     0.084 H 
BRANCH 220 226
ATOM    226  OH  TYR d   1      -3.902  26.399  18.604  0.00  0.00    -0.361 OA
ATOM    227  H32 TYR d   1      -4.619  25.841  18.883  0.00  0.00     0.217 HD
ENDBRANCH 220 226
ENDBRANCH 213 216
ENDBRANCH  56 213
TORSDOF 37
