REMARK  13 active torsions:
REMARK  status: ('A' for Active; 'I' for Inactive)
REMARK    1  A    between atoms: C3_3  and  O7_46 
REMARK    2  A    between atoms: N9_45  and  C6_6 
REMARK    3  A    between atoms: O7_46  and  C8_7 
REMARK    4  A    between atoms: C10_8  and  N9_45 
REMARK    5  A    between atoms: C16_41  and  C12_9 
REMARK    6  A    between atoms: N43_13  and  C46_14 
REMARK    7  A    between atoms: C39_18  and  N40_17 
REMARK    8  A    between atoms: C36_19  and  C39_18 
REMARK    9  A    between atoms: C31_25  and  C32_24 
REMARK       I    between atoms: N30_27  and  C31_25 
REMARK   10  A    between atoms: C25_28  and  N30_27 
REMARK   11  A    between atoms: C28_32  and  C29_33 
REMARK   12  A    between atoms: N22_35  and  C23_34 
REMARK   13  A    between atoms: C21_36  and  N22_35 
ROOT
ATOM      1  C25 G6G d   1       5.464  33.067  10.683  0.00  0.00     0.037 A 
ATOM      2  C24 G6G d   1       6.563  33.554   9.937  0.00  0.00    -0.031 A 
ATOM      3  C26 G6G d   1       5.314  33.501  11.996  0.00  0.00    -0.057 A 
ATOM      4  C27 G6G d   1       6.226  34.408  12.544  0.00  0.00    -0.073 A 
ATOM      5  C28 G6G d   1       7.300  34.907  11.807  0.00  0.00    -0.035 A 
ATOM      6  C23 G6G d   1       7.476  34.490  10.474  0.00  0.00     0.041 A 
ATOM      7  H29 G6G d   1       6.709  33.199   8.923  0.00  0.00     0.090 H 
ATOM      8  H30 G6G d   1       4.488  33.135  12.596  0.00  0.00     0.086 H 
ATOM      9  H31 G6G d   1       6.095  34.732  13.570  0.00  0.00     0.084 H 
ENDROOT
BRANCH   1  10
ATOM     10  N30 G6G d   1       4.562  32.184  10.227  0.00  0.00    -0.323 N 
ATOM     11  C31 G6G d   1       4.601  31.476   9.074  0.00  0.00     0.256 C 
ATOM     12  O33 G6G d   1       5.476  31.553   8.207  0.00  0.00    -0.267 OA
ATOM     13  H28 G6G d   1       3.764  32.031  10.810  0.00  0.00     0.169 HD
BRANCH  11  14
ATOM     14  C32 G6G d   1       3.458  30.465   8.870  0.00  0.00     0.032 A 
ATOM     15  C38 G6G d   1       3.598  29.538   7.843  0.00  0.00    -0.067 A 
ATOM     16  C37 G6G d   1       2.614  28.587   7.600  0.00  0.00    -0.074 A 
ATOM     17  H25 G6G d   1       4.487  29.557   7.223  0.00  0.00     0.085 H 
ATOM     18  C36 G6G d   1       1.465  28.564   8.385  0.00  0.00    -0.033 A 
ATOM     19  H24 G6G d   1       2.741  27.865   6.801  0.00  0.00     0.084 H 
ATOM     20  C35 G6G d   1       1.315  29.490   9.408  0.00  0.00    -0.074 A 
ATOM     21  C34 G6G d   1       2.313  30.444   9.655  0.00  0.00    -0.067 A 
ATOM     22  H26 G6G d   1       0.420  29.476  10.020  0.00  0.00     0.084 H 
ATOM     23  H27 G6G d   1       2.191  31.163  10.457  0.00  0.00     0.085 H 
BRANCH  18  24
ATOM     24  C39 G6G d   1       0.401  27.516   8.076  0.00  0.00     0.107 C 
ATOM     25  H22 G6G d   1       0.670  27.009   7.138  0.00  0.00     0.083 H 
ATOM     26  H23 G6G d   1       0.381  26.784   8.896  0.00  0.00     0.083 H 
BRANCH  24  27
ATOM     27  N40 G6G d   1      -0.960  28.099   7.927  0.00  0.00    -0.064 N 
ATOM     28  C41 G6G d   1      -1.113  29.084   6.825  0.00  0.00     0.106 C 
ATOM     29  C42 G6G d   1      -2.480  29.770   7.001  0.00  0.00     0.105 C 
ATOM     30  H9  G6G d   1      -0.308  29.832   6.876  0.00  0.00     0.078 H 
ATOM     31  H10 G6G d   1      -1.074  28.569   5.854  0.00  0.00     0.078 H 
ATOM     32  N43 G6G d   1      -3.497  28.722   6.885  0.00  0.00    -0.072 N 
ATOM     33  H11 G6G d   1      -2.627  30.529   6.218  0.00  0.00     0.078 H 
ATOM     34  H12 G6G d   1      -2.539  30.248   7.990  0.00  0.00     0.078 H 
ATOM     35  C44 G6G d   1      -3.411  27.677   7.939  0.00  0.00     0.105 C 
ATOM     36  H13 G6G d   1      -3.316  28.250   6.013  0.00  0.00     0.279 HD
ATOM     37  C45 G6G d   1      -2.012  27.040   7.901  0.00  0.00     0.106 C 
ATOM     38  H17 G6G d   1      -4.173  26.905   7.755  0.00  0.00     0.078 H 
ATOM     39  H18 G6G d   1      -3.582  28.133   8.925  0.00  0.00     0.078 H 
ATOM     40  H19 G6G d   1      -1.908  26.448   6.980  0.00  0.00     0.078 H 
ATOM     41  H20 G6G d   1      -1.888  26.384   8.775  0.00  0.00     0.078 H 
ATOM     42  H21 G6G d   1      -1.119  28.624   8.773  0.00  0.00     0.280 HD
BRANCH  32  43
ATOM     43  C46 G6G d   1      -4.852  29.303   6.773  0.00  0.00     0.066 C 
ATOM     44  H14 G6G d   1      -5.592  28.494   6.688  0.00  0.00     0.068 H 
ATOM     45  H15 G6G d   1      -4.904  29.943   5.880  0.00  0.00     0.068 H 
ATOM     46  H16 G6G d   1      -5.068  29.904   7.668  0.00  0.00     0.068 H 
ENDBRANCH  32  43
ENDBRANCH  24  27
ENDBRANCH  18  24
ENDBRANCH  11  14
ENDBRANCH   1  10
BRANCH   6  47
ATOM     47  N22 G6G d   1       8.524  34.956   9.737  0.00  0.00    -0.340 N 
ATOM     48  H35 G6G d   1       9.337  34.339   9.603  0.00  0.00     0.167 HD
BRANCH  47  49
ATOM     49  C21 G6G d   1       8.554  36.179   9.175  0.00  0.00     0.141 A 
ATOM     50  N20 G6G d   1       7.454  36.942   9.266  0.00  0.00    -0.242 NA
ATOM     51  C19 G6G d   1       7.376  38.163   8.730  0.00  0.00     0.004 A 
ATOM     52  C18 G6G d   1       8.461  38.689   8.021  0.00  0.00    -0.065 A 
ATOM     53  H36 G6G d   1       6.470  38.747   8.845  0.00  0.00     0.114 H 
ATOM     54  C17 G6G d   1       9.629  37.917   7.867  0.00  0.00    -0.064 A 
ATOM     55  H37 G6G d   1       8.403  39.683   7.593  0.00  0.00     0.085 H 
ATOM     56  C16 G6G d   1       9.689  36.650   8.467  0.00  0.00     0.058 A 
ATOM     57  H38 G6G d   1      10.468  38.295   7.294  0.00  0.00     0.085 H 
BRANCH  56  58
ATOM     58  C12 G6G d   1      10.871  35.907   8.314  0.00  0.00     0.183 A 
ATOM     59  N11 G6G d   1      11.893  36.463   7.649  0.00  0.00    -0.042 NA
ATOM     60  C10 G6G d   1      13.054  35.806   7.456  0.00  0.00     0.730 A 
ATOM     61  N15 G6G d   1      13.200  34.561   7.974  0.00  0.00    -0.056 NA
ATOM     62  C14 G6G d   1      12.198  34.013   8.640  0.00  0.00     0.107 A 
ATOM     63  N13 G6G d   1      11.040  34.661   8.817  0.00  0.00    -0.220 NA
ATOM     64  H8  G6G d   1      12.317  33.017   9.052  0.00  0.00     0.147 H 
BRANCH  60  65
ATOM     65  N9  G6G d   1      14.074  36.380   6.782  0.00  0.00    -0.188 N 
ATOM     66  H39 G6G d   1      14.964  35.862   6.798  0.00  0.00     0.184 HD
BRANCH  65  67
ATOM     67  C6  G6G d   1      14.087  37.544   6.087  0.00  0.00     0.049 A 
ATOM     68  C1  G6G d   1      15.324  38.083   5.699  0.00  0.00    -0.054 A 
ATOM     69  C2  G6G d   1      15.419  39.284   4.969  0.00  0.00    -0.049 A 
ATOM     70  H1  G6G d   1      16.234  37.559   5.969  0.00  0.00     0.087 H 
ATOM     71  C3  G6G d   1      14.258  39.966   4.592  0.00  0.00     0.068 A 
ATOM     72  H2  G6G d   1      16.392  39.679   4.700  0.00  0.00     0.087 H 
ATOM     73  C4  G6G d   1      13.021  39.420   4.966  0.00  0.00    -0.049 A 
ATOM     74  C5  G6G d   1      12.943  38.227   5.704  0.00  0.00    -0.054 A 
ATOM     75  H3  G6G d   1      12.107  39.929   4.680  0.00  0.00     0.087 H 
ATOM     76  H4  G6G d   1      11.971  37.834   5.979  0.00  0.00     0.087 H 
BRANCH  71  77
ATOM     77  O7  G6G d   1      14.303  41.152   3.866  0.00  0.00    -0.356 OA
BRANCH  77  78
ATOM     78  C8  G6G d   1      15.652  41.459   3.333  0.00  0.00     0.010 C 
ATOM     79  H5  G6G d   1      15.618  42.405   2.772  0.00  0.00     0.066 H 
ATOM     80  H6  G6G d   1      15.976  40.648   2.664  0.00  0.00     0.066 H 
ATOM     81  H7  G6G d   1      16.363  41.553   4.167  0.00  0.00     0.066 H 
ENDBRANCH  77  78
ENDBRANCH  71  77
ENDBRANCH  65  67
ENDBRANCH  60  65
ENDBRANCH  56  58
ENDBRANCH  47  49
ENDBRANCH   6  47
BRANCH   5  82
ATOM     82  C29 G6G d   1       8.271  35.905  12.489  0.00  0.00    -0.049 C 
ATOM     83  H32 G6G d   1       7.943  36.087  13.523  0.00  0.00     0.033 H 
ATOM     84  H33 G6G d   1       8.272  36.854  11.932  0.00  0.00     0.033 H 
ATOM     85  H34 G6G d   1       9.287  35.482  12.495  0.00  0.00     0.033 H 
ENDBRANCH   5  82
TORSDOF 13
