REMARK  15 active torsions:
REMARK  status: ('A' for Active; 'I' for Inactive)
REMARK    1  A    between atoms: CBQ_1  and  OBP_2 
REMARK    2  A    between atoms: OBP_2  and  CAB_3 
REMARK    3  A    between atoms: CAA_5  and  OBO_6 
REMARK    4  A    between atoms: OBO_6  and  CBR_7 
REMARK    5  A    between atoms: CAF_8  and  OBS_9 
REMARK    6  A    between atoms: OBS_9  and  CBT_10 
REMARK    7  A    between atoms: CAD_12  and  NAG_13 
REMARK    8  A    between atoms: NAG_13  and  CAH_14 
REMARK    9  A    between atoms: CAJ_19  and  CAN_20 
REMARK   10  A    between atoms: CAS_25  and  NAT_26 
REMARK   11  A    between atoms: NAT_26  and  CAU_27 
REMARK   12  A    between atoms: CAZ_29  and  CBA_30 
REMARK   13  A    between atoms: CAW_33  and  NBB_34 
REMARK       I    between atoms: NBB_34  and  CBC_35 
REMARK   14  A    between atoms: CBC_35  and  CBE_37 
REMARK   15  A    between atoms: CBI_42  and  CBK_43 
ROOT
ATOM      1  CAN G6H d   1      -6.023 -36.852 -31.222  0.00  0.00     0.058 A 
ATOM      2  CAO G6H d   1      -6.137 -38.065 -30.539  0.00  0.00    -0.064 A 
ATOM      3  CAP G6H d   1      -7.348 -38.771 -30.516  0.00  0.00    -0.065 A 
ATOM      4  CAQ G6H d   1      -8.458 -38.239 -31.175  0.00  0.00     0.004 A 
ATOM      5  NAR G6H d   1      -8.344 -37.079 -31.815  0.00  0.00    -0.242 NA
ATOM      6  CAS G6H d   1      -7.192 -36.363 -31.865  0.00  0.00     0.141 A 
ATOM      7  H14 G6H d   1      -5.275 -38.467 -30.018  0.00  0.00     0.085 H 
ATOM      8  H15 G6H d   1      -7.422 -39.718 -29.993  0.00  0.00     0.085 H 
ATOM      9  H16 G6H d   1      -9.405 -38.767 -31.165  0.00  0.00     0.114 H 
ENDROOT
BRANCH   6  10
ATOM     10  NAT G6H d   1      -7.226 -35.195 -32.541  0.00  0.00    -0.340 N 
ATOM     11  H17 G6H d   1      -6.407 -34.573 -32.495  0.00  0.00     0.167 HD
BRANCH  10  12
ATOM     12  CAU G6H d   1      -8.306 -34.806 -33.284  0.00  0.00     0.041 A 
ATOM     13  CAV G6H d   1      -9.264 -33.895 -32.768  0.00  0.00    -0.031 A 
ATOM     14  CAW G6H d   1     -10.385 -33.498 -33.539  0.00  0.00     0.037 A 
ATOM     15  H18 G6H d   1      -9.136 -33.496 -31.768  0.00  0.00     0.090 H 
ATOM     16  CAX G6H d   1     -10.512 -33.996 -34.827  0.00  0.00    -0.057 A 
ATOM     17  CAY G6H d   1      -9.573 -34.875 -35.349  0.00  0.00    -0.073 A 
ATOM     18  H23 G6H d   1     -11.357 -33.694 -35.435  0.00  0.00     0.086 H 
ATOM     19  CAZ G6H d   1      -8.482 -35.291 -34.598  0.00  0.00    -0.035 A 
ATOM     20  H22 G6H d   1      -9.694 -35.243 -36.361  0.00  0.00     0.084 H 
BRANCH  14  21
ATOM     21  NBB G6H d   1     -11.345 -32.630 -33.178  0.00  0.00    -0.323 N 
ATOM     22  CBC G6H d   1     -11.499 -31.997 -32.014  0.00  0.00     0.256 C 
ATOM     23  OBD G6H d   1     -10.830 -32.212 -31.011  0.00  0.00    -0.267 OA
ATOM     24  H24 G6H d   1     -12.035 -32.432 -33.874  0.00  0.00     0.169 HD
BRANCH  22  25
ATOM     25  CBE G6H d   1     -12.663 -30.991 -31.941  0.00  0.00     0.033 A 
ATOM     26  CBJ G6H d   1     -12.552 -29.878 -31.107  0.00  0.00    -0.053 A 
ATOM     27  CBI G6H d   1     -13.584 -28.947 -30.999  0.00  0.00     0.048 A 
ATOM     28  H25 G6H d   1     -11.645 -29.734 -30.531  0.00  0.00     0.086 H 
ATOM     29  CBH G6H d   1     -14.742 -29.129 -31.751  0.00  0.00    -0.068 A 
ATOM     30  CBG G6H d   1     -14.865 -30.231 -32.597  0.00  0.00    -0.081 A 
ATOM     31  H28 G6H d   1     -15.551 -28.411 -31.678  0.00  0.00     0.084 H 
ATOM     32  CBF G6H d   1     -13.826 -31.164 -32.687  0.00  0.00    -0.068 A 
ATOM     33  H27 G6H d   1     -15.766 -30.365 -33.185  0.00  0.00     0.083 H 
ATOM     34  H26 G6H d   1     -13.927 -32.024 -33.339  0.00  0.00     0.085 H 
BRANCH  27  35
ATOM     35  CBK G6H d   1     -13.424 -27.732 -30.053  0.00  0.00     0.417 C 
ATOM     36  FBL G6H d   1     -13.452 -28.126 -28.788  0.00  0.00    -0.166 F 
ATOM     37  FBM G6H d   1     -14.416 -26.871 -30.179  0.00  0.00    -0.166 F 
ATOM     38  FBN G6H d   1     -12.268 -27.119 -30.307  0.00  0.00    -0.166 F 
ENDBRANCH  27  35
ENDBRANCH  22  25
ENDBRANCH  14  21
BRANCH  19  39
ATOM     39  CBA G6H d   1      -7.509 -36.276 -35.274  0.00  0.00    -0.049 C 
ATOM     40  H19 G6H d   1      -7.863 -36.501 -36.291  0.00  0.00     0.033 H 
ATOM     41  H20 G6H d   1      -7.462 -37.206 -34.688  0.00  0.00     0.033 H 
ATOM     42  H21 G6H d   1      -6.507 -35.825 -35.326  0.00  0.00     0.033 H 
ENDBRANCH  19  39
ENDBRANCH  10  12
ENDBRANCH   6  10
BRANCH   1  43
ATOM     43  CAJ G6H d   1      -4.762 -36.201 -31.179  0.00  0.00     0.183 A 
ATOM     44  NAI G6H d   1      -3.736 -36.793 -30.508  0.00  0.00    -0.042 NA
ATOM     45  CAH G6H d   1      -2.512 -36.216 -30.405  0.00  0.00     0.730 A 
ATOM     46  NAM G6H d   1      -2.332 -35.023 -30.990  0.00  0.00    -0.056 NA
ATOM     47  CAL G6H d   1      -3.329 -34.420 -31.635  0.00  0.00     0.107 A 
ATOM     48  NAK G6H d   1      -4.533 -34.985 -31.742  0.00  0.00    -0.220 NA
ATOM     49  H13 G6H d   1      -3.158 -33.448 -32.083  0.00  0.00     0.147 H 
BRANCH  45  50
ATOM     50  NAG G6H d   1      -1.484 -36.787 -29.737  0.00  0.00    -0.188 N 
ATOM     51  H12 G6H d   1      -0.553 -36.370 -29.884  0.00  0.00     0.184 HD
BRANCH  50  52
ATOM     52  CAD G6H d   1      -1.545 -37.848 -28.895  0.00  0.00     0.054 A 
ATOM     53  CAC G6H d   1      -2.756 -38.383 -28.449  0.00  0.00    -0.022 A 
ATOM     54  CAB G6H d   1      -2.775 -39.503 -27.597  0.00  0.00     0.106 A 
ATOM     55  H4  G6H d   1      -3.690 -37.931 -28.762  0.00  0.00     0.091 H 
ATOM     56  CAA G6H d   1      -1.571 -40.108 -27.179  0.00  0.00     0.135 A 
ATOM     57  CAF G6H d   1      -0.341 -39.586 -27.607  0.00  0.00     0.106 A 
ATOM     58  CAE G6H d   1      -0.360 -38.470 -28.468  0.00  0.00    -0.022 A 
ATOM     59  H11 G6H d   1       0.586 -38.072 -28.818  0.00  0.00     0.091 H 
BRANCH  54  60
ATOM     60  OBP G6H d   1      -3.964 -40.030 -27.147  0.00  0.00    -0.353 OA
BRANCH  60  61
ATOM     61  CBQ G6H d   1      -5.130 -39.260 -27.497  0.00  0.00     0.010 C 
ATOM     62  H1  G6H d   1      -6.029 -39.754 -27.098  0.00  0.00     0.066 H 
ATOM     63  H2  G6H d   1      -5.207 -39.188 -28.592  0.00  0.00     0.066 H 
ATOM     64  H3  G6H d   1      -5.045 -38.251 -27.068  0.00  0.00     0.066 H 
ENDBRANCH  60  61
ENDBRANCH  54  60
BRANCH  56  65
ATOM     65  OBO G6H d   1      -1.625 -41.188 -26.334  0.00  0.00    -0.351 OA
BRANCH  65  66
ATOM     66  CBR G6H d   1      -2.111 -40.813 -24.971  0.00  0.00     0.011 C 
ATOM     67  H5  G6H d   1      -2.137 -41.708 -24.332  0.00  0.00     0.067 H 
ATOM     68  H6  G6H d   1      -3.122 -40.387 -25.047  0.00  0.00     0.067 H 
ATOM     69  H7  G6H d   1      -1.431 -40.068 -24.531  0.00  0.00     0.067 H 
ENDBRANCH  65  66
ENDBRANCH  56  65
BRANCH  57  70
ATOM     70  OBS G6H d   1       0.893 -40.123 -27.252  0.00  0.00    -0.353 OA
BRANCH  70  71
ATOM     71  CBT G6H d   1       1.158 -40.659 -25.904  0.00  0.00     0.010 C 
ATOM     72  H8  G6H d   1       2.193 -41.028 -25.853  0.00  0.00     0.066 H 
ATOM     73  H9  G6H d   1       0.463 -41.486 -25.695  0.00  0.00     0.066 H 
ATOM     74  H10 G6H d   1       1.015 -39.863 -25.158  0.00  0.00     0.066 H 
ENDBRANCH  70  71
ENDBRANCH  57  70
ENDBRANCH  50  52
ENDBRANCH  45  50
ENDBRANCH   1  43
TORSDOF 15
