REMARK  3 active torsions:
REMARK  status: ('A' for Active; 'I' for Inactive)
REMARK    1  A    between atoms: N1_1  and  C10_3 
REMARK    2  A    between atoms: N3_5  and  C12_7 
REMARK    3  A    between atoms: N7_12  and  C14_14 
ROOT
ATOM      1  N1  CFF d   1      15.260   5.924   2.832  0.00  0.00    -0.269 N 
ATOM      2  C2  CFF d   1      14.106   6.237   2.159  0.00  0.00     0.332 A 
ATOM      3  C6  CFF d   1      15.237   5.390   4.081  0.00  0.00     0.282 A 
ATOM      4  N3  CFF d   1      12.850   6.049   2.657  0.00  0.00    -0.286 N 
ATOM      5  O11 CFF d   1      14.194   6.736   1.004  0.00  0.00    -0.246 OA
ATOM      6  C4  CFF d   1      12.716   5.536   3.881  0.00  0.00     0.167 A 
ATOM      7  C5  CFF d   1      13.888   5.170   4.666  0.00  0.00     0.151 A 
ATOM      8  N9  CFF d   1      11.628   5.244   4.621  0.00  0.00    -0.223 NA
ATOM      9  O13 CFF d   1      16.279   5.088   4.705  0.00  0.00    -0.265 OA
ATOM     10  N7  CFF d   1      13.450   4.684   5.834  0.00  0.00    -0.338 N 
ATOM     11  C8  CFF d   1      12.096   4.737   5.797  0.00  0.00     0.068 A 
ATOM     12  H7  CFF d   1      11.454   4.411   6.614  0.00  0.00     0.143 H 
ENDROOT
BRANCH   1  13
ATOM     13  C10 CFF d   1      16.567   6.175   2.195  0.00  0.00    -0.007 C 
ATOM     14  H1  CFF d   1      16.411   6.606   1.195  0.00  0.00     0.057 H 
ATOM     15  H2  CFF d   1      17.119   5.228   2.104  0.00  0.00     0.057 H 
ATOM     16  H3  CFF d   1      17.146   6.879   2.811  0.00  0.00     0.057 H 
ENDBRANCH   1  13
BRANCH   4  17
ATOM     17  C12 CFF d   1      11.664   6.417   1.861  0.00  0.00    -0.008 C 
ATOM     18  H4  CFF d   1      11.985   6.819   0.889  0.00  0.00     0.057 H 
ATOM     19  H5  CFF d   1      11.084   7.181   2.399  0.00  0.00     0.057 H 
ATOM     20  H6  CFF d   1      11.039   5.526   1.701  0.00  0.00     0.057 H 
ENDBRANCH   4  17
BRANCH  10  21
ATOM     21  C14 CFF d   1      14.242   4.180   6.965  0.00  0.00    -0.013 C 
ATOM     22  H8  CFF d   1      15.313   4.253   6.724  0.00  0.00     0.057 H 
ATOM     23  H9  CFF d   1      13.980   3.129   7.156  0.00  0.00     0.057 H 
ATOM     24  H10 CFF d   1      14.026   4.781   7.861  0.00  0.00     0.057 H 
ENDBRANCH  10  21
TORSDOF 3
