REMARK  13 active torsions:
REMARK  status: ('A' for Active; 'I' for Inactive)
REMARK       I    between atoms: C23_2  and  N27_3 
REMARK    1  A    between atoms: C23_2  and  C21_16 
REMARK    2  A    between atoms: N27_3  and  C32_4 
REMARK    3  A    between atoms: N27_3  and  C31_13 
REMARK    4  A    between atoms: C32_4  and  C36_5 
REMARK    5  A    between atoms: C39_9  and  C43_10 
REMARK    6  A    between atoms: C37_11  and  C40_12 
REMARK    7  A    between atoms: C20_24  and  C19_25 
REMARK    8  A    between atoms: C14_30  and  O13_31 
REMARK    9  A    between atoms: O13_31  and  C12_32 
REMARK   10  A    between atoms: C12_32  and  C8_33 
REMARK   11  A    between atoms: C8_33  and  O5_34 
REMARK   12  A    between atoms: O5_34  and  C3_35 
REMARK   13  A    between atoms: C7_39  and  C11_40 
ROOT
ATOM      1  C21 A7T d   1      -5.946 -17.596 -11.645  0.00  0.00     0.049 C 
ATOM      2  C24 A7T d   1      -4.941 -18.010 -12.690  0.00  0.00     0.156 C 
ATOM      3  N28 A7T d   1      -5.617 -18.672 -13.800  0.00  0.00    -0.059 N 
ATOM      4  C29 A7T d   1      -3.934 -18.997 -12.103  0.00  0.00     0.112 C 
ATOM      5  N33 A7T d   1      -4.586 -20.290 -11.888  0.00  0.00    -0.071 N 
ATOM      6  C30 A7T d   1      -5.546 -20.877 -12.817  0.00  0.00     0.108 C 
ATOM      7  C25 A7T d   1      -6.426 -19.820 -13.471  0.00  0.00     0.129 C 
ATOM      8  C22 A7T d   1      -7.530 -19.398 -12.504  0.00  0.00    -0.011 C 
ATOM      9  C20 A7T d   1      -7.142 -18.244 -11.576  0.00  0.00    -0.032 C 
ATOM     10  H17 A7T d   1      -4.413 -17.117 -13.056  0.00  0.00     0.095 H 
ATOM     11  H18 A7T d   1      -4.910 -18.973 -14.453  0.00  0.00     0.278 HD
ATOM     12  H19 A7T d   1      -6.216 -17.992 -14.242  0.00  0.00     0.278 HD
ATOM     13  H20 A7T d   1      -3.559 -18.611 -11.143  0.00  0.00     0.079 H 
ATOM     14  H21 A7T d   1      -3.093 -19.122 -12.801  0.00  0.00     0.079 H 
ATOM     15  H22 A7T d   1      -5.070 -20.211 -11.007  0.00  0.00     0.277 HD
ATOM     16  H23 A7T d   1      -3.840 -20.963 -11.802  0.00  0.00     0.277 HD
ATOM     17  H24 A7T d   1      -6.187 -21.582 -12.267  0.00  0.00     0.078 H 
ATOM     18  H25 A7T d   1      -4.996 -21.417 -13.602  0.00  0.00     0.078 H 
ATOM     19  H26 A7T d   1      -6.876 -20.230 -14.387  0.00  0.00     0.087 H 
ATOM     20  H27 A7T d   1      -7.795 -20.266 -11.883  0.00  0.00     0.043 H 
ATOM     21  H28 A7T d   1      -8.405 -19.088 -13.094  0.00  0.00     0.043 H 
ENDROOT
BRANCH   9  22
ATOM     22  C19 A7T d   1      -8.194 -17.867 -10.563  0.00  0.00    -0.029 A 
ATOM     23  C17 A7T d   1      -9.490 -17.667 -11.013  0.00  0.00    -0.070 A 
ATOM     24  C15 A7T d   1     -10.497 -17.312 -10.130  0.00  0.00    -0.050 A 
ATOM     25  H29 A7T d   1      -9.718 -17.790 -12.066  0.00  0.00     0.084 H 
ATOM     26  C14 A7T d   1     -10.206 -17.146  -8.778  0.00  0.00     0.068 A 
ATOM     27  H30 A7T d   1     -11.509 -17.164 -10.490  0.00  0.00     0.087 H 
ATOM     28  C16 A7T d   1      -8.908 -17.337  -8.307  0.00  0.00    -0.050 A 
ATOM     29  C18 A7T d   1      -7.894 -17.697  -9.199  0.00  0.00    -0.070 A 
ATOM     30  H32 A7T d   1      -8.686 -17.207  -7.254  0.00  0.00     0.087 H 
ATOM     31  H31 A7T d   1      -6.881 -17.845  -8.842  0.00  0.00     0.084 H 
BRANCH  26  32
ATOM     32  O13 A7T d   1     -11.197 -16.798  -7.908  0.00  0.00    -0.349 OA
BRANCH  32  33
ATOM     33  C12 A7T d   1     -12.427 -16.225  -8.353  0.00  0.00     0.046 C 
ATOM     34  H33 A7T d   1     -13.254 -16.925  -8.161  0.00  0.00     0.078 H 
ATOM     35  H34 A7T d   1     -12.369 -16.013  -9.431  0.00  0.00     0.078 H 
BRANCH  33  36
ATOM     36  C8  A7T d   1     -12.661 -14.933  -7.588  0.00  0.00     0.046 C 
ATOM     37  H35 A7T d   1     -11.950 -14.871  -6.750  0.00  0.00     0.078 H 
ATOM     38  H36 A7T d   1     -13.690 -14.921  -7.198  0.00  0.00     0.078 H 
BRANCH  36  39
ATOM     39  O5  A7T d   1     -12.471 -13.818  -8.451  0.00  0.00    -0.346 OA
BRANCH  39  40
ATOM     40  C3  A7T d   1     -12.010 -12.634  -7.950  0.00  0.00     0.112 A 
ATOM     41  C6  A7T d   1     -10.568 -12.299  -7.970  0.00  0.00     0.069 A 
ATOM     42 CL9  A7T d   1      -9.357 -13.441  -8.652  0.00  0.00    -0.081 Cl
ATOM     43  C10 A7T d   1     -10.167 -11.075  -7.438  0.00  0.00    -0.053 A 
ATOM     44  C7  A7T d   1     -11.084 -10.168  -6.903  0.00  0.00    -0.059 A 
ATOM     45  H37 A7T d   1      -9.114 -10.820  -7.439  0.00  0.00     0.087 H 
ATOM     46  C4  A7T d   1     -12.438 -10.444  -6.873  0.00  0.00    -0.053 A 
ATOM     47  C2  A7T d   1     -12.941 -11.633  -7.369  0.00  0.00     0.069 A 
ATOM     48  H41 A7T d   1     -13.120  -9.714  -6.452  0.00  0.00     0.087 H 
ATOM     49 CL1  A7T d   1     -14.714 -11.917  -7.308  0.00  0.00    -0.081 Cl
BRANCH  44  50
ATOM     50  C11 A7T d   1     -10.618  -8.848  -6.340  0.00  0.00    -0.051 C 
ATOM     51  H38 A7T d   1     -11.485  -8.281  -5.970  0.00  0.00     0.033 H 
ATOM     52  H39 A7T d   1     -10.112  -8.271  -7.128  0.00  0.00     0.033 H 
ATOM     53  H40 A7T d   1      -9.918  -9.030  -5.511  0.00  0.00     0.033 H 
ENDBRANCH  44  50
ENDBRANCH  39  40
ENDBRANCH  36  39
ENDBRANCH  33  36
ENDBRANCH  32  33
ENDBRANCH  26  32
ENDBRANCH   9  22
BRANCH   1  54
ATOM     54  C23 A7T d   1      -5.592 -16.548 -10.663  0.00  0.00     0.253 C 
ATOM     55  O26 A7T d   1      -4.656 -16.767  -9.891  0.00  0.00    -0.268 OA
ATOM     56  N27 A7T d   1      -6.248 -15.374 -10.573  0.00  0.00    -0.339 N 
BRANCH  56  57
ATOM     57  C32 A7T d   1      -5.941 -14.404  -9.521  0.00  0.00     0.023 C 
ATOM     58  H1  A7T d   1      -5.822 -14.983  -8.593  0.00  0.00     0.071 H 
ATOM     59  H2  A7T d   1      -6.823 -13.752  -9.436  0.00  0.00     0.071 H 
BRANCH  57  60
ATOM     60  C36 A7T d   1      -4.748 -13.489  -9.602  0.00  0.00    -0.034 A 
ATOM     61  C38 A7T d   1      -3.865 -13.499 -10.679  0.00  0.00    -0.075 A 
ATOM     62  C41 A7T d   1      -2.796 -12.595 -10.675  0.00  0.00    -0.082 A 
ATOM     63  H3  A7T d   1      -4.002 -14.191 -11.502  0.00  0.00     0.084 H 
ATOM     64  C42 A7T d   1      -2.624 -11.706  -9.613  0.00  0.00    -0.077 A 
ATOM     65  H4  A7T d   1      -2.096 -12.585 -11.503  0.00  0.00     0.083 H 
ATOM     66  C39 A7T d   1      -3.525 -11.684  -8.547  0.00  0.00    -0.056 A 
ATOM     67  H5  A7T d   1      -1.781 -11.025  -9.616  0.00  0.00     0.084 H 
ATOM     68  C37 A7T d   1      -4.581 -12.578  -8.548  0.00  0.00    -0.048 A 
BRANCH  66  69
ATOM     69  C43 A7T d   1      -3.350 -10.713  -7.394  0.00  0.00    -0.051 C 
ATOM     70  H6  A7T d   1      -2.462 -10.089  -7.572  0.00  0.00     0.033 H 
ATOM     71  H7  A7T d   1      -3.221 -11.275  -6.457  0.00  0.00     0.033 H 
ATOM     72  H8  A7T d   1      -4.240 -10.071  -7.317  0.00  0.00     0.033 H 
ENDBRANCH  66  69
BRANCH  68  73
ATOM     73  C40 A7T d   1      -5.546 -12.566  -7.391  0.00  0.00    -0.050 C 
ATOM     74  H9  A7T d   1      -6.318 -13.333  -7.550  0.00  0.00     0.033 H 
ATOM     75  H10 A7T d   1      -6.021 -11.576  -7.320  0.00  0.00     0.033 H 
ATOM     76  H11 A7T d   1      -5.003 -12.780  -6.458  0.00  0.00     0.033 H 
ENDBRANCH  68  73
ENDBRANCH  57  60
ENDBRANCH  56  57
BRANCH  56  77
ATOM     77  C31 A7T d   1      -7.426 -14.930 -11.352  0.00  0.00     0.015 A 
ATOM     78  C35 A7T d   1      -7.182 -15.056 -12.849  0.00  0.00    -0.044 A 
ATOM     79  C34 A7T d   1      -6.997 -13.707 -12.165  0.00  0.00    -0.044 A 
ATOM     80  H13 A7T d   1      -8.030 -15.214 -13.532  0.00  0.00     0.036 H 
ATOM     81  H14 A7T d   1      -6.306 -15.609 -13.218  0.00  0.00     0.036 H 
ATOM     82  H15 A7T d   1      -5.988 -13.288 -12.038  0.00  0.00     0.036 H 
ATOM     83  H16 A7T d   1      -7.712 -12.892 -12.352  0.00  0.00     0.036 H 
ATOM     84  H12 A7T d   1      -8.403 -15.071 -10.867  0.00  0.00     0.072 H 
ENDBRANCH  56  77
ENDBRANCH   1  54
TORSDOF 13
