REMARK  9 active torsions:
REMARK  status: ('A' for Active; 'I' for Inactive)
REMARK    1  A    between atoms: C32_8  and  C29_9 
REMARK    2  A    between atoms: C29_9  and  N26_10 
REMARK    3  A    between atoms: N26_10  and  C28_11 
REMARK       I    between atoms: N26_10  and  C22_14 
REMARK    4  A    between atoms: C22_14  and  C20_16 
REMARK    5  A    between atoms: C19_24  and  C18_25 
REMARK    6  A    between atoms: C13_30  and  C12_31 
REMARK    7  A    between atoms: C10_32  and  C8_33 
REMARK    8  A    between atoms: C8_33  and  O5_34 
REMARK    9  A    between atoms: O5_34  and  C3_35 
ROOT
ATOM      1  C20 A5T d   1       6.389   5.264   3.907  0.00  0.00     0.049 C 
ATOM      2  C23 A5T d   1       6.896   5.282   5.331  0.00  0.00     0.156 C 
ATOM      3  N27 A5T d   1       8.053   6.167   5.480  0.00  0.00    -0.059 N 
ATOM      4  C24 A5T d   1       9.141   5.747   4.625  0.00  0.00     0.129 C 
ATOM      5  C21 A5T d   1       8.722   5.890   3.152  0.00  0.00    -0.011 C 
ATOM      6  C   A5T d   1       7.275   3.868   5.781  0.00  0.00     0.112 C 
ATOM      7  NB  A5T d   1       8.387   3.388   4.960  0.00  0.00    -0.071 N 
ATOM      8  CA  A5T d   1       9.538   4.301   4.980  0.00  0.00     0.108 C 
ATOM      9  C19 A5T d   1       7.250   5.537   2.878  0.00  0.00    -0.032 C 
ATOM     10  H11 A5T d   1       6.088   5.653   5.979  0.00  0.00     0.095 H 
ATOM     11  H12 A5T d   1       8.361   6.147   6.439  0.00  0.00     0.278 HD
ATOM     12  H13 A5T d   1       7.783   7.106   5.233  0.00  0.00     0.278 HD
ATOM     13  H14 A5T d   1      10.008   6.399   4.804  0.00  0.00     0.087 H 
ATOM     14  H15 A5T d   1       9.355   5.224   2.547  0.00  0.00     0.043 H 
ATOM     15  H16 A5T d   1       8.889   6.933   2.845  0.00  0.00     0.043 H 
ATOM     16  H17 A5T d   1       6.411   3.198   5.659  0.00  0.00     0.079 H 
ATOM     17  H18 A5T d   1       7.578   3.886   6.838  0.00  0.00     0.079 H 
ATOM     18  H19 A5T d   1       8.068   3.291   4.009  0.00  0.00     0.277 HD
ATOM     19  H20 A5T d   1       8.682   2.489   5.309  0.00  0.00     0.277 HD
ATOM     20  H21 A5T d   1       9.979   4.292   5.987  0.00  0.00     0.078 H 
ATOM     21  H22 A5T d   1      10.282   3.949   4.250  0.00  0.00     0.078 H 
ENDROOT
BRANCH   9  22
ATOM     22  C18 A5T d   1       6.872   5.541   1.405  0.00  0.00    -0.029 A 
ATOM     23  C16 A5T d   1       6.047   4.567   0.831  0.00  0.00    -0.072 A 
ATOM     24  C14 A5T d   1       5.735   4.615  -0.528  0.00  0.00    -0.072 A 
ATOM     25  H23 A5T d   1       5.647   3.769   1.447  0.00  0.00     0.084 H 
ATOM     26  C13 A5T d   1       6.278   5.618  -1.338  0.00  0.00    -0.036 A 
ATOM     27  H24 A5T d   1       5.071   3.874  -0.957  0.00  0.00     0.084 H 
ATOM     28  C15 A5T d   1       7.107   6.590  -0.781  0.00  0.00    -0.072 A 
ATOM     29  C17 A5T d   1       7.392   6.544   0.578  0.00  0.00    -0.072 A 
ATOM     30  H26 A5T d   1       7.525   7.374  -1.402  0.00  0.00     0.084 H 
ATOM     31  H25 A5T d   1       8.033   7.304   1.009  0.00  0.00     0.084 H 
BRANCH  26  32
ATOM     32  C12 A5T d   1       5.951   5.669  -2.784  0.00  0.00    -0.075 C 
ATOM     33  C10 A5T d   1       4.738   6.067  -3.199  0.00  0.00    -0.079 C 
ATOM     34  H28 A5T d   1       4.377   5.731  -4.170  0.00  0.00     0.080 H 
ATOM     35  H27 A5T d   1       6.703   5.380  -3.517  0.00  0.00     0.084 H 
BRANCH  33  36
ATOM     36  C8  A5T d   1       3.859   6.963  -2.365  0.00  0.00     0.041 C 
ATOM     37  H29 A5T d   1       4.478   7.434  -1.587  0.00  0.00     0.081 H 
ATOM     38  H30 A5T d   1       3.081   6.347  -1.891  0.00  0.00     0.081 H 
BRANCH  36  39
ATOM     39  O5  A5T d   1       3.218   8.001  -3.132  0.00  0.00    -0.343 OA
BRANCH  39  40
ATOM     40  C3  A5T d   1       1.861   8.041  -2.818  0.00  0.00     0.132 A 
ATOM     41  C6  A5T d   1       1.330   7.887  -1.534  0.00  0.00     0.151 A 
ATOM     42  F1  A5T d   1       2.124   7.674  -0.484  0.00  0.00    -0.203 F 
ATOM     43  C9  A5T d   1      -0.042   7.925  -1.296  0.00  0.00    -0.040 A 
ATOM     44  C7  A5T d   1      -0.917   8.146  -2.341  0.00  0.00    -0.041 A 
ATOM     45  H32 A5T d   1      -0.422   7.781  -0.291  0.00  0.00     0.088 H 
ATOM     46  C4  A5T d   1      -0.399   8.300  -3.614  0.00  0.00     0.141 A 
ATOM     47  H31 A5T d   1      -1.986   8.198  -2.167  0.00  0.00     0.088 H 
ATOM     48  C2  A5T d   1       0.977   8.253  -3.847  0.00  0.00     0.108 A 
ATOM     49  F2  A5T d   1      -1.269   8.513  -4.611  0.00  0.00    -0.204 F 
ATOM     50 CL11 A5T d   1       1.712   8.462  -5.475  0.00  0.00    -0.078 Cl
ENDBRANCH  39  40
ENDBRANCH  36  39
ENDBRANCH  33  36
ENDBRANCH  26  32
ENDBRANCH   9  22
BRANCH   1  51
ATOM     51  C22 A5T d   1       4.968   4.877   3.699  0.00  0.00     0.253 C 
ATOM     52  N26 A5T d   1       4.051   5.696   3.127  0.00  0.00    -0.339 N 
ATOM     53  O25 A5T d   1       4.641   3.732   4.083  0.00  0.00    -0.268 OA
BRANCH  52  54
ATOM     54  C29 A5T d   1       2.691   5.233   2.878  0.00  0.00     0.024 C 
ATOM     55  H4  A5T d   1       2.332   5.747   1.974  0.00  0.00     0.071 H 
ATOM     56  H5  A5T d   1       2.745   4.151   2.687  0.00  0.00     0.071 H 
BRANCH  54  57
ATOM     57  C32 A5T d   1       1.655   5.445   3.953  0.00  0.00    -0.017 A 
ATOM     58  C33 A5T d   1       0.319   5.444   3.560  0.00  0.00     0.063 A 
ATOM     59  C36 A5T d   1      -0.684   5.620   4.497  0.00  0.00     0.056 A 
ATOM     60 CLR3 A5T d   1      -0.115   5.191   1.844  0.00  0.00    -0.082 Cl
ATOM     61 CLA  A5T d   1      -2.389   5.606   3.948  0.00  0.00    -0.083 Cl
ATOM     62  C38 A5T d   1      -0.354   5.828   5.840  0.00  0.00    -0.060 A 
ATOM     63  C37 A5T d   1       0.981   5.831   6.245  0.00  0.00    -0.081 A 
ATOM     64  H1  A5T d   1      -1.139   5.988   6.570  0.00  0.00     0.086 H 
ATOM     65  C34 A5T d   1       1.983   5.633   5.291  0.00  0.00    -0.073 A 
ATOM     66  H2  A5T d   1       1.238   5.985   7.287  0.00  0.00     0.083 H 
ATOM     67  H3  A5T d   1       3.023   5.626   5.596  0.00  0.00     0.084 H 
ENDBRANCH  54  57
ENDBRANCH  52  54
BRANCH  52  68
ATOM     68  C28 A5T d   1       4.269   7.063   2.597  0.00  0.00     0.015 A 
ATOM     69  C31 A5T d   1       3.404   8.069   3.363  0.00  0.00    -0.044 A 
ATOM     70  C30 A5T d   1       4.881   7.954   3.674  0.00  0.00    -0.044 A 
ATOM     71  H7  A5T d   1       2.660   7.712   4.090  0.00  0.00     0.036 H 
ATOM     72  H8  A5T d   1       3.018   8.963   2.852  0.00  0.00     0.036 H 
ATOM     73  H9  A5T d   1       5.566   8.766   3.390  0.00  0.00     0.036 H 
ATOM     74  H10 A5T d   1       5.208   7.515   4.628  0.00  0.00     0.036 H 
ATOM     75  H6  A5T d   1       4.503   7.122   1.524  0.00  0.00     0.072 H 
ENDBRANCH  52  68
ENDBRANCH   1  51
TORSDOF 9
