REMARK  10 active torsions:
REMARK  status: ('A' for Active; 'I' for Inactive)
REMARK    1  A    between atoms: C29_10  and  C32_9 
REMARK    2  A    between atoms: N26_11  and  C29_10 
REMARK    3  A    between atoms: N26_11  and  C28_12 
REMARK       I    between atoms: C22_15  and  N26_11 
REMARK    4  A    between atoms: C20_17  and  C22_15 
REMARK    5  A    between atoms: C19_24  and  C18_25 
REMARK    6  A    between atoms: C13_30  and  C12_31 
REMARK    7  A    between atoms: C12_31  and  C10_32 
REMARK    8  A    between atoms: C10_32  and  C8_33 
REMARK    9  A    between atoms: C8_33  and  O5_34 
REMARK   10  A    between atoms: O5_34  and  C3_35 
ROOT
ATOM      1  C   A6T d   1       7.187   5.319   6.165  0.00  0.00     0.112 C 
ATOM      2  C20 A6T d   1       6.359   4.519   3.864  0.00  0.00     0.049 C 
ATOM      3  C23 A6T d   1       6.861   4.142   5.234  0.00  0.00     0.156 C 
ATOM      4  N27 A6T d   1       8.050   3.315   4.984  0.00  0.00    -0.059 N 
ATOM      5  C24 A6T d   1       9.145   4.080   4.384  0.00  0.00     0.129 C 
ATOM      6  C21 A6T d   1       8.739   4.721   3.055  0.00  0.00    -0.011 C 
ATOM      7  NB  A6T d   1       8.430   6.014   5.782  0.00  0.00    -0.071 N 
ATOM      8  CA  A6T d   1       9.537   5.181   5.358  0.00  0.00     0.108 C 
ATOM      9  C19 A6T d   1       7.220   4.756   2.853  0.00  0.00    -0.032 C 
ATOM     10  H1  A6T d   1       7.298   4.937   7.191  0.00  0.00     0.079 H 
ATOM     11  H2  A6T d   1       6.355   6.038   6.129  0.00  0.00     0.079 H 
ATOM     12  H13 A6T d   1       6.092   3.534   5.733  0.00  0.00     0.095 H 
ATOM     13  H14 A6T d   1       7.798   2.566   4.359  0.00  0.00     0.278 HD
ATOM     14  H15 A6T d   1       8.366   2.929   5.860  0.00  0.00     0.278 HD
ATOM     15  H16 A6T d   1      10.001   3.411   4.212  0.00  0.00     0.087 H 
ATOM     16  H17 A6T d   1       9.190   4.144   2.234  0.00  0.00     0.043 H 
ATOM     17  H18 A6T d   1       9.121   5.752   3.031  0.00  0.00     0.043 H 
ATOM     18  H19 A6T d   1       8.738   6.550   6.578  0.00  0.00     0.277 HD
ATOM     19  H20 A6T d   1       8.209   6.638   5.022  0.00  0.00     0.277 HD
ATOM     20  H21 A6T d   1      10.286   5.823   4.871  0.00  0.00     0.078 H 
ATOM     21  H22 A6T d   1       9.979   4.713   6.250  0.00  0.00     0.078 H 
ENDROOT
BRANCH   9  22
ATOM     22  C18 A6T d   1       6.853   5.052   1.430  0.00  0.00    -0.029 A 
ATOM     23  C16 A6T d   1       6.008   4.172   0.756  0.00  0.00    -0.072 A 
ATOM     24  C14 A6T d   1       5.689   4.366  -0.579  0.00  0.00    -0.076 A 
ATOM     25  H23 A6T d   1       5.593   3.321   1.285  0.00  0.00     0.084 H 
ATOM     26  C13 A6T d   1       6.260   5.438  -1.276  0.00  0.00    -0.058 A 
ATOM     27  H24 A6T d   1       5.003   3.693  -1.080  0.00  0.00     0.084 H 
ATOM     28  C15 A6T d   1       7.117   6.342  -0.611  0.00  0.00    -0.076 A 
ATOM     29  C17 A6T d   1       7.433   6.139   0.738  0.00  0.00    -0.072 A 
ATOM     30  H26 A6T d   1       7.529   7.191  -1.144  0.00  0.00     0.084 H 
ATOM     31  H25 A6T d   1       8.116   6.809   1.247  0.00  0.00     0.084 H 
BRANCH  26  32
ATOM     32  C12 A6T d   1       5.911   5.608  -2.710  0.00  0.00    -0.039 C 
ATOM     33  H27 A6T d   1       5.307   4.736  -3.001  0.00  0.00     0.040 H 
ATOM     34  H28 A6T d   1       6.855   5.605  -3.275  0.00  0.00     0.040 H 
BRANCH  32  35
ATOM     35  C10 A6T d   1       5.237   6.692  -3.080  0.00  0.00    -0.041 C 
ATOM     36  H29 A6T d   1       5.340   6.810  -4.169  0.00  0.00     0.036 H 
ATOM     37  H30 A6T d   1       5.676   7.564  -2.574  0.00  0.00     0.036 H 
BRANCH  35  38
ATOM     38  C8  A6T d   1       3.778   6.637  -2.746  0.00  0.00     0.026 C 
ATOM     39  H31 A6T d   1       3.651   6.465  -1.667  0.00  0.00     0.075 H 
ATOM     40  H32 A6T d   1       3.300   5.820  -3.306  0.00  0.00     0.075 H 
BRANCH  38  41
ATOM     41  O5  A6T d   1       3.184   7.877  -3.107  0.00  0.00    -0.346 OA
BRANCH  41  42
ATOM     42  C3  A6T d   1       1.841   7.844  -2.807  0.00  0.00     0.132 A 
ATOM     43  C6  A6T d   1       1.363   7.655  -1.514  0.00  0.00     0.151 A 
ATOM     44  F1  A6T d   1       2.212   7.462  -0.491  0.00  0.00    -0.203 F 
ATOM     45  C9  A6T d   1       0.002   7.648  -1.260  0.00  0.00    -0.040 A 
ATOM     46  C7  A6T d   1      -0.893   7.821  -2.290  0.00  0.00    -0.041 A 
ATOM     47  H34 A6T d   1      -0.359   7.506  -0.248  0.00  0.00     0.088 H 
ATOM     48  C4  A6T d   1      -0.408   8.015  -3.569  0.00  0.00     0.141 A 
ATOM     49  H33 A6T d   1      -1.960   7.805  -2.102  0.00  0.00     0.088 H 
ATOM     50  C2  A6T d   1       0.955   8.044  -3.835  0.00  0.00     0.108 A 
ATOM     51  F2  A6T d   1      -1.303   8.206  -4.542  0.00  0.00    -0.204 F 
ATOM     52 CL11 A6T d   1       1.667   8.327  -5.469  0.00  0.00    -0.078 Cl
ENDBRANCH  41  42
ENDBRANCH  38  41
ENDBRANCH  35  38
ENDBRANCH  32  35
ENDBRANCH  26  32
ENDBRANCH   9  22
BRANCH   2  53
ATOM     53  C22 A6T d   1       4.927   4.476   3.602  0.00  0.00     0.253 C 
ATOM     54  N26 A6T d   1       4.194   5.494   3.097  0.00  0.00    -0.339 N 
ATOM     55  O25 A6T d   1       4.404   3.387   3.866  0.00  0.00    -0.268 OA
BRANCH  54  56
ATOM     56  C29 A6T d   1       2.788   5.234   2.795  0.00  0.00     0.024 C 
ATOM     57  H6  A6T d   1       2.498   5.940   2.003  0.00  0.00     0.071 H 
ATOM     58  H7  A6T d   1       2.732   4.206   2.408  0.00  0.00     0.071 H 
BRANCH  56  59
ATOM     59  C32 A6T d   1       1.738   5.349   3.892  0.00  0.00    -0.017 A 
ATOM     60  C33 A6T d   1       0.424   5.250   3.504  0.00  0.00     0.063 A 
ATOM     61  C36 A6T d   1      -0.576   5.319   4.424  0.00  0.00     0.056 A 
ATOM     62 CLR3 A6T d   1       0.058   4.952   1.781  0.00  0.00    -0.082 Cl
ATOM     63 CLA  A6T d   1      -2.245   5.166   3.845  0.00  0.00    -0.083 Cl
ATOM     64  C38 A6T d   1      -0.313   5.537   5.770  0.00  0.00    -0.060 A 
ATOM     65  C37 A6T d   1       1.002   5.651   6.171  0.00  0.00    -0.081 A 
ATOM     66  H3  A6T d   1      -1.121   5.616   6.488  0.00  0.00     0.086 H 
ATOM     67  C34 A6T d   1       2.024   5.568   5.226  0.00  0.00    -0.073 A 
ATOM     68  H4  A6T d   1       1.240   5.805   7.217  0.00  0.00     0.083 H 
ATOM     69  H5  A6T d   1       3.055   5.677   5.542  0.00  0.00     0.084 H 
ENDBRANCH  56  59
ENDBRANCH  54  56
BRANCH  54  70
ATOM     70  C28 A6T d   1       4.697   6.842   2.658  0.00  0.00     0.015 A 
ATOM     71  C31 A6T d   1       3.872   7.959   3.288  0.00  0.00    -0.044 A 
ATOM     72  C30 A6T d   1       5.281   7.745   3.778  0.00  0.00    -0.044 A 
ATOM     73  H9  A6T d   1       3.023   7.708   3.941  0.00  0.00     0.036 H 
ATOM     74  H10 A6T d   1       3.629   8.856   2.700  0.00  0.00     0.036 H 
ATOM     75  H11 A6T d   1       6.064   8.480   3.541  0.00  0.00     0.036 H 
ATOM     76  H12 A6T d   1       5.458   7.332   4.782  0.00  0.00     0.036 H 
ATOM     77  H8  A6T d   1       5.076   6.855   1.625  0.00  0.00     0.072 H 
ENDBRANCH  54  70
ENDBRANCH   2  53
TORSDOF 10
