REMARK  14 active torsions:
REMARK  status: ('A' for Active; 'I' for Inactive)
REMARK    1  A    between atoms: CCA_6  and  SBU_7 
REMARK    2  A    between atoms: SBU_7  and  CCC_8 
REMARK    3  A    between atoms: NCO_12  and  CBG_13 
REMARK    4  A    between atoms: CBG_13  and  CCI_14 
REMARK       I    between atoms: NCM_18  and  CBY_19 
REMARK    5  A    between atoms: CBY_19  and  CCK_21 
REMARK    6  A    between atoms: CCK_21  and  NBO_22 
REMARK    7  A    between atoms: CCK_21  and  CCG_29 
REMARK       I    between atoms: NBO_22  and  C_23 
REMARK    8  A    between atoms: C_23  and  CA_25 
REMARK    9  A    between atoms: CA_25  and  CB_26 
REMARK   10  A    between atoms: CA_25  and  N_27 
REMARK   11  A    between atoms: N_27  and  CAA_28 
REMARK   12  A    between atoms: CCG_29  and  CAE_30 
REMARK   13  A    between atoms: CCG_29  and  OBS_31 
REMARK   14  A    between atoms: OBS_31  and  CAY_32 
ROOT
ATOM      1  CCI CZ3 d   1      20.137  28.412  11.471  0.00  0.00     0.032 C 
ATOM      2  CBC CZ3 d   1      20.293  29.363  12.666  0.00  0.00    -0.043 C 
ATOM      3  CBA CZ3 d   1      20.268  28.441  13.874  0.00  0.00    -0.048 C 
ATOM      4  CBE CZ3 d   1      21.034  27.217  13.387  0.00  0.00    -0.002 C 
ATOM      5  NCM CZ3 d   1      20.675  27.138  11.962  0.00  0.00    -0.344 N 
ATOM      6  CBY CZ3 d   1      20.823  26.042  11.221  0.00  0.00     0.245 C 
ATOM      7  OAI CZ3 d   1      20.493  26.031  10.035  0.00  0.00    -0.271 OA
ATOM      8  H8  CZ3 d   1      19.088  28.319  11.155  0.00  0.00     0.075 H 
ATOM      9  H9  CZ3 d   1      19.461  30.082  12.705  0.00  0.00     0.036 H 
ATOM     10  H10 CZ3 d   1      21.247  29.909  12.610  0.00  0.00     0.036 H 
ATOM     11  H11 CZ3 d   1      19.236  28.178  14.149  0.00  0.00     0.035 H 
ATOM     12  H12 CZ3 d   1      20.770  28.905  14.736  0.00  0.00     0.035 H 
ATOM     13  H13 CZ3 d   1      20.714  26.312  13.925  0.00  0.00     0.064 H 
ATOM     14  H14 CZ3 d   1      22.118  27.355  13.513  0.00  0.00     0.064 H 
ENDROOT
BRANCH   1  15
ATOM     15  CBG CZ3 d   1      21.017  28.920  10.312  0.00  0.00     0.040 C 
ATOM     16  H6  CZ3 d   1      22.004  29.201  10.709  0.00  0.00     0.070 H 
ATOM     17  H7  CZ3 d   1      21.135  28.114   9.573  0.00  0.00     0.070 H 
BRANCH  15  18
ATOM     18  NCO CZ3 d   1      20.416  30.092   9.650  0.00  0.00    -0.223 N 
ATOM     19  CCC CZ3 d   1      20.257  30.210   8.363  0.00  0.00     0.214 A 
ATOM     20  NBK CZ3 d   1      19.676  31.386   8.156  0.00  0.00    -0.101 NA
ATOM     21  NBI CZ3 d   1      19.531  31.881   9.280  0.00  0.00    -0.022 NA
ATOM     22  NBM CZ3 d   1      19.967  31.122  10.163  0.00  0.00    -0.043 NA
BRANCH  19  23
ATOM     23  SBU CZ3 d   1      20.721  29.023   7.198  0.00  0.00    -0.049 SA
BRANCH  23  24
ATOM     24  CCA CZ3 d   1      20.049  29.820   5.794  0.00  0.00     0.008 A 
ATOM     25  CAU CZ3 d   1      18.787  29.451   5.318  0.00  0.00    -0.066 A 
ATOM     26  CAQ CZ3 d   1      18.251  30.121   4.165  0.00  0.00    -0.082 A 
ATOM     27  H1  CZ3 d   1      18.221  28.670   5.812  0.00  0.00     0.085 H 
ATOM     28  CAO CZ3 d   1      19.003  31.132   3.554  0.00  0.00    -0.083 A 
ATOM     29  H2  CZ3 d   1      17.278  29.847   3.774  0.00  0.00     0.083 H 
ATOM     30  CAR CZ3 d   1      20.261  31.490   4.049  0.00  0.00    -0.082 A 
ATOM     31  H3  CZ3 d   1      18.605  31.644   2.686  0.00  0.00     0.083 H 
ATOM     32  CAV CZ3 d   1      20.777  30.838   5.169  0.00  0.00    -0.066 A 
ATOM     33  H4  CZ3 d   1      20.834  32.272   3.564  0.00  0.00     0.083 H 
ATOM     34  H5  CZ3 d   1      21.748  31.122   5.558  0.00  0.00     0.085 H 
ENDBRANCH  23  24
ENDBRANCH  19  23
ENDBRANCH  15  18
ENDBRANCH   1  15
BRANCH   6  35
ATOM     35  CCK CZ3 d   1      21.419  24.790  11.829  0.00  0.00     0.114 C 
ATOM     36  H15 CZ3 d   1      21.256  24.769  12.917  0.00  0.00     0.091 H 
BRANCH  35  37
ATOM     37  NBO CZ3 d   1      20.698  23.661  11.207  0.00  0.00    -0.344 N 
ATOM     38  C   CZ3 d   1      19.962  22.827  11.944  0.00  0.00     0.248 C 
ATOM     39  O   CZ3 d   1      19.848  22.907  13.169  0.00  0.00    -0.271 OA
ATOM     40  H16 CZ3 d   1      20.762  23.520  10.219  0.00  0.00     0.163 HD
BRANCH  38  41
ATOM     41  CA  CZ3 d   1      19.254  21.711  11.178  0.00  0.00     0.174 C 
ATOM     42  H17 CZ3 d   1      19.860  21.410  10.311  0.00  0.00     0.098 H 
BRANCH  41  43
ATOM     43  CB  CZ3 d   1      17.901  22.230  10.712  0.00  0.00    -0.041 C 
ATOM     44  H18 CZ3 d   1      17.376  21.438  10.157  0.00  0.00     0.030 H 
ATOM     45  H19 CZ3 d   1      18.048  23.101  10.056  0.00  0.00     0.030 H 
ATOM     46  H20 CZ3 d   1      17.301  22.526  11.585  0.00  0.00     0.030 H 
ENDBRANCH  41  43
BRANCH  41  47
ATOM     47  N   CZ3 d   1      19.046  20.557  12.063  0.00  0.00    -0.067 N 
ATOM     48  H21 CZ3 d   1      18.599  19.821  11.540  0.00  0.00     0.277 HD
ATOM     49  H22 CZ3 d   1      18.451  20.835  12.828  0.00  0.00     0.277 HD
BRANCH  47  50
ATOM     50  CAA CZ3 d   1      20.322  20.049  12.609  0.00  0.00     0.066 C 
ATOM     51  H23 CZ3 d   1      20.123  19.188  13.264  0.00  0.00     0.067 H 
ATOM     52  H24 CZ3 d   1      20.816  20.844  13.187  0.00  0.00     0.067 H 
ATOM     53  H25 CZ3 d   1      20.977  19.737  11.782  0.00  0.00     0.067 H 
ENDBRANCH  47  50
ENDBRANCH  41  47
ENDBRANCH  38  41
ENDBRANCH  35  37
BRANCH  35  54
ATOM     54  CCG CZ3 d   1      22.950  24.823  11.550  0.00  0.00     0.062 C 
ATOM     55  H26 CZ3 d   1      23.385  25.584  12.214  0.00  0.00     0.086 H 
BRANCH  54  56
ATOM     56  CAE CZ3 d   1      23.623  23.484  11.896  0.00  0.00    -0.050 C 
ATOM     57  H27 CZ3 d   1      24.701  23.550  11.685  0.00  0.00     0.031 H 
ATOM     58  H28 CZ3 d   1      23.179  22.682  11.288  0.00  0.00     0.031 H 
ATOM     59  H29 CZ3 d   1      23.471  23.262  12.963  0.00  0.00     0.031 H 
ENDBRANCH  54  56
BRANCH  54  60
ATOM     60  OBS CZ3 d   1      23.235  25.241  10.162  0.00  0.00    -0.389 OA
BRANCH  60  61
ATOM     61  CAY CZ3 d   1      24.466  26.026   9.992  0.00  0.00     0.005 C 
ATOM     62  H30 CZ3 d   1      24.590  26.288   8.931  0.00  0.00     0.066 H 
ATOM     63  H31 CZ3 d   1      25.329  25.432  10.326  0.00  0.00     0.066 H 
ATOM     64  H32 CZ3 d   1      24.400  26.946  10.591  0.00  0.00     0.066 H 
ENDBRANCH  60  61
ENDBRANCH  54  60
ENDBRANCH  35  54
ENDBRANCH   6  35
TORSDOF 14
