REMARK WARNING: 32 MAX_TORS EXCEEDED!!!
REMARK  40 active torsions:
REMARK  status: ('A' for Active; 'I' for Inactive)
REMARK    1  A    between atoms: N_1  and  CA_2 
REMARK    2  A    between atoms: CA_2  and  C_3 
REMARK    3  A    between atoms: CA_2  and  CB_5 
REMARK       I    between atoms: C_3  and  N_10 
REMARK    4  A    between atoms: CB_5  and  CG_6 
REMARK    5  A    between atoms: CG_6  and  CD_7 
REMARK    6  A    between atoms: CD_7  and  CE_8 
REMARK    7  A    between atoms: CE_8  and  NZ_9 
REMARK    8  A    between atoms: N_10  and  CA_11 
REMARK    9  A    between atoms: CA_11  and  C_12 
REMARK   10  A    between atoms: CA_11  and  CB_14 
REMARK       I    between atoms: C_12  and  N_19 
REMARK   11  A    between atoms: CB_14  and  CG_15 
REMARK   12  A    between atoms: CG_15  and  CD_16 
REMARK       I    between atoms: CD_16  and  NE2_18 
REMARK   13  A    between atoms: N_19  and  CA_20 
REMARK   14  A    between atoms: CA_20  and  C_21 
REMARK   15  A    between atoms: CA_20  and  CB_23 
REMARK       I    between atoms: C_21  and  N_26 
REMARK   16  A    between atoms: CB_23  and  OG1_24 
REMARK   17  A    between atoms: CB_23  and  CG2_25 
REMARK   18  A    between atoms: N_26  and  CA_27 
REMARK   19  A    between atoms: CA_27  and  C_28 
REMARK   20  A    between atoms: CA_27  and  CB_30 
REMARK       I    between atoms: C_28  and  N_31 
REMARK   21  A    between atoms: N_31  and  CA_32 
REMARK   22  A    between atoms: CA_32  and  C_33 
REMARK   23  A    between atoms: CA_32  and  CB_35 
REMARK       I    between atoms: C_33  and  N_42 
REMARK   24  A    between atoms: CB_35  and  CG_36 
REMARK   25  A    between atoms: CG_36  and  CD_37 
REMARK   26  A    between atoms: CD_37  and  NE_38 
REMARK       I    between atoms: NE_38  and  CZ_39 
REMARK       I    between atoms: CZ_39  and  NH1_40 
REMARK   27  A    between atoms: N_42  and  CA_43 
REMARK   28  A    between atoms: CA_43  and  CB_44 
REMARK   29  A    between atoms: CA_43  and  C_49 
REMARK   30  A    between atoms: CB_44  and  CG_45 
REMARK   31  A    between atoms: CG_45  and  CD_46 
REMARK   32  A    between atoms: CD_46  and  CE_47 
REMARK   33  A    between atoms: CE_47  and  NZ_48 
REMARK   34  A    between atoms: NZ_48  and  CM1_51 
REMARK   35  A    between atoms: NZ_48  and  CM2_52 
REMARK   36  A    between atoms: NZ_48  and  CM3_53 
REMARK       I    between atoms: C_49  and  N_54 
REMARK   37  A    between atoms: N_54  and  CA_55 
REMARK   38  A    between atoms: CA_55  and  C_56 
REMARK   39  A    between atoms: CA_55  and  CB_58 
REMARK   40  A    between atoms: CB_58  and  OG_59 
ROOT
ATOM      1  C   ALA d   1      -3.825 -16.043 -14.920  0.00  0.00     0.240 C 
ATOM      2  O   ALA d   1      -4.633 -15.219 -14.514  0.00  0.00    -0.271 OA
ATOM      3  N   ARG d   1      -4.176 -17.281 -15.247  0.00  0.00    -0.346 N 
ATOM      4  H36 ARG d   1      -3.502 -17.888 -15.669  0.00  0.00     0.163 HD
ENDROOT
BRANCH   3   5
ATOM      5  CA  ARG d   1      -5.528 -17.771 -15.001  0.00  0.00     0.089 C 
ATOM      6  H37 ARG d   1      -6.240 -16.947 -15.155  0.00  0.00     0.087 H 
BRANCH   5   7
ATOM      7  C   ARG d   1      -5.646 -18.261 -13.557  0.00  0.00     0.241 C 
ATOM      8  O   ARG d   1      -4.800 -19.030 -13.070  0.00  0.00    -0.271 OA
ATOM      9  N   M3L d   1      -6.685 -17.803 -12.865  0.00  0.00    -0.346 N 
ATOM     10  H49 M3L d   1      -7.316 -17.163 -13.303  0.00  0.00     0.163 HD
BRANCH   9  11
ATOM     11  CA  M3L d   1      -6.939 -18.220 -11.440  0.00  0.00     0.089 C 
ATOM     12  H50 M3L d   1      -6.024 -18.665 -11.022  0.00  0.00     0.087 H 
BRANCH  11  13
ATOM     13  CB  M3L d   1      -7.360 -17.020 -10.584  0.00  0.00    -0.038 C 
ATOM     14  H51 M3L d   1      -8.130 -16.453 -11.128  0.00  0.00     0.036 H 
ATOM     15  H52 M3L d   1      -6.481 -16.380 -10.419  0.00  0.00     0.036 H 
BRANCH  13  16
ATOM     16  CG  M3L d   1      -7.929 -17.433  -9.218  0.00  0.00    -0.061 C 
ATOM     17  H53 M3L d   1      -7.272 -18.201  -8.784  0.00  0.00     0.033 H 
ATOM     18  H54 M3L d   1      -8.934 -17.853  -9.371  0.00  0.00     0.033 H 
BRANCH  16  19
ATOM     19  CD  M3L d   1      -8.034 -16.265  -8.227  0.00  0.00    -0.042 C 
ATOM     20  H55 M3L d   1      -7.032 -15.843  -8.061  0.00  0.00     0.035 H 
ATOM     21  H56 M3L d   1      -8.437 -16.637  -7.274  0.00  0.00     0.035 H 
BRANCH  19  22
ATOM     22  CE  M3L d   1      -8.956 -15.168  -8.766  0.00  0.00     0.084 C 
ATOM     23  H57 M3L d   1      -9.906 -15.633  -9.068  0.00  0.00     0.076 H 
ATOM     24  H58 M3L d   1      -8.475 -14.713  -9.644  0.00  0.00     0.076 H 
BRANCH  22  25
ATOM     25  NZ  M3L d   1      -9.253 -14.097  -7.793  0.00  0.00    -0.079 N 
BRANCH  25  26
ATOM     26  CM1 M3L d   1     -10.638 -13.672  -8.002  0.00  0.00     0.067 C 
ATOM     27  H59 M3L d   1     -10.888 -12.873  -7.289  0.00  0.00     0.068 H 
ATOM     28  H60 M3L d   1     -11.312 -14.527  -7.845  0.00  0.00     0.068 H 
ATOM     29  H61 M3L d   1     -10.755 -13.297  -9.029  0.00  0.00     0.068 H 
ENDBRANCH  25  26
BRANCH  25  30
ATOM     30  CM2 M3L d   1      -8.413 -12.915  -8.026  0.00  0.00     0.067 C 
ATOM     31  H62 M3L d   1      -7.356 -13.182  -7.881  0.00  0.00     0.068 H 
ATOM     32  H63 M3L d   1      -8.691 -12.122  -7.317  0.00  0.00     0.068 H 
ATOM     33  H64 M3L d   1      -8.562 -12.556  -9.055  0.00  0.00     0.068 H 
ENDBRANCH  25  30
BRANCH  25  34
ATOM     34  CM3 M3L d   1      -9.073 -14.567  -6.406  0.00  0.00     0.067 C 
ATOM     35  H65 M3L d   1      -9.703 -15.452  -6.234  0.00  0.00     0.068 H 
ATOM     36  H66 M3L d   1      -9.364 -13.769  -5.708  0.00  0.00     0.068 H 
ATOM     37  H67 M3L d   1      -8.018 -14.831  -6.242  0.00  0.00     0.068 H 
ENDBRANCH  25  34
ENDBRANCH  22  25
ENDBRANCH  19  22
ENDBRANCH  16  19
ENDBRANCH  13  16
ENDBRANCH  11  13
BRANCH  11  38
ATOM     38  C   M3L d   1      -8.045 -19.222 -11.419  0.00  0.00     0.241 C 
ATOM     39  O   M3L d   1      -9.168 -18.863 -11.729  0.00  0.00    -0.271 OA
ATOM     40  N   SER d   1      -7.741 -20.468 -11.076  0.00  0.00    -0.343 N 
ATOM     41  H68 SER d   1      -6.777 -20.709 -10.960  0.00  0.00     0.163 HD
BRANCH  40  42
ATOM     42  CA  SER d   1      -8.751 -21.505 -10.860  0.00  0.00     0.116 C 
ATOM     43  H69 SER d   1      -9.113 -21.842 -11.842  0.00  0.00     0.093 H 
BRANCH  42  44
ATOM     44  C   SER d   1      -9.960 -21.009 -10.047  0.00  0.00     0.198 C 
ATOM     45  O   SER d   1     -10.775 -21.817  -9.526  0.00  0.00    -0.646 OA
ATOM     46  O70 SER d   1     -10.139 -19.770  -9.899  0.00  0.00    -0.646 OA
ENDBRANCH  42  44
BRANCH  42  47
ATOM     47  CB  SER d   1      -8.104 -22.687 -10.136  0.00  0.00     0.045 C 
ATOM     48  H70 SER d   1      -8.830 -23.511 -10.069  0.00  0.00     0.077 H 
ATOM     49  H71 SER d   1      -7.812 -22.373  -9.123  0.00  0.00     0.077 H 
BRANCH  47  50
ATOM     50  OG  SER d   1      -6.953 -23.137 -10.834  0.00  0.00    -0.398 OA
ATOM     51  H72 SER d   1      -6.322 -22.429 -10.891  0.00  0.00     0.209 HD
ENDBRANCH  47  50
ENDBRANCH  42  47
ENDBRANCH  40  42
ENDBRANCH  11  38
ENDBRANCH   9  11
ENDBRANCH   5   7
BRANCH   5  52
ATOM     52  CB  ARG d   1      -5.862 -18.904 -15.984  0.00  0.00    -0.036 C 
ATOM     53  H38 ARG d   1      -5.053 -19.647 -15.930  0.00  0.00     0.036 H 
ATOM     54  H39 ARG d   1      -5.898 -18.474 -16.996  0.00  0.00     0.036 H 
BRANCH  52  55
ATOM     55  CG  ARG d   1      -7.191 -19.635 -15.735  0.00  0.00    -0.048 C 
ATOM     56  H40 ARG d   1      -8.024 -18.924 -15.832  0.00  0.00     0.035 H 
ATOM     57  H41 ARG d   1      -7.190 -20.063 -14.722  0.00  0.00     0.035 H 
BRANCH  55  58
ATOM     58  CD  ARG d   1      -7.358 -20.765 -16.769  0.00  0.00     0.009 C 
ATOM     59  H42 ARG d   1      -6.496 -21.442 -16.679  0.00  0.00     0.064 H 
ATOM     60  H43 ARG d   1      -7.367 -20.314 -17.772  0.00  0.00     0.064 H 
BRANCH  58  61
ATOM     61  NE  ARG d   1      -8.578 -21.556 -16.614  0.00  0.00    -0.227 N 
ATOM     62  CZ  ARG d   1      -9.811 -21.089 -16.826  0.00  0.00     0.665 C 
ATOM     63  NH1 ARG d   1     -10.860 -21.887 -16.670  0.00  0.00    -0.235 N 
ATOM     64  NH2 ARG d   1     -10.006 -19.822 -17.177  0.00  0.00    -0.235 N 
ATOM     65  H45 ARG d   1     -11.811 -21.526 -16.834  0.00  0.00     0.174 HD
ATOM     66  H46 ARG d   1     -10.723 -22.867 -16.385  0.00  0.00     0.174 HD
ATOM     67  H47 ARG d   1      -9.200 -19.192 -17.301  0.00  0.00     0.174 HD
ATOM     68  H48 ARG d   1     -10.963 -19.470 -17.325  0.00  0.00     0.174 HD
ATOM     69  H44 ARG d   1      -8.480 -22.539 -16.322  0.00  0.00     0.177 HD
ENDBRANCH  58  61
ENDBRANCH  55  58
ENDBRANCH  52  55
ENDBRANCH   5  52
ENDBRANCH   3   5
BRANCH   1  70
ATOM     70  CA  ALA d   1      -2.346 -15.660 -15.082  0.00  0.00     0.086 C 
ATOM     71  H32 ALA d   1      -1.943 -16.134 -15.989  0.00  0.00     0.086 H 
BRANCH  70  72
ATOM     72  N   ALA d   1      -2.257 -14.214 -15.210  0.00  0.00    -0.346 N 
ATOM     73  C   THR d   1      -1.241 -13.619 -15.813  0.00  0.00     0.243 C 
ATOM     74  O   THR d   1      -0.303 -14.237 -16.305  0.00  0.00    -0.271 OA
ATOM     75  H31 ALA d   1      -2.989 -13.650 -14.829  0.00  0.00     0.163 HD
BRANCH  73  76
ATOM     76  CA  THR d   1      -1.301 -12.095 -15.870  0.00  0.00     0.113 C 
ATOM     77  H25 THR d   1      -1.770 -11.725 -14.946  0.00  0.00     0.091 H 
BRANCH  76  78
ATOM     78  N   THR d   1       0.044 -11.528 -15.955  0.00  0.00    -0.344 N 
ATOM     79  C   GLN d   1       0.469 -10.592 -15.113  0.00  0.00     0.241 C 
ATOM     80  O   GLN d   1      -0.205 -10.171 -14.181  0.00  0.00    -0.271 OA
ATOM     81  H24 THR d   1       0.663 -11.855 -16.669  0.00  0.00     0.163 HD
BRANCH  79  82
ATOM     82  CA  GLN d   1       1.851 -10.037 -15.359  0.00  0.00     0.090 C 
ATOM     83  H17 GLN d   1       2.209 -10.384 -16.339  0.00  0.00     0.087 H 
BRANCH  82  84
ATOM     84  N   GLN d   1       1.811  -8.580 -15.349  0.00  0.00    -0.346 N 
ATOM     85  C   LYS d   1       1.904  -7.855 -16.458  0.00  0.00     0.248 C 
ATOM     86  O   LYS d   1       1.872  -8.342 -17.593  0.00  0.00    -0.271 OA
ATOM     87  H16 GLN d   1       1.710  -8.108 -14.473  0.00  0.00     0.163 HD
BRANCH  85  88
ATOM     88  CA  LYS d   1       2.052  -6.351 -16.247  0.00  0.00     0.176 C 
ATOM     89  H4  LYS d   1       1.918  -6.135 -15.177  0.00  0.00     0.099 H 
BRANCH  88  90
ATOM     90  N   LYS d   1       3.388  -5.891 -16.645  0.00  0.00    -0.067 N 
ATOM     91  H1  LYS d   1       3.459  -4.897 -16.496  0.00  0.00     0.275 HD
ATOM     92  H2  LYS d   1       3.537  -6.096 -17.621  0.00  0.00     0.275 HD
ATOM     93  H3  LYS d   1       4.085  -6.364 -16.092  0.00  0.00     0.275 HD
ENDBRANCH  88  90
BRANCH  88  94
ATOM     94  CB  LYS d   1       0.971  -5.610 -17.031  0.00  0.00    -0.030 C 
ATOM     95  H5  LYS d   1       0.898  -6.065 -18.030  0.00  0.00     0.036 H 
ATOM     96  H6  LYS d   1       1.278  -4.558 -17.129  0.00  0.00     0.036 H 
BRANCH  94  97
ATOM     97  CG  LYS d   1      -0.412  -5.645 -16.390  0.00  0.00    -0.061 C 
ATOM     98  H7  LYS d   1      -0.888  -4.662 -16.520  0.00  0.00     0.033 H 
ATOM     99  H8  LYS d   1      -0.300  -5.859 -15.317  0.00  0.00     0.033 H 
BRANCH  97 100
ATOM    100  CD  LYS d   1      -1.302  -6.704 -17.008  0.00  0.00    -0.043 C 
ATOM    101  H9  LYS d   1      -1.054  -7.683 -16.572  0.00  0.00     0.035 H 
ATOM    102  H10 LYS d   1      -1.128  -6.732 -18.094  0.00  0.00     0.035 H 
BRANCH 100 103
ATOM    103  CE  LYS d   1      -2.769  -6.400 -16.746  0.00  0.00     0.080 C 
ATOM    104  H11 LYS d   1      -3.388  -7.060 -17.371  0.00  0.00     0.075 H 
ATOM    105  H12 LYS d   1      -2.969  -5.351 -17.010  0.00  0.00     0.075 H 
BRANCH 103 106
ATOM    106  NZ  LYS d   1      -3.122  -6.614 -15.324  0.00  0.00    -0.079 N 
ATOM    107  H13 LYS d   1      -4.098  -6.404 -15.185  0.00  0.00     0.274 HD
ATOM    108  H14 LYS d   1      -2.562  -6.009 -14.744  0.00  0.00     0.274 HD
ATOM    109  H15 LYS d   1      -2.946  -7.575 -15.075  0.00  0.00     0.274 HD
ENDBRANCH 103 106
ENDBRANCH 100 103
ENDBRANCH  97 100
ENDBRANCH  94  97
ENDBRANCH  88  94
ENDBRANCH  85  88
ENDBRANCH  82  84
BRANCH  82 110
ATOM    110  CB  GLN d   1       2.806 -10.519 -14.275  0.00  0.00    -0.030 C 
ATOM    111  H18 GLN d   1       2.892 -11.613 -14.345  0.00  0.00     0.037 H 
ATOM    112  H19 GLN d   1       2.389 -10.246 -13.294  0.00  0.00     0.037 H 
BRANCH 110 113
ATOM    113  CG  GLN d   1       4.196  -9.915 -14.396  0.00  0.00     0.011 C 
ATOM    114  H20 GLN d   1       4.794 -10.222 -13.525  0.00  0.00     0.047 H 
ATOM    115  H21 GLN d   1       4.107  -8.819 -14.412  0.00  0.00     0.047 H 
BRANCH 113 116
ATOM    116  CD  GLN d   1       4.907 -10.368 -15.664  0.00  0.00     0.215 C 
ATOM    117  OE1 GLN d   1       5.197 -11.551 -15.833  0.00  0.00    -0.274 OA
ATOM    118  NE2 GLN d   1       5.199  -9.428 -16.555  0.00  0.00    -0.370 N 
ATOM    119  H22 GLN d   1       5.666  -9.672 -17.405  0.00  0.00     0.159 HD
ATOM    120  H23 GLN d   1       4.952  -8.476 -16.376  0.00  0.00     0.159 HD
ENDBRANCH 113 116
ENDBRANCH 110 113
ENDBRANCH  82 110
ENDBRANCH  79  82
ENDBRANCH  76  78
BRANCH  76 121
ATOM    121  CB  THR d   1      -2.191 -11.671 -17.079  0.00  0.00     0.060 C 
ATOM    122  H26 THR d   1      -3.209 -12.053 -16.916  0.00  0.00     0.086 H 
BRANCH 121 123
ATOM    123  OG1 THR d   1      -1.672 -12.240 -18.290  0.00  0.00    -0.393 OA
ATOM    124  H27 THR d   1      -1.670 -13.187 -18.218  0.00  0.00     0.210 HD
ENDBRANCH 121 123
BRANCH 121 125
ATOM    125  CG2 THR d   1      -2.256 -10.166 -17.200  0.00  0.00    -0.050 C 
ATOM    126  H28 THR d   1      -2.888  -9.894 -18.058  0.00  0.00     0.031 H 
ATOM    127  H29 THR d   1      -1.242  -9.766 -17.350  0.00  0.00     0.031 H 
ATOM    128  H30 THR d   1      -2.685  -9.742 -16.280  0.00  0.00     0.031 H 
ENDBRANCH 121 125
ENDBRANCH  76 121
ENDBRANCH  73  76
ENDBRANCH  70  72
BRANCH  70 129
ATOM    129  CB  ALA d   1      -1.546 -16.124 -13.886  0.00  0.00    -0.049 C 
ATOM    130  H33 ALA d   1      -1.619 -17.218 -13.798  0.00  0.00     0.030 H 
ATOM    131  H34 ALA d   1      -1.944 -15.655 -12.974  0.00  0.00     0.030 H 
ATOM    132  H35 ALA d   1      -0.492 -15.837 -14.016  0.00  0.00     0.030 H 
ENDBRANCH  70 129
ENDBRANCH   1  70
TORSDOF 40
