REMARK  7 active torsions:
REMARK  status: ('A' for Active; 'I' for Inactive)
REMARK    1  A    between atoms: C2_2  and  N11_11 
REMARK    2  A    between atoms: C26_26  and  C9_9 
REMARK    3  A    between atoms: N11_11  and  S12_12 
REMARK    4  A    between atoms: S12_12  and  C13_13 
REMARK    5  A    between atoms: C30_30  and  N24_24 
REMARK    6  A    between atoms: C27_27  and  O29_29 
REMARK    7  A    between atoms: C32_32  and  C30_30 
ROOT
ATOM      1  C18 T18 d   1     -12.085   7.263  -6.317  0.00  0.00     0.117 A 
ATOM      2  C19 T18 d   1     -11.533   8.455  -5.840  0.00  0.00    -0.043 A 
ATOM      3  C20 T18 d   1     -10.703   9.199  -6.657  0.00  0.00    -0.053 A 
ATOM      4  C21 T18 d   1     -11.808   6.800  -7.577  0.00  0.00    -0.031 A 
ATOM      5  C22 T18 d   1     -10.904   7.504  -8.384  0.00  0.00     0.028 A 
ATOM      6  C23 T18 d   1     -10.372   8.732  -7.939  0.00  0.00     0.051 A 
ATOM      7  N24 T18 d   1      -9.582   9.485  -8.790  0.00  0.00    -0.308 N 
ATOM      8  C25 T18 d   1      -9.489   9.162 -10.119  0.00  0.00     0.263 C 
ATOM      9  C26 T18 d   1     -10.050   7.934 -10.646  0.00  0.00     0.093 C 
ATOM     10  C27 T18 d   1     -10.704   7.060  -9.758  0.00  0.00     0.096 C 
ATOM     11  F28 T18 d   1     -12.892   6.540  -5.551  0.00  0.00    -0.206 F 
ATOM     12  O31 T18 d   1      -8.833   9.907 -10.856  0.00  0.00    -0.267 OA
ATOM     13  H10 T18 d   1     -11.755   8.794  -4.835  0.00  0.00     0.088 H 
ATOM     14  H11 T18 d   1     -10.307  10.145  -6.307  0.00  0.00     0.087 H 
ATOM     15  H12 T18 d   1     -12.283   5.898  -7.946  0.00  0.00     0.089 H 
ENDROOT
BRANCH   9  16
ATOM     16  C9  T18 d   1      -9.938   7.606 -12.093  0.00  0.00     0.062 C 
ATOM     17  C8  T18 d   1     -10.781   6.665 -12.573  0.00  0.00     0.039 C 
ATOM     18  S7  T18 d   1     -10.831   6.283 -14.301  0.00  0.00     0.201 S 
ATOM     19  H4  T18 d   1     -11.439   6.134 -11.887  0.00  0.00     0.106 H 
ATOM     20  C6  T18 d   1     -10.148   7.733 -15.051  0.00  0.00     0.092 A 
ATOM     21  O16 T18 d   1     -12.180   6.168 -14.751  0.00  0.00    -0.218 OA
ATOM     22  O17 T18 d   1      -9.905   5.219 -14.600  0.00  0.00    -0.218 OA
ATOM     23  C4  T18 d   1     -10.349   7.936 -16.406  0.00  0.00    -0.033 A 
ATOM     24  C5  T18 d   1      -9.392   8.627 -14.284  0.00  0.00     0.054 A 
ATOM     25  C2  T18 d   1      -9.765   9.021 -17.054  0.00  0.00     0.043 A 
ATOM     26  H3  T18 d   1     -10.966   7.244 -16.967  0.00  0.00     0.089 H 
ATOM     27  C1  T18 d   1      -9.013   9.920 -16.285  0.00  0.00    -0.054 A 
ATOM     28  C3  T18 d   1      -8.825   9.736 -14.925  0.00  0.00    -0.053 A 
ATOM     29  H1  T18 d   1      -8.567  10.782 -16.767  0.00  0.00     0.087 H 
ATOM     30  H2  T18 d   1      -8.239  10.450 -14.357  0.00  0.00     0.087 H 
ATOM     31  N10 T18 d   1      -9.182   8.429 -12.915  0.00  0.00    -0.354 N 
ATOM     32  H5  T18 d   1      -8.399   8.938 -12.480  0.00  0.00     0.166 HD
BRANCH  25  33
ATOM     33  N11 T18 d   1      -9.958   9.251 -18.440  0.00  0.00    -0.285 N 
ATOM     34  H6  T18 d   1      -9.859  10.195 -18.756  0.00  0.00     0.178 HD
BRANCH  33  35
ATOM     35  S12 T18 d   1     -10.332   8.113 -19.594  0.00  0.00     0.227 S 
ATOM     36  O14 T18 d   1      -9.845   8.669 -20.811  0.00  0.00    -0.206 OA
ATOM     37  O15 T18 d   1      -9.754   6.877 -19.172  0.00  0.00    -0.206 OA
BRANCH  35  38
ATOM     38  C13 T18 d   1     -12.151   8.091 -19.585  0.00  0.00     0.033 C 
ATOM     39  H7  T18 d   1     -12.512   7.361 -20.324  0.00  0.00     0.051 H 
ATOM     40  H8  T18 d   1     -12.531   9.091 -19.842  0.00  0.00     0.051 H 
ATOM     41  H9  T18 d   1     -12.509   7.808 -18.584  0.00  0.00     0.051 H 
ENDBRANCH  35  38
ENDBRANCH  33  35
ENDBRANCH  25  33
ENDBRANCH   9  16
BRANCH  10  42
ATOM     42  O29 T18 d   1     -11.218   5.858 -10.109  0.00  0.00    -0.359 OA
ATOM     43  H13 T18 d   1     -11.880   5.981 -10.779  0.00  0.00     0.217 HD
ENDBRANCH  10  42
BRANCH   7  44
ATOM     44  C30 T18 d   1      -8.969  10.711  -8.251  0.00  0.00     0.027 C 
ATOM     45  H14 T18 d   1      -9.609  11.158  -7.476  0.00  0.00     0.072 H 
ATOM     46  H15 T18 d   1      -8.796  11.445  -9.052  0.00  0.00     0.072 H 
BRANCH  44  47
ATOM     47  C32 T18 d   1      -7.658  10.244  -7.660  0.00  0.00    -0.040 A 
ATOM     48  C33 T18 d   1      -6.677   9.718  -8.501  0.00  0.00    -0.072 A 
ATOM     49  C36 T18 d   1      -5.466   9.272  -8.000  0.00  0.00    -0.045 A 
ATOM     50  H16 T18 d   1      -6.867   9.657  -9.567  0.00  0.00     0.084 H 
ATOM     51  C34 T18 d   1      -5.231   9.329  -6.630  0.00  0.00     0.116 A 
ATOM     52  H18 T18 d   1      -4.708   8.882  -8.669  0.00  0.00     0.088 H 
ATOM     53  C35 T18 d   1      -6.192   9.856  -5.762  0.00  0.00    -0.045 A 
ATOM     54  F38 T18 d   1      -4.045   8.874  -6.155  0.00  0.00    -0.206 F 
ATOM     55  C37 T18 d   1      -7.407  10.319  -6.285  0.00  0.00    -0.072 A 
ATOM     56  H17 T18 d   1      -6.000   9.906  -4.696  0.00  0.00     0.088 H 
ATOM     57  H19 T18 d   1      -8.156  10.737  -5.622  0.00  0.00     0.084 H 
ENDBRANCH  44  47
ENDBRANCH   7  44
TORSDOF 7
