REMARK  14 active torsions:
REMARK  status: ('A' for Active; 'I' for Inactive)
REMARK    1  A    between atoms: CBE_6  and  CBC_7 
REMARK       I    between atoms: CBC_7  and  NBK_9 
REMARK    2  A    between atoms: CBF_14  and  CAU_15 
REMARK    3  A    between atoms: CAU_15  and  CAS_16 
REMARK    4  A    between atoms: CAS_16  and  CAR_17 
REMARK    5  A    between atoms: CAR_17  and  CAT_18 
REMARK    6  A    between atoms: CAT_18  and  NAZ_19 
REMARK       I    between atoms: NAZ_19  and  CBB_20 
REMARK    7  A    between atoms: CBB_20  and  CAF_22 
REMARK    8  A    between atoms: CAF_22  and  CAG_23 
REMARK    9  A    between atoms: CAG_23  and  CBD_24 
REMARK   10  A    between atoms: NBL_29  and  C1'_30 
REMARK   11  A    between atoms: C4'_32  and  C5'_33 
REMARK   12  A    between atoms: C5'_33  and  O5'_34 
REMARK   13  A    between atoms: C3'_35  and  O3'_36 
REMARK   14  A    between atoms: C2'_37  and  O2'_38 
ROOT
ATOM      1  CAT IS1 d   1      39.582  -7.392 -16.059  0.00  0.00    -0.004 C 
ATOM      2  H21 IS1 d   1      40.106  -8.199 -15.526  0.00  0.00     0.064 H 
ATOM      3  H22 IS1 d   1      40.057  -7.231 -17.038  0.00  0.00     0.064 H 
ENDROOT
BRANCH   1   4
ATOM      4  CAR IS1 d   1      39.608  -6.105 -15.236  0.00  0.00    -0.050 C 
ATOM      5  H19 IS1 d   1      39.149  -5.296 -15.823  0.00  0.00     0.035 H 
ATOM      6  H20 IS1 d   1      39.032  -6.260 -14.312  0.00  0.00     0.035 H 
BRANCH   4   7
ATOM      7  CAS IS1 d   1      41.034  -5.706 -14.871  0.00  0.00    -0.063 C 
ATOM      8  H17 IS1 d   1      41.041  -5.324 -13.839  0.00  0.00     0.033 H 
ATOM      9  H18 IS1 d   1      41.678  -6.595 -14.938  0.00  0.00     0.033 H 
BRANCH   7  10
ATOM     10  CAU IS1 d   1      41.591  -4.625 -15.799  0.00  0.00    -0.061 C 
ATOM     11  H15 IS1 d   1      41.888  -5.053 -16.768  0.00  0.00     0.033 H 
ATOM     12  H16 IS1 d   1      40.852  -3.827 -15.962  0.00  0.00     0.033 H 
BRANCH  10  13
ATOM     13  CBF IS1 d   1      42.808  -4.097 -15.038  0.00  0.00    -0.051 C 
ATOM     14  CAW IS1 d   1      43.838  -3.491 -15.993  0.00  0.00    -0.047 C 
ATOM     15  CAY IS1 d   1      45.028  -2.873 -15.250  0.00  0.00    -0.002 C 
ATOM     16  H8  IS1 d   1      44.210  -4.282 -16.660  0.00  0.00     0.035 H 
ATOM     17  H9  IS1 d   1      43.349  -2.708 -16.590  0.00  0.00     0.035 H 
ATOM     18  NBK IS1 d   1      44.781  -2.774 -13.792  0.00  0.00    -0.348 N 
ATOM     19  H6  IS1 d   1      45.916  -3.500 -15.418  0.00  0.00     0.064 H 
ATOM     20  H7  IS1 d   1      45.211  -1.864 -15.649  0.00  0.00     0.064 H 
ATOM     21  CBC IS1 d   1      45.790  -2.959 -12.952  0.00  0.00     0.253 C 
ATOM     22  CAX IS1 d   1      43.461  -2.420 -13.220  0.00  0.00    -0.002 C 
ATOM     23  OAB IS1 d   1      46.900  -3.233 -13.399  0.00  0.00    -0.267 OA
ATOM     24  CAV IS1 d   1      42.323  -3.065 -14.007  0.00  0.00    -0.047 C 
ATOM     25  H10 IS1 d   1      43.340  -1.327 -13.247  0.00  0.00     0.064 H 
ATOM     26  H11 IS1 d   1      43.417  -2.768 -12.177  0.00  0.00     0.064 H 
ATOM     27  H12 IS1 d   1      41.772  -2.274 -14.537  0.00  0.00     0.035 H 
ATOM     28  H13 IS1 d   1      41.650  -3.569 -13.298  0.00  0.00     0.035 H 
ATOM     29  H14 IS1 d   1      43.284  -4.934 -14.505  0.00  0.00     0.040 H 
BRANCH  21  30
ATOM     30  CBE IS1 d   1      45.584  -2.825 -11.441  0.00  0.00     0.032 A 
ATOM     31  CAM IS1 d   1      44.640  -3.597 -10.776  0.00  0.00    -0.068 A 
ATOM     32  CAI IS1 d   1      44.440  -3.438  -9.410  0.00  0.00    -0.082 A 
ATOM     33  H1  IS1 d   1      44.056  -4.327 -11.325  0.00  0.00     0.085 H 
ATOM     34  CAH IS1 d   1      45.182  -2.503  -8.697  0.00  0.00    -0.083 A 
ATOM     35  H2  IS1 d   1      43.702  -4.045  -8.898  0.00  0.00     0.083 H 
ATOM     36  CAJ IS1 d   1      46.125  -1.731  -9.363  0.00  0.00    -0.082 A 
ATOM     37  H3  IS1 d   1      45.026  -2.378  -7.632  0.00  0.00     0.083 H 
ATOM     38  CAN IS1 d   1      46.326  -1.894 -10.728  0.00  0.00    -0.068 A 
ATOM     39  H4  IS1 d   1      46.707  -0.998  -8.816  0.00  0.00     0.083 H 
ATOM     40  H5  IS1 d   1      47.067  -1.290 -11.239  0.00  0.00     0.085 H 
ENDBRANCH  21  30
ENDBRANCH  10  13
ENDBRANCH   7  10
ENDBRANCH   4   7
ENDBRANCH   1   4
BRANCH   1  41
ATOM     41  NAZ IS1 d   1      38.166  -7.727 -16.227  0.00  0.00    -0.358 N 
ATOM     42  CBB IS1 d   1      37.467  -8.269 -15.230  0.00  0.00     0.241 C 
ATOM     43  OAA IS1 d   1      37.936  -8.584 -14.145  0.00  0.00    -0.269 OA
ATOM     44  H23 IS1 d   1      37.717  -7.546 -17.102  0.00  0.00     0.162 HD
BRANCH  42  45
ATOM     45  CAF IS1 d   1      36.128  -8.515 -15.518  0.00  0.00    -0.017 C 
ATOM     46  H24 IS1 d   1      35.697  -8.187 -16.463  0.00  0.00     0.092 H 
BRANCH  45  47
ATOM     47  CAG IS1 d   1      35.351  -9.182 -14.588  0.00  0.00    -0.067 C 
ATOM     48  H25 IS1 d   1      35.774  -9.513 -13.640  0.00  0.00     0.085 H 
BRANCH  47  49
ATOM     49  CBD IS1 d   1      34.015  -9.419 -14.896  0.00  0.00    -0.021 A 
ATOM     50  CAP IS1 d   1      33.212  -9.992 -13.931  0.00  0.00    -0.013 A 
ATOM     51  NBL IS1 d   1      31.848 -10.124 -14.186  0.00  0.00    -0.358 N 
ATOM     52  H26 IS1 d   1      33.636 -10.335 -12.988  0.00  0.00     0.112 H 
ATOM     53  CAO IS1 d   1      31.281  -9.746 -15.400  0.00  0.00     0.012 A 
ATOM     54  CAK IS1 d   1      32.095  -9.183 -16.374  0.00  0.00    -0.085 A 
ATOM     55  H29 IS1 d   1      30.828 -10.647 -15.839  0.00  0.00     0.070 H 
ATOM     56  H30 IS1 d   1      30.493  -9.012 -15.174  0.00  0.00     0.070 H 
ATOM     57  CAL IS1 d   1      33.448  -9.014 -16.101  0.00  0.00    -0.074 A 
ATOM     58  H28 IS1 d   1      31.681  -8.879 -17.334  0.00  0.00     0.079 H 
ATOM     59  H27 IS1 d   1      34.084  -8.550 -16.854  0.00  0.00     0.084 H 
BRANCH  51  60
ATOM     60  C1' IS1 d   1      31.010 -10.337 -12.991  0.00  0.00     0.133 C 
ATOM     61  O4' IS1 d   1      29.604 -10.060 -13.073  0.00  0.00    -0.354 OA
ATOM     62  C4' IS1 d   1      29.193  -9.884 -11.820  0.00  0.00     0.088 C 
ATOM     63  C3' IS1 d   1      30.428 -10.145 -10.909  0.00  0.00     0.091 C 
ATOM     64  H32 IS1 d   1      28.574 -10.766 -11.598  0.00  0.00     0.090 H 
ATOM     65  C2' IS1 d   1      31.371  -9.411 -11.846  0.00  0.00     0.104 C 
ATOM     66  H36 IS1 d   1      30.306  -9.376 -10.132  0.00  0.00     0.091 H 
ATOM     67  H38 IS1 d   1      31.101  -8.359 -12.020  0.00  0.00     0.093 H 
ATOM     68  H31 IS1 d   1      31.152 -11.386 -12.693  0.00  0.00     0.122 H 
BRANCH  62  69
ATOM     69  C5' IS1 d   1      28.108  -8.750 -11.739  0.00  0.00     0.043 C 
ATOM     70  H33 IS1 d   1      27.388  -8.870 -12.562  0.00  0.00     0.078 H 
ATOM     71  H34 IS1 d   1      28.596  -7.767 -11.820  0.00  0.00     0.078 H 
BRANCH  69  72
ATOM     72  O5' IS1 d   1      27.422  -8.843 -10.483  0.00  0.00    -0.398 OA
ATOM     73  H35 IS1 d   1      26.765  -8.159 -10.431  0.00  0.00     0.209 HD
ENDBRANCH  69  72
ENDBRANCH  62  69
BRANCH  63  74
ATOM     74  O3' IS1 d   1      30.537 -11.193  -9.994  0.00  0.00    -0.390 OA
ATOM     75  H37 IS1 d   1      31.379 -11.144  -9.557  0.00  0.00     0.210 HD
ENDBRANCH  63  74
BRANCH  65  76
ATOM     76  O2' IS1 d   1      32.746  -9.497 -11.447  0.00  0.00    -0.388 OA
ATOM     77  H39 IS1 d   1      32.848  -9.118 -10.582  0.00  0.00     0.210 HD
ENDBRANCH  65  76
ENDBRANCH  51  60
ENDBRANCH  47  49
ENDBRANCH  45  47
ENDBRANCH  42  45
ENDBRANCH   1  41
TORSDOF 14
