REMARK  11 active torsions:
REMARK  status: ('A' for Active; 'I' for Inactive)
REMARK    1  A    between atoms: C25_1  and  C7_2 
REMARK    2  A    between atoms: C2_4  and  C16_5 
REMARK    3  A    between atoms: C4_12  and  C20_13 
REMARK    4  A    between atoms: C20_13  and  C23_14 
REMARK    5  A    between atoms: C23_14  and  O22_15 
REMARK    6  A    between atoms: O22_15  and  C13_16 
REMARK    7  A    between atoms: C8_24  and  C11_25 
REMARK    8  A    between atoms: C11_25  and  C14_26 
REMARK    9  A    between atoms: C14_26  and  O24_27 
REMARK   10  A    between atoms: C14_26  and  C10_29 
REMARK   11  A    between atoms: O24_27  and  C28_28 
ROOT
ATOM      1  O22 RO7 d   1      45.622  32.647  33.806  0.00  0.00    -0.350 OA
ENDROOT
BRANCH   1   2
ATOM      2  C23 RO7 d   1      46.481  31.527  33.879  0.00  0.00     0.031 C 
ATOM      3  H11 RO7 d   1      46.305  30.865  33.018  0.00  0.00     0.075 H 
ATOM      4  H12 RO7 d   1      47.529  31.860  33.877  0.00  0.00     0.075 H 
BRANCH   2   5
ATOM      5  C20 RO7 d   1      46.182  30.788  35.162  0.00  0.00    -0.002 C 
ATOM      6  H9  RO7 d   1      45.134  30.967  35.444  0.00  0.00     0.045 H 
ATOM      7  H10 RO7 d   1      46.340  29.711  35.002  0.00  0.00     0.045 H 
BRANCH   5   8
ATOM      8  C4  RO7 d   1      47.072  31.253  36.268  0.00  0.00     0.068 A 
ATOM      9  C7  RO7 d   1      46.753  32.412  37.125  0.00  0.00     0.076 A 
ATOM     10  O3  RO7 d   1      47.748  32.580  38.035  0.00  0.00    -0.294 OA
ATOM     11  C2  RO7 d   1      48.630  31.553  37.748  0.00  0.00     0.180 A 
ATOM     12  N1  RO7 d   1      48.238  30.757  36.707  0.00  0.00    -0.226 NA
BRANCH   9  13
ATOM     13  C25 RO7 d   1      45.595  33.375  37.110  0.00  0.00    -0.029 C 
ATOM     14  H1  RO7 d   1      44.891  33.089  36.315  0.00  0.00     0.036 H 
ATOM     15  H2  RO7 d   1      45.967  34.393  36.921  0.00  0.00     0.036 H 
ATOM     16  H3  RO7 d   1      45.082  33.346  38.083  0.00  0.00     0.036 H 
ENDBRANCH   9  13
BRANCH  11  17
ATOM     17  C16 RO7 d   1      49.828  31.194  38.371  0.00  0.00     0.017 A 
ATOM     18  C26 RO7 d   1      50.575  30.086  37.947  0.00  0.00    -0.069 A 
ATOM     19  C29 RO7 d   1      51.776  29.740  38.581  0.00  0.00    -0.082 A 
ATOM     20  H4  RO7 d   1      50.218  29.488  37.116  0.00  0.00     0.085 H 
ATOM     21  C31 RO7 d   1      52.224  30.528  39.663  0.00  0.00    -0.083 A 
ATOM     22  H5  RO7 d   1      52.350  28.883  38.247  0.00  0.00     0.083 H 
ATOM     23  C30 RO7 d   1      51.486  31.632  40.092  0.00  0.00    -0.082 A 
ATOM     24  H6  RO7 d   1      53.150  30.273  40.166  0.00  0.00     0.083 H 
ATOM     25  C27 RO7 d   1      50.290  31.967  39.447  0.00  0.00    -0.069 A 
ATOM     26  H7  RO7 d   1      51.839  32.230  40.925  0.00  0.00     0.083 H 
ATOM     27  H8  RO7 d   1      49.719  32.826  39.780  0.00  0.00     0.085 H 
ENDBRANCH  11  17
ENDBRANCH   5   8
ENDBRANCH   2   5
ENDBRANCH   1   2
BRANCH   1  28
ATOM     28  C13 RO7 d   1      45.842  33.611  32.874  0.00  0.00     0.080 A 
ATOM     29  C19 RO7 d   1      46.685  33.412  31.772  0.00  0.00    -0.049 A 
ATOM     30  C17 RO7 d   1      46.882  34.430  30.821  0.00  0.00    -0.073 A 
ATOM     31  H13 RO7 d   1      47.192  32.461  31.651  0.00  0.00     0.087 H 
ATOM     32  C8  RO7 d   1      46.225  35.679  30.934  0.00  0.00    -0.037 A 
ATOM     33  H14 RO7 d   1      47.550  34.255  29.985  0.00  0.00     0.084 H 
ATOM     34  C6  RO7 d   1      45.302  35.931  32.082  0.00  0.00     0.024 A 
ATOM     35  C5  RO7 d   1      45.120  34.869  33.048  0.00  0.00     0.015 A 
ATOM     36  S9  RO7 d   1      44.416  37.247  32.499  0.00  0.00    -0.101 SA
ATOM     37  C15 RO7 d   1      44.205  35.184  34.121  0.00  0.00    -0.063 A 
ATOM     38  C12 RO7 d   1      43.771  36.498  33.889  0.00  0.00    -0.043 A 
ATOM     39  H15 RO7 d   1      43.912  34.533  34.943  0.00  0.00     0.085 H 
ATOM     40  H16 RO7 d   1      43.070  37.005  34.551  0.00  0.00     0.095 H 
BRANCH  32  41
ATOM     41  C11 RO7 d   1      46.501  36.725  29.876  0.00  0.00    -0.006 C 
ATOM     42  H17 RO7 d   1      45.659  37.431  29.818  0.00  0.00     0.044 H 
ATOM     43  H18 RO7 d   1      46.642  36.241  28.898  0.00  0.00     0.044 H 
BRANCH  41  44
ATOM     44  C14 RO7 d   1      47.779  37.468  30.281  0.00  0.00     0.125 C 
ATOM     45  H19 RO7 d   1      48.534  36.738  30.608  0.00  0.00     0.101 H 
BRANCH  44  46
ATOM     46  O24 RO7 d   1      47.497  38.359  31.381  0.00  0.00    -0.380 OA
BRANCH  46  47
ATOM     47  C28 RO7 d   1      48.688  39.008  31.867  0.00  0.00     0.005 C 
ATOM     48  H20 RO7 d   1      48.427  39.675  32.702  0.00  0.00     0.066 H 
ATOM     49  H21 RO7 d   1      49.142  39.596  31.056  0.00  0.00     0.066 H 
ATOM     50  H22 RO7 d   1      49.404  38.248  32.214  0.00  0.00     0.066 H 
ENDBRANCH  46  47
ENDBRANCH  44  46
BRANCH  44  51
ATOM     51  C10 RO7 d   1      48.305  38.199  29.084  0.00  0.00     0.203 C 
ATOM     52  O21 RO7 d   1      49.028  37.589  28.294  0.00  0.00    -0.646 OA
ATOM     53  O18 RO7 d   1      47.977  39.371  28.898  0.00  0.00    -0.646 OA
ENDBRANCH  44  51
ENDBRANCH  41  44
ENDBRANCH  32  41
ENDBRANCH   1  28
TORSDOF 11
