REMARK  9 active torsions:
REMARK  status: ('A' for Active; 'I' for Inactive)
REMARK    1  A    between atoms: C15_3  and  C17_5 
REMARK    2  A    between atoms: N23_25  and  C24_6 
REMARK    3  A    between atoms: N23_25  and  C25_7 
REMARK    4  A    between atoms: C2_9  and  C1_8 
REMARK    5  A    between atoms: C2_9  and  N3_10 
REMARK    6  A    between atoms: C21_23  and  C2_9 
REMARK    7  A    between atoms: N3_10  and  C4_11 
REMARK    8  A    between atoms: N3_10  and  C9_16 
REMARK    9  A    between atoms: C4_11  and  C5_12 
REMARK       I    between atoms: C21_23  and  N23_25 
ROOT
ATOM      1  C10 30X d   1      -3.995  -7.415  26.457  0.00  0.00    -0.061 A 
ATOM      2  C13 30X d   1      -3.748  -9.824  29.357  0.00  0.00     0.100 C 
ATOM      3  C15 30X d   1      -2.188  -9.480  27.346  0.00  0.00     0.070 A 
ATOM      4  C16 30X d   1      -1.940  -8.752  26.150  0.00  0.00    -0.046 A 
ATOM      5  C9  30X d   1      -2.825  -7.715  25.683  0.00  0.00     0.012 A 
ATOM      6  C11 30X d   1      -4.265  -8.124  27.657  0.00  0.00    -0.060 A 
ATOM      7  C12 30X d   1      -3.390  -9.151  28.119  0.00  0.00     0.059 A 
ATOM      8  N14 30X d   1      -4.037 -10.359  30.337  0.00  0.00    -0.191 NA
ATOM      9  H   30X d   1      -4.681  -6.638  26.122  0.00  0.00     0.086 H 
ATOM     10  H   30X d   1      -1.050  -8.986  25.566  0.00  0.00     0.087 H 
ATOM     11  H   30X d   1      -5.156  -7.879  28.235  0.00  0.00     0.086 H 
ENDROOT
BRANCH   3  12
ATOM     12  C17 30X d   1      -1.154 -10.580  27.741  0.00  0.00     0.419 C 
ATOM     13  F18 30X d   1      -0.714 -11.189  26.651  0.00  0.00    -0.166 F 
ATOM     14  F19 30X d   1      -1.675 -11.523  28.517  0.00  0.00    -0.166 F 
ATOM     15  F20 30X d   1      -0.121 -10.017  28.350  0.00  0.00    -0.166 F 
ENDBRANCH   3  12
BRANCH   5  16
ATOM     16  N3  30X d   1      -2.531  -6.998  24.415  0.00  0.00    -0.262 NA
BRANCH  16  17
ATOM     17  C2  30X d   1      -2.984  -5.560  24.439  0.00  0.00     0.073 C 
ATOM     18  H   30X d   1      -3.966  -5.480  24.906  0.00  0.00     0.078 H 
BRANCH  17  19
ATOM     19  C1  30X d   1      -2.008  -4.693  25.274  0.00  0.00    -0.053 C 
ATOM     20  H   30X d   1      -1.973  -5.069  26.296  0.00  0.00     0.030 H 
ATOM     21  H   30X d   1      -1.012  -4.742  24.833  0.00  0.00     0.030 H 
ATOM     22  H   30X d   1      -2.354  -3.659  25.278  0.00  0.00     0.030 H 
ENDBRANCH  17  19
BRANCH  17  23
ATOM     23  C21 30X d   1      -3.046  -5.062  22.974  0.00  0.00     0.236 C 
ATOM     24  O22 30X d   1      -2.333  -4.113  22.629  0.00  0.00    -0.272 OA
ATOM     25  N23 30X d   1      -3.877  -5.647  22.051  0.00  0.00    -0.359 N 
BRANCH  25  26
ATOM     26  C24 30X d   1      -3.797  -5.259  20.620  0.00  0.00    -0.017 C 
ATOM     27  H   30X d   1      -3.553  -6.136  20.020  0.00  0.00     0.056 H 
ATOM     28  H   30X d   1      -4.757  -4.854  20.300  0.00  0.00     0.056 H 
ATOM     29  H   30X d   1      -3.022  -4.503  20.493  0.00  0.00     0.056 H 
ENDBRANCH  25  26
BRANCH  25  30
ATOM     30  C25 30X d   1      -4.877  -6.673  22.447  0.00  0.00    -0.017 C 
ATOM     31  H   30X d   1      -4.364  -7.524  22.896  0.00  0.00     0.056 H 
ATOM     32  H   30X d   1      -5.571  -6.243  23.169  0.00  0.00     0.056 H 
ATOM     33  H   30X d   1      -5.427  -7.002  21.565  0.00  0.00     0.056 H 
ENDBRANCH  25  30
ENDBRANCH  17  23
ENDBRANCH  16  17
BRANCH  16  34
ATOM     34  C4  30X d   1      -1.075  -7.103  24.060  0.00  0.00     0.075 C 
ATOM     35  H   30X d   1      -0.537  -7.521  24.911  0.00  0.00     0.069 H 
ATOM     36  H   30X d   1      -0.703  -6.109  23.813  0.00  0.00     0.069 H 
BRANCH  34  37
ATOM     37  C5  30X d   1      -0.869  -8.027  22.841  0.00  0.00     0.399 C 
ATOM     38  F6  30X d   1      -1.698  -7.683  21.871  0.00  0.00    -0.170 F 
ATOM     39  F7  30X d   1       0.386  -7.907  22.410  0.00  0.00    -0.170 F 
ATOM     40  F8  30X d   1      -1.109  -9.293  23.174  0.00  0.00    -0.170 F 
ENDBRANCH  34  37
ENDBRANCH  16  34
ENDBRANCH   5  16
TORSDOF 9
