REMARK  3 active torsions:
REMARK  status: ('A' for Active; 'I' for Inactive)
REMARK    1  A    between atoms: O1_1  and  N2_2 
REMARK    2  A    between atoms: N6_6  and  C7_7 
REMARK    3  A    between atoms: C7_7  and  C8_8 
ROOT
ATOM      1  C7  J72 d   1      21.754   5.994  29.999  0.00  0.00     0.030 C 
ATOM      2  H2  J72 d   1      22.342   6.696  29.390  0.00  0.00     0.072 H 
ATOM      3  H3  J72 d   1      21.134   5.368  29.341  0.00  0.00     0.072 H 
ENDROOT
BRANCH   1   4
ATOM      4  N6  J72 d   1      20.889   6.747  30.899  0.00  0.00    -0.307 N 
ATOM      5  C4  J72 d   1      19.752   6.256  31.397  0.00  0.00     0.280 A 
ATOM      6  C3  J72 d   1      19.142   7.298  32.241  0.00  0.00     0.164 A 
ATOM      7  O5  J72 d   1      19.288   5.152  31.194  0.00  0.00    -0.265 OA
ATOM      8  N2  J72 d   1      18.015   7.154  32.876  0.00  0.00    -0.130 NA
ATOM      9  C25 J72 d   1      20.079   8.457  32.156  0.00  0.00     0.030 A 
ATOM     10  C19 J72 d   1      21.126   8.053  31.320  0.00  0.00     0.051 A 
ATOM     11  C24 J72 d   1      20.093   9.745  32.699  0.00  0.00    -0.031 A 
ATOM     12  C20 J72 d   1      22.178   8.930  31.040  0.00  0.00    -0.053 A 
ATOM     13  C21 J72 d   1      22.194  10.202  31.584  0.00  0.00    -0.043 A 
ATOM     14  H10 J72 d   1      22.987   8.611  30.392  0.00  0.00     0.087 H 
ATOM     15  C22 J72 d   1      21.150  10.602  32.412  0.00  0.00     0.117 A 
ATOM     16  H11 J72 d   1      23.012  10.880  31.367  0.00  0.00     0.088 H 
ATOM     17  F23 J72 d   1      21.161  11.842  32.932  0.00  0.00    -0.206 F 
ATOM     18  H12 J72 d   1      19.284  10.074  33.341  0.00  0.00     0.089 H 
BRANCH   8  19
ATOM     19  O1  J72 d   1      17.509   8.208  33.657  0.00  0.00    -0.266 OA
ATOM     20  H1  J72 d   1      16.686   7.943  34.050  0.00  0.00     0.247 HD
ENDBRANCH   8  19
ENDBRANCH   1   4
BRANCH   1  21
ATOM     21  C8  J72 d   1      22.689   5.115  30.782  0.00  0.00    -0.003 A 
ATOM     22  C9  J72 d   1      22.208   4.177  31.691  0.00  0.00    -0.035 A 
ATOM     23  C10 J72 d   1      23.096   3.371  32.387  0.00  0.00     0.117 A 
ATOM     24  H4  J72 d   1      21.141   4.077  31.855  0.00  0.00     0.089 H 
ATOM     25  F11 J72 d   1      22.628   2.455  33.263  0.00  0.00    -0.206 F 
ATOM     26  C12 J72 d   1      24.462   3.503  32.187  0.00  0.00    -0.035 A 
ATOM     27  C13 J72 d   1      24.938   4.437  31.286  0.00  0.00     0.003 A 
ATOM     28  H5  J72 d   1      25.155   2.875  32.736  0.00  0.00     0.089 H 
ATOM     29  C14 J72 d   1      26.417   4.583  31.072  0.00  0.00     0.049 C 
ATOM     30  C18 J72 d   1      24.057   5.247  30.579  0.00  0.00     0.088 A 
ATOM     31  O15 J72 d   1      26.669   5.407  29.922  0.00  0.00    -0.362 OA
ATOM     32  H6  J72 d   1      26.862   3.590  30.913  0.00  0.00     0.082 H 
ATOM     33  H7  J72 d   1      26.869   5.049  31.960  0.00  0.00     0.082 H 
ATOM     34  C16 J72 d   1      25.879   6.599  29.842  0.00  0.00     0.109 C 
ATOM     35  O17 J72 d   1      24.518   6.177  29.695  0.00  0.00    -0.325 OA
ATOM     36  H8  J72 d   1      26.186   7.201  28.974  0.00  0.00     0.118 H 
ATOM     37  H9  J72 d   1      25.995   7.194  30.760  0.00  0.00     0.118 H 
ENDBRANCH   1  21
TORSDOF 3
