REMARK  11 active torsions:
REMARK  status: ('A' for Active; 'I' for Inactive)
REMARK    1  A    between atoms: C25_1  and  C7_2 
REMARK    2  A    between atoms: C2_4  and  C16_5 
REMARK    3  A    between atoms: C4_12  and  C20_13 
REMARK    4  A    between atoms: C20_13  and  C23_14 
REMARK    5  A    between atoms: C23_14  and  O22_15 
REMARK    6  A    between atoms: O22_15  and  C13_16 
REMARK    7  A    between atoms: C8_24  and  C11_25 
REMARK    8  A    between atoms: C11_25  and  C14_26 
REMARK    9  A    between atoms: C14_26  and  O24_27 
REMARK   10  A    between atoms: C14_26  and  C10_29 
REMARK   11  A    between atoms: O24_27  and  C28_28 
ROOT
ATOM      1  O22 RO7 d   1       6.413  26.961  19.342  0.00  0.00    -0.350 OA
ENDROOT
BRANCH   1   2
ATOM      2  C23 RO7 d   1       7.310  25.936  19.764  0.00  0.00     0.031 C 
ATOM      3  H11 RO7 d   1       8.325  26.358  19.801  0.00  0.00     0.075 H 
ATOM      4  H12 RO7 d   1       7.012  25.608  20.771  0.00  0.00     0.075 H 
BRANCH   2   5
ATOM      5  C20 RO7 d   1       7.328  24.805  18.915  0.00  0.00    -0.002 C 
ATOM      6  H9  RO7 d   1       8.148  24.151  19.245  0.00  0.00     0.045 H 
ATOM      7  H10 RO7 d   1       6.369  24.280  19.035  0.00  0.00     0.045 H 
BRANCH   5   8
ATOM      8  C4  RO7 d   1       7.520  25.079  17.454  0.00  0.00     0.068 A 
ATOM      9  C7  RO7 d   1       8.001  26.054  16.637  0.00  0.00     0.076 A 
ATOM     10  O3  RO7 d   1       7.785  25.665  15.346  0.00  0.00    -0.294 OA
ATOM     11  C2  RO7 d   1       7.228  24.425  15.453  0.00  0.00     0.180 A 
ATOM     12  N1  RO7 d   1       7.092  24.092  16.717  0.00  0.00    -0.226 NA
BRANCH   9  13
ATOM     13  C25 RO7 d   1       8.676  27.402  16.805  0.00  0.00    -0.029 C 
ATOM     14  H1  RO7 d   1       8.802  27.618  17.876  0.00  0.00     0.036 H 
ATOM     15  H2  RO7 d   1       8.054  28.183  16.344  0.00  0.00     0.036 H 
ATOM     16  H3  RO7 d   1       9.661  27.382  16.317  0.00  0.00     0.036 H 
ENDBRANCH   9  13
BRANCH  11  17
ATOM     17  C16 RO7 d   1       6.841  23.554  14.280  0.00  0.00     0.017 A 
ATOM     18  C26 RO7 d   1       6.147  22.351  14.544  0.00  0.00    -0.069 A 
ATOM     19  C29 RO7 d   1       5.785  21.509  13.483  0.00  0.00    -0.082 A 
ATOM     20  H4  RO7 d   1       5.896  22.081  15.563  0.00  0.00     0.085 H 
ATOM     21  C31 RO7 d   1       6.115  21.864  12.142  0.00  0.00    -0.083 A 
ATOM     22  H5  RO7 d   1       5.253  20.586  13.683  0.00  0.00     0.083 H 
ATOM     23  C30 RO7 d   1       6.808  23.071  11.881  0.00  0.00    -0.082 A 
ATOM     24  H6  RO7 d   1       5.836  21.211  11.323  0.00  0.00     0.083 H 
ATOM     25  C27 RO7 d   1       7.161  23.906  12.970  0.00  0.00    -0.069 A 
ATOM     26  H7  RO7 d   1       7.064  23.351  10.866  0.00  0.00     0.083 H 
ATOM     27  H8  RO7 d   1       7.689  24.834  12.781  0.00  0.00     0.085 H 
ENDBRANCH  11  17
ENDBRANCH   5   8
ENDBRANCH   2   5
ENDBRANCH   1   2
BRANCH   1  28
ATOM     28  C13 RO7 d   1       5.116  27.292  19.729  0.00  0.00     0.080 A 
ATOM     29  C19 RO7 d   1       4.043  26.438  20.040  0.00  0.00    -0.049 A 
ATOM     30  C17 RO7 d   1       2.783  26.999  20.374  0.00  0.00    -0.073 A 
ATOM     31  H13 RO7 d   1       4.177  25.362  20.025  0.00  0.00     0.087 H 
ATOM     32  C8  RO7 d   1       2.636  28.391  20.407  0.00  0.00    -0.037 A 
ATOM     33  H14 RO7 d   1       1.941  26.355  20.602  0.00  0.00     0.084 H 
ATOM     34  C6  RO7 d   1       3.738  29.242  20.023  0.00  0.00     0.024 A 
ATOM     35  C5  RO7 d   1       4.977  28.684  19.763  0.00  0.00     0.015 A 
ATOM     36  S9  RO7 d   1       3.843  30.998  19.818  0.00  0.00    -0.101 SA
ATOM     37  C15 RO7 d   1       6.004  29.656  19.562  0.00  0.00    -0.063 C 
ATOM     38  C12 RO7 d   1       5.557  30.940  19.612  0.00  0.00    -0.043 C 
ATOM     39  H15 RO7 d   1       7.046  29.394  19.385  0.00  0.00     0.085 H 
ATOM     40  H16 RO7 d   1       6.197  31.817  19.532  0.00  0.00     0.095 H 
BRANCH  32  41
ATOM     41  C11 RO7 d   1       1.379  29.018  20.841  0.00  0.00    -0.006 C 
ATOM     42  H17 RO7 d   1       1.597  29.992  21.304  0.00  0.00     0.044 H 
ATOM     43  H18 RO7 d   1       0.879  28.367  21.573  0.00  0.00     0.044 H 
BRANCH  41  44
ATOM     44  C14 RO7 d   1       0.449  29.226  19.616  0.00  0.00     0.125 C 
ATOM     45  H19 RO7 d   1       0.394  28.286  19.047  0.00  0.00     0.101 H 
BRANCH  44  46
ATOM     46  O24 RO7 d   1       0.973  30.226  18.780  0.00  0.00    -0.380 OA
BRANCH  46  47
ATOM     47  C28 RO7 d   1       0.593  30.056  17.400  0.00  0.00     0.005 C 
ATOM     48  H20 RO7 d   1       1.031  30.865  16.797  0.00  0.00     0.066 H 
ATOM     49  H21 RO7 d   1      -0.503  30.087  17.315  0.00  0.00     0.066 H 
ATOM     50  H22 RO7 d   1       0.961  29.086  17.035  0.00  0.00     0.066 H 
ENDBRANCH  46  47
ENDBRANCH  44  46
BRANCH  44  51
ATOM     51  C10 RO7 d   1      -0.934  29.587  20.083  0.00  0.00     0.203 C 
ATOM     52  O21 RO7 d   1      -1.317  30.737  19.934  0.00  0.00    -0.646 OA
ATOM     53  O18 RO7 d   1      -1.631  28.704  20.601  0.00  0.00    -0.646 OA
ENDBRANCH  44  51
ENDBRANCH  41  44
ENDBRANCH  32  41
ENDBRANCH   1  28
TORSDOF 11
