REMARK  5 active torsions:
REMARK  status: ('A' for Active; 'I' for Inactive)
REMARK    1  A    between atoms: O1_1  and  N2_2 
REMARK    2  A    between atoms: N6_6  and  C7_7 
REMARK    3  A    between atoms: C7_7  and  C8_8 
REMARK    4  A    between atoms: C23_23  and  C24_24 
REMARK    5  A    between atoms: C25_25  and  C26_26 
ROOT
ATOM      1  N2  J67 d   1      18.753   7.431  32.949  0.00  0.00    -0.130 NA
ATOM      2  C3  J67 d   1      19.772   7.355  32.167  0.00  0.00     0.165 A 
ATOM      3  C4  J67 d   1      20.217   6.177  31.387  0.00  0.00     0.280 A 
ATOM      4  O5  J67 d   1      19.645   5.105  31.307  0.00  0.00    -0.265 OA
ATOM      5  N6  J67 d   1      21.373   6.499  30.798  0.00  0.00    -0.307 N 
ATOM      6  C19 J67 d   1      21.724   7.828  31.067  0.00  0.00     0.051 A 
ATOM      7  C20 J67 d   1      22.780   8.627  30.639  0.00  0.00    -0.056 A 
ATOM      8  C21 J67 d   1      22.860   9.951  31.030  0.00  0.00    -0.080 A 
ATOM      9  C22 J67 d   1      21.897  10.510  31.859  0.00  0.00    -0.072 A 
ATOM     10  C23 J67 d   1      20.811   9.733  32.294  0.00  0.00    -0.021 A 
ATOM     11  C32 J67 d   1      20.740   8.402  31.882  0.00  0.00     0.038 A 
ATOM     12  H10 J67 d   1      23.545   8.209  29.995  0.00  0.00     0.087 H 
ATOM     13  H11 J67 d   1      23.687  10.561  30.684  0.00  0.00     0.083 H 
ATOM     14  H12 J67 d   1      21.983  11.545  32.170  0.00  0.00     0.084 H 
ENDROOT
BRANCH   5  15
ATOM     15  C7  J67 d   1      22.069   5.586  29.896  0.00  0.00     0.030 C 
ATOM     16  H2  J67 d   1      22.646   6.176  29.169  0.00  0.00     0.072 H 
ATOM     17  H3  J67 d   1      21.324   4.976  29.364  0.00  0.00     0.072 H 
BRANCH  15  18
ATOM     18  C8  J67 d   1      23.005   4.674  30.632  0.00  0.00    -0.003 A 
ATOM     19  C9  J67 d   1      22.526   3.748  31.535  0.00  0.00    -0.035 A 
ATOM     20  C10 J67 d   1      23.425   2.925  32.194  0.00  0.00     0.117 A 
ATOM     21  H4  J67 d   1      21.462   3.665  31.726  0.00  0.00     0.089 H 
ATOM     22  F11 J67 d   1      22.957   2.010  33.075  0.00  0.00    -0.206 F 
ATOM     23  C12 J67 d   1      24.793   3.029  31.941  0.00  0.00    -0.035 A 
ATOM     24  C13 J67 d   1      25.262   3.965  31.026  0.00  0.00     0.003 A 
ATOM     25  H5  J67 d   1      25.491   2.380  32.458  0.00  0.00     0.089 H 
ATOM     26  C14 J67 d   1      26.733   4.104  30.721  0.00  0.00     0.049 C 
ATOM     27  C18 J67 d   1      24.362   4.782  30.365  0.00  0.00     0.088 A 
ATOM     28  O15 J67 d   1      26.871   4.648  29.390  0.00  0.00    -0.362 OA
ATOM     29  H6  J67 d   1      27.218   3.118  30.772  0.00  0.00     0.082 H 
ATOM     30  H7  J67 d   1      27.202   4.781  31.450  0.00  0.00     0.082 H 
ATOM     31  C16 J67 d   1      26.180   5.890  29.198  0.00  0.00     0.109 C 
ATOM     32  O17 J67 d   1      24.774   5.713  29.457  0.00  0.00    -0.325 OA
ATOM     33  H8  J67 d   1      26.320   6.229  28.161  0.00  0.00     0.118 H 
ATOM     34  H9  J67 d   1      26.586   6.644  29.888  0.00  0.00     0.118 H 
ENDBRANCH  15  18
ENDBRANCH   5  15
BRANCH   1  35
ATOM     35  O1  J67 d   1      17.983   6.256  33.048  0.00  0.00    -0.266 OA
ATOM     36  H1  J67 d   1      17.257   6.404  33.642  0.00  0.00     0.247 HD
ENDBRANCH   1  35
BRANCH  10  37
ATOM     37  C24 J67 d   1      19.746  10.287  33.151  0.00  0.00    -0.071 C 
ATOM     38  C25 J67 d   1      19.621  11.622  33.221  0.00  0.00    -0.072 C 
ATOM     39  H14 J67 d   1      20.316  12.239  32.652  0.00  0.00     0.084 H 
ATOM     40  H13 J67 d   1      19.080   9.632  33.711  0.00  0.00     0.084 H 
BRANCH  38  41
ATOM     41  C26 J67 d   1      18.587  12.293  34.032  0.00  0.00    -0.036 A 
ATOM     42  C27 J67 d   1      18.149  11.740  35.252  0.00  0.00    -0.073 A 
ATOM     43  C28 J67 d   1      17.178  12.391  35.994  0.00  0.00    -0.082 A 
ATOM     44  H15 J67 d   1      18.571  10.807  35.609  0.00  0.00     0.084 H 
ATOM     45  C29 J67 d   1      16.636  13.586  35.531  0.00  0.00    -0.083 A 
ATOM     46  H16 J67 d   1      16.840  11.970  36.934  0.00  0.00     0.083 H 
ATOM     47  C30 J67 d   1      17.057  14.144  34.323  0.00  0.00    -0.082 A 
ATOM     48  H17 J67 d   1      15.876  14.091  36.117  0.00  0.00     0.083 H 
ATOM     49  C31 J67 d   1      18.031  13.505  33.570  0.00  0.00    -0.073 A 
ATOM     50  H18 J67 d   1      16.624  15.075  33.974  0.00  0.00     0.083 H 
ATOM     51  H19 J67 d   1      18.363  13.934  32.632  0.00  0.00     0.084 H 
ENDBRANCH  38  41
ENDBRANCH  10  37
TORSDOF 5
