REMARK  4 active torsions:
REMARK  status: ('A' for Active; 'I' for Inactive)
REMARK    1  A    between atoms: O1_1  and  N2_2 
REMARK    2  A    between atoms: N6_6  and  C7_7 
REMARK    3  A    between atoms: C7_7  and  C8_8 
REMARK    4  A    between atoms: C23_23  and  C25_25 
ROOT
ATOM      1  N2  J88 d   1      18.776  28.411  20.822  0.00  0.00    -0.130 NA
ATOM      2  C3  J88 d   1      19.932  28.370  21.438  0.00  0.00     0.165 A 
ATOM      3  C4  J88 d   1      20.483  29.492  22.208  0.00  0.00     0.280 A 
ATOM      4  O5  J88 d   1      19.965  30.586  22.273  0.00  0.00    -0.265 OA
ATOM      5  N6  J88 d   1      21.593  29.060  22.814  0.00  0.00    -0.307 N 
ATOM      6  C19 J88 d   1      21.880  27.740  22.500  0.00  0.00     0.051 A 
ATOM      7  C20 J88 d   1      22.954  26.921  22.879  0.00  0.00    -0.056 A 
ATOM      8  C21 J88 d   1      23.050  25.616  22.417  0.00  0.00    -0.080 A 
ATOM      9  C22 J88 d   1      22.079  25.121  21.571  0.00  0.00    -0.071 A 
ATOM     10  C23 J88 d   1      20.993  25.913  21.162  0.00  0.00    -0.011 A 
ATOM     11  C24 J88 d   1      20.902  27.252  21.620  0.00  0.00     0.038 A 
ATOM     12  H10 J88 d   1      23.718  27.312  23.541  0.00  0.00     0.087 H 
ATOM     13  H11 J88 d   1      23.882  24.990  22.719  0.00  0.00     0.083 H 
ATOM     14  H12 J88 d   1      22.156  24.100  21.215  0.00  0.00     0.084 H 
ENDROOT
BRANCH   5  15
ATOM     15  C7  J88 d   1      22.419  29.859  23.708  0.00  0.00     0.030 C 
ATOM     16  H2  J88 d   1      23.071  29.183  24.280  0.00  0.00     0.072 H 
ATOM     17  H3  J88 d   1      21.760  30.405  24.399  0.00  0.00     0.072 H 
BRANCH  15  18
ATOM     18  C8  J88 d   1      23.276  30.848  22.988  0.00  0.00    -0.003 A 
ATOM     19  C9  J88 d   1      22.709  31.757  22.119  0.00  0.00    -0.035 A 
ATOM     20  C10 J88 d   1      23.511  32.672  21.471  0.00  0.00     0.117 A 
ATOM     21  H4  J88 d   1      21.639  31.752  21.947  0.00  0.00     0.089 H 
ATOM     22  F11 J88 d   1      22.940  33.543  20.620  0.00  0.00    -0.206 F 
ATOM     23  C12 J88 d   1      24.886  32.686  21.700  0.00  0.00    -0.035 A 
ATOM     24  C13 J88 d   1      25.449  31.771  22.580  0.00  0.00     0.003 A 
ATOM     25  H5  J88 d   1      25.514  33.409  21.192  0.00  0.00     0.089 H 
ATOM     26  C14 J88 d   1      26.930  31.766  22.842  0.00  0.00     0.049 C 
ATOM     27  C18 J88 d   1      24.643  30.848  23.233  0.00  0.00     0.088 A 
ATOM     28  O15 J88 d   1      27.154  31.160  24.124  0.00  0.00    -0.362 OA
ATOM     29  H6  J88 d   1      27.311  32.798  22.846  0.00  0.00     0.082 H 
ATOM     30  H7  J88 d   1      27.445  31.187  22.061  0.00  0.00     0.082 H 
ATOM     31  C16 J88 d   1      26.598  29.839  24.218  0.00  0.00     0.109 C 
ATOM     32  O17 J88 d   1      25.169  29.936  24.106  0.00  0.00    -0.325 OA
ATOM     33  H8  J88 d   1      26.865  29.392  25.187  0.00  0.00     0.118 H 
ATOM     34  H9  J88 d   1      26.992  29.212  23.405  0.00  0.00     0.118 H 
ENDBRANCH  15  18
ENDBRANCH   5  15
BRANCH   1  35
ATOM     35  O1  J88 d   1      18.018  29.610  20.844  0.00  0.00    -0.266 OA
ATOM     36  H1  J88 d   1      17.212  29.483  20.358  0.00  0.00     0.247 HD
ENDBRANCH   1  35
BRANCH  10  37
ATOM     37  C25 J88 d   1      19.981  25.321  20.235  0.00  0.00    -0.025 A 
ATOM     38  C26 J88 d   1      18.993  26.099  19.624  0.00  0.00    -0.072 A 
ATOM     39  C27 J88 d   1      18.071  25.541  18.763  0.00  0.00    -0.082 A 
ATOM     40  H13 J88 d   1      18.951  27.162  19.831  0.00  0.00     0.084 H 
ATOM     41  C28 J88 d   1      18.124  24.185  18.488  0.00  0.00    -0.083 A 
ATOM     42  H14 J88 d   1      17.309  26.161  18.304  0.00  0.00     0.083 H 
ATOM     43  C29 J88 d   1      19.087  23.386  19.079  0.00  0.00    -0.082 A 
ATOM     44  H15 J88 d   1      17.406  23.746  17.805  0.00  0.00     0.083 H 
ATOM     45  C30 J88 d   1      20.008  23.952  19.945  0.00  0.00    -0.072 A 
ATOM     46  H16 J88 d   1      19.120  22.324  18.866  0.00  0.00     0.083 H 
ATOM     47  H17 J88 d   1      20.762  23.324  20.406  0.00  0.00     0.084 H 
ENDBRANCH  10  37
TORSDOF 4
