REMARK  6 active torsions:
REMARK  status: ('A' for Active; 'I' for Inactive)
REMARK    1  A    between atoms: O21_1  and  S24_2 
REMARK    2  A    between atoms: S24_2  and  C18_3 
REMARK    3  A    between atoms: S24_2  and  C14_4 
REMARK    4  A    between atoms: C10_8  and  C12_10 
REMARK    5  A    between atoms: C11_17  and  C15_19 
REMARK    6  A    between atoms: C16_21  and  C17_22 
ROOT
ATOM      1  C12 G3B d   1      30.711  18.539   2.647  0.00  0.00     0.009 A 
ATOM      2  C9  G3B d   1      32.035  18.174   2.045  0.00  0.00     0.012 A 
ATOM      3  C13 G3B d   1      32.645  19.444   1.709  0.00  0.00     0.086 A 
ATOM      4  O22 G3B d   1      31.788  20.490   2.066  0.00  0.00    -0.321 OA
ATOM      5  C8  G3B d   1      30.567  19.929   2.661  0.00  0.00     0.031 A 
ATOM      6  C4  G3B d   1      33.883  19.523   1.130  0.00  0.00    -0.049 A 
ATOM      7  C7  G3B d   1      32.688  16.987   1.783  0.00  0.00    -0.055 A 
ATOM      8  C11 G3B d   1      33.940  17.086   1.203  0.00  0.00     0.020 A 
ATOM      9  C1  G3B d   1      34.507  18.315   0.876  0.00  0.00    -0.066 A 
ATOM     10  H9  G3B d   1      29.713  20.489   3.040  0.00  0.00     0.124 H 
ATOM     11  H10 G3B d   1      34.345  20.473   0.886  0.00  0.00     0.087 H 
ATOM     12  H11 G3B d   1      32.243  16.027   2.019  0.00  0.00     0.086 H 
ATOM     13  H12 G3B d   1      35.481  18.326   0.401  0.00  0.00     0.085 H 
ENDROOT
BRANCH   1  14
ATOM     14  C10 G3B d   1      29.696  17.597   3.169  0.00  0.00    -0.023 A 
ATOM     15  C3  G3B d   1      30.042  16.736   4.205  0.00  0.00    -0.071 A 
ATOM     16  C6  G3B d   1      29.108  15.846   4.708  0.00  0.00    -0.065 A 
ATOM     17  H7  G3B d   1      31.044  16.762   4.619  0.00  0.00     0.084 H 
ATOM     18  C14 G3B d   1      27.828  15.835   4.175  0.00  0.00     0.015 A 
ATOM     19  H6  G3B d   1      29.374  15.166   5.509  0.00  0.00     0.085 H 
ATOM     20  C5  G3B d   1      27.484  16.707   3.140  0.00  0.00    -0.065 A 
ATOM     21  C2  G3B d   1      28.417  17.599   2.630  0.00  0.00    -0.071 A 
ATOM     22  H5  G3B d   1      26.480  16.687   2.732  0.00  0.00     0.085 H 
ATOM     23  H8  G3B d   1      28.153  18.281   1.830  0.00  0.00     0.084 H 
BRANCH  18  24
ATOM     24  S24 G3B d   1      26.578  14.694   4.799  0.00  0.00    -0.062 S 
BRANCH  24  25
ATOM     25  O21 G3B d   1      25.260  15.314   4.449  0.00  0.00    -0.337 OA
ATOM     26  H1  G3B d   1      24.556  14.758   4.763  0.00  0.00     0.227 HD
ENDBRANCH  24  25
BRANCH  24  27
ATOM     27  C18 G3B d   1      26.703  13.069   4.025  0.00  0.00    -0.017 C 
ATOM     28  H2  G3B d   1      27.671  12.614   4.282  0.00  0.00     0.044 H 
ATOM     29  H3  G3B d   1      26.627  13.176   2.933  0.00  0.00     0.044 H 
ATOM     30  H4  G3B d   1      25.888  12.426   4.388  0.00  0.00     0.044 H 
ENDBRANCH  24  27
ENDBRANCH  18  24
ENDBRANCH   1  14
BRANCH   8  31
ATOM     31  C15 G3B d   1      34.689  15.860   0.860  0.00  0.00     0.202 A 
ATOM     32  O23 G3B d   1      34.408  14.591   1.263  0.00  0.00    -0.273 OA
ATOM     33  C16 G3B d   1      35.336  13.794   0.656  0.00  0.00     0.165 A 
ATOM     34  N20 G3B d   1      36.175  14.505  -0.111  0.00  0.00    -0.127 NA
ATOM     35  N19 G3B d   1      35.745  15.830   0.023  0.00  0.00    -0.121 NA
BRANCH  33  36
ATOM     36  C17 G3B d   1      35.229  12.323   0.953  0.00  0.00    -0.013 C 
ATOM     37  H13 G3B d   1      36.021  11.782   0.415  0.00  0.00     0.038 H 
ATOM     38  H14 G3B d   1      34.246  11.954   0.627  0.00  0.00     0.038 H 
ATOM     39  H15 G3B d   1      35.342  12.158   2.035  0.00  0.00     0.038 H 
ENDBRANCH  33  36
ENDBRANCH   8  31
TORSDOF 6
