REMARK WARNING: 32 MAX_TORS EXCEEDED!!!
REMARK  34 active torsions:
REMARK  status: ('A' for Active; 'I' for Inactive)
REMARK    1  A    between atoms: C_1  and  CH3_3 
REMARK       I    between atoms: C_1  and  N_4 
REMARK    2  A    between atoms: N_4  and  CA_5 
REMARK    3  A    between atoms: CA_5  and  C_6 
REMARK    4  A    between atoms: CA_5  and  CB_8 
REMARK       I    between atoms: C_6  and  N_11 
REMARK    5  A    between atoms: CB_8  and  CG1_9 
REMARK    6  A    between atoms: CB_8  and  CG2_10 
REMARK    7  A    between atoms: CA_12  and  C_13 
REMARK       I    between atoms: C_13  and  N_18 
REMARK    8  A    between atoms: CA_19  and  C_20 
REMARK       I    between atoms: C_20  and  N_25 
REMARK    9  A    between atoms: CA_26  and  C_27 
REMARK       I    between atoms: C_27  and  N_32 
REMARK   10  A    between atoms: N_32  and  CA_33 
REMARK   11  A    between atoms: CA_33  and  C_34 
REMARK   12  A    between atoms: CA_33  and  CB_36 
REMARK       I    between atoms: C_34  and  N_39 
REMARK   13  A    between atoms: CB_36  and  CG1_37 
REMARK   14  A    between atoms: CB_36  and  CG2_38 
REMARK   15  A    between atoms: CA_40  and  C_41 
REMARK       I    between atoms: C_41  and  N_46 
REMARK   16  A    between atoms: CA_47  and  C_48 
REMARK       I    between atoms: C_48  and  N_53 
REMARK   17  A    between atoms: N_53  and  CA_54 
REMARK   18  A    between atoms: CA_54  and  C_55 
REMARK   19  A    between atoms: CA_54  and  CB_57 
REMARK       I    between atoms: C_55  and  N_64 
REMARK   20  A    between atoms: CB_57  and  CG_58 
REMARK   21  A    between atoms: CG_58  and  CD_59 
REMARK   22  A    between atoms: CD_59  and  NE_60 
REMARK       I    between atoms: NE_60  and  CZ_61 
REMARK       I    between atoms: CZ_61  and  NH1_62 
REMARK       I    between atoms: CZ_61  and  NH2_63 
REMARK   23  A    between atoms: N_64  and  CA_65 
REMARK   24  A    between atoms: CA_65  and  C_66 
REMARK   25  A    between atoms: CA_65  and  CB_68 
REMARK       I    between atoms: C_66  and  N_75 
REMARK   26  A    between atoms: CB_68  and  CG_69 
REMARK   27  A    between atoms: CG_69  and  CD_70 
REMARK   28  A    between atoms: CD_70  and  NE_71 
REMARK       I    between atoms: NE_71  and  CZ_72 
REMARK       I    between atoms: CZ_72  and  NH1_73 
REMARK       I    between atoms: CZ_72  and  NH2_74 
REMARK   29  A    between atoms: N_75  and  CA_76 
REMARK   30  A    between atoms: CA_76  and  C_77 
REMARK   31  A    between atoms: CA_76  and  CB_79 
REMARK       I    between atoms: C_77  and  N_86 
REMARK   32  A    between atoms: CB_79  and  CG_80 
REMARK   33  A    between atoms: CG_80  and  CD_81 
REMARK   34  A    between atoms: CD_81  and  NE_82 
REMARK       I    between atoms: NE_82  and  CZ_83 
REMARK       I    between atoms: CZ_83  and  NH1_84 
ROOT
ATOM      1  C   VAL d   1     -11.808  -7.096   2.312  0.00  0.00     0.243 C 
ATOM      2  O   VAL d   1     -12.924  -7.527   2.580  0.00  0.00    -0.271 OA
ATOM      3  N   PRO d   1     -10.994  -6.543   3.245  0.00  0.00    -0.337 N 
ATOM      4  CA  PRO d   1     -11.504  -6.353   4.579  0.00  0.00     0.092 C 
ATOM      5  CB  PRO d   1     -10.356  -5.685   5.328  0.00  0.00    -0.036 C 
ATOM      6  CG  PRO d   1      -9.082  -5.967   4.551  0.00  0.00    -0.048 C 
ATOM      7  CD  PRO d   1      -9.560  -6.258   3.137  0.00  0.00    -0.001 C 
ATOM      8  H43 PRO d   1     -11.787  -7.317   5.027  0.00  0.00     0.087 H 
ATOM      9  H44 PRO d   1     -10.277  -6.101   6.343  0.00  0.00     0.036 H 
ATOM     10  H45 PRO d   1     -10.527  -4.600   5.388  0.00  0.00     0.036 H 
ATOM     11  H46 PRO d   1      -8.554  -6.836   4.970  0.00  0.00     0.035 H 
ATOM     12  H47 PRO d   1      -8.416  -5.092   4.564  0.00  0.00     0.035 H 
ATOM     13  H48 PRO d   1      -9.392  -5.385   2.490  0.00  0.00     0.064 H 
ATOM     14  H49 PRO d   1      -9.027  -7.128   2.725  0.00  0.00     0.064 H 
ENDROOT
BRANCH   4  15
ATOM     15  C   PRO d   1     -12.662  -5.382   4.645  0.00  0.00     0.243 C 
ATOM     16  O   PRO d   1     -12.797  -4.489   3.817  0.00  0.00    -0.271 OA
ATOM     17  N   PRO d   1     -13.466  -5.537   5.724  0.00  0.00    -0.337 N 
ATOM     18  CA  PRO d   1     -14.532  -4.577   5.914  0.00  0.00     0.091 C 
ATOM     19  CD  PRO d   1     -13.356  -6.554   6.772  0.00  0.00    -0.001 C 
ATOM     20  CB  PRO d   1     -15.308  -5.110   7.130  0.00  0.00    -0.036 C 
ATOM     21  H50 PRO d   1     -15.170  -4.449   5.027  0.00  0.00     0.087 H 
ATOM     22  CG  PRO d   1     -14.390  -6.136   7.822  0.00  0.00    -0.048 C 
ATOM     23  H51 PRO d   1     -16.240  -5.594   6.803  0.00  0.00     0.036 H 
ATOM     24  H52 PRO d   1     -15.545  -4.287   7.820  0.00  0.00     0.036 H 
ATOM     25  H53 PRO d   1     -14.973  -7.008   8.153  0.00  0.00     0.035 H 
ATOM     26  H54 PRO d   1     -13.891  -5.678   8.689  0.00  0.00     0.035 H 
ATOM     27  H55 PRO d   1     -12.344  -6.560   7.204  0.00  0.00     0.064 H 
ATOM     28  H56 PRO d   1     -13.590  -7.552   6.372  0.00  0.00     0.064 H 
BRANCH  18  29
ATOM     29  C   PRO d   1     -13.820  -3.278   6.321  0.00  0.00     0.241 C 
ATOM     30  O   PRO d   1     -13.257  -3.208   7.407  0.00  0.00    -0.271 OA
ATOM     31  N   ARG d   1     -13.837  -2.278   5.401  0.00  0.00    -0.346 N 
ATOM     32  H57 ARG d   1     -14.244  -2.399   4.496  0.00  0.00     0.163 HD
BRANCH  31  33
ATOM     33  CA  ARG d   1     -13.225  -1.013   5.811  0.00  0.00     0.089 C 
ATOM     34  H58 ARG d   1     -12.338  -1.250   6.416  0.00  0.00     0.087 H 
BRANCH  33  35
ATOM     35  C   ARG d   1     -14.304  -0.429   6.672  0.00  0.00     0.241 C 
ATOM     36  O   ARG d   1     -15.483  -0.689   6.465  0.00  0.00    -0.271 OA
ATOM     37  N   ARG d   1     -13.785   0.342   7.629  0.00  0.00    -0.346 N 
ATOM     38  H70 ARG d   1     -12.792   0.460   7.627  0.00  0.00     0.163 HD
BRANCH  37  39
ATOM     39  CA  ARG d   1     -14.509   1.009   8.647  0.00  0.00     0.089 C 
ATOM     40  H71 ARG d   1     -14.159   2.046   8.761  0.00  0.00     0.087 H 
BRANCH  39  41
ATOM     41  C   ARG d   1     -14.311   0.131   9.845  0.00  0.00     0.241 C 
ATOM     42  O   ARG d   1     -14.852  -0.965   9.918  0.00  0.00    -0.271 OA
ATOM     43  N   ARG d   1     -13.514   0.625  10.774  0.00  0.00    -0.346 N 
ATOM     44  H83 ARG d   1     -12.949   1.443  10.667  0.00  0.00     0.163 HD
BRANCH  43  45
ATOM     45  CA  ARG d   1     -13.576  -0.200  11.989  0.00  0.00     0.089 C 
ATOM     46  H84 ARG d   1     -13.524  -1.264  11.713  0.00  0.00     0.087 H 
BRANCH  45  47
ATOM     47  C   ARG d   1     -14.924   0.088  12.685  0.00  0.00     0.238 C 
ATOM     48  O   ARG d   1     -15.736  -0.762  13.072  0.00  0.00    -0.271 OA
ATOM     49  N   NH2 d   1     -15.055   1.436  12.565  0.00  0.00    -0.368 N 
ATOM     50  H96 NH2 d   1     -15.860   1.895  12.940  0.00  0.00     0.159 HD
ATOM     51  H97 NH2 d   1     -14.346   1.968  12.102  0.00  0.00     0.159 HD
ENDBRANCH  45  47
BRANCH  45  52
ATOM     52  CB  ARG d   1     -12.436   0.120  12.908  0.00  0.00    -0.036 C 
ATOM     53  H85 ARG d   1     -12.811   0.248  13.934  0.00  0.00     0.036 H 
ATOM     54  H86 ARG d   1     -11.943   1.047  12.580  0.00  0.00     0.036 H 
BRANCH  52  55
ATOM     55  CG  ARG d   1     -11.446  -1.031  12.863  0.00  0.00    -0.048 C 
ATOM     56  H87 ARG d   1     -11.930  -1.898  12.390  0.00  0.00     0.035 H 
ATOM     57  H88 ARG d   1     -11.155  -1.290  13.892  0.00  0.00     0.035 H 
BRANCH  55  58
ATOM     58  CD  ARG d   1     -10.186  -0.672  12.067  0.00  0.00     0.009 C 
ATOM     59  H89 ARG d   1     -10.171   0.401  11.826  0.00  0.00     0.064 H 
ATOM     60  H90 ARG d   1     -10.133  -1.258  11.137  0.00  0.00     0.064 H 
BRANCH  58  61
ATOM     61  NE  ARG d   1      -9.091  -1.014  12.951  0.00  0.00    -0.227 N 
ATOM     62  CZ  ARG d   1      -8.984  -0.349  14.117  0.00  0.00     0.665 C 
ATOM     63  NH1 ARG d   1      -9.352   0.921  14.234  0.00  0.00    -0.235 N 
ATOM     64  NH2 ARG d   1      -8.512  -1.013  15.158  0.00  0.00    -0.235 N 
ATOM     65  H92 ARG d   1      -9.258   1.403  15.139  0.00  0.00     0.174 HD
ATOM     66  H93 ARG d   1      -9.731   1.424  13.419  0.00  0.00     0.174 HD
ATOM     67  H94 ARG d   1      -8.229  -1.998  15.056  0.00  0.00     0.174 HD
ATOM     68  H95 ARG d   1      -8.427  -0.545  16.072  0.00  0.00     0.174 HD
ATOM     69  H91 ARG d   1      -8.413  -1.746  12.695  0.00  0.00     0.177 HD
ENDBRANCH  58  61
ENDBRANCH  55  58
ENDBRANCH  52  55
ENDBRANCH  45  52
ENDBRANCH  43  45
ENDBRANCH  39  41
BRANCH  39  70
ATOM     70  CB  ARG d   1     -16.030   0.917   8.613  0.00  0.00    -0.036 C 
ATOM     71  H72 ARG d   1     -16.390   1.309   9.576  0.00  0.00     0.036 H 
ATOM     72  H73 ARG d   1     -16.278  -0.152   8.537  0.00  0.00     0.036 H 
BRANCH  70  73
ATOM     73  CG  ARG d   1     -16.811   1.609   7.556  0.00  0.00    -0.048 C 
ATOM     74  H74 ARG d   1     -16.545   1.222   6.561  0.00  0.00     0.035 H 
ATOM     75  H75 ARG d   1     -16.631   2.694   7.588  0.00  0.00     0.035 H 
BRANCH  73  76
ATOM     76  CD  ARG d   1     -18.266   1.295   7.884  0.00  0.00     0.009 C 
ATOM     77  H76 ARG d   1     -18.323   0.456   8.593  0.00  0.00     0.064 H 
ATOM     78  H77 ARG d   1     -18.815   1.037   6.966  0.00  0.00     0.064 H 
BRANCH  76  79
ATOM     79  NE  ARG d   1     -18.818   2.478   8.474  0.00  0.00    -0.227 N 
ATOM     80  CZ  ARG d   1     -20.084   2.469   8.931  0.00  0.00     0.665 C 
ATOM     81  NH1 ARG d   1     -20.591   1.423   9.592  0.00  0.00    -0.235 N 
ATOM     82  NH2 ARG d   1     -20.786   3.558   8.694  0.00  0.00    -0.235 N 
ATOM     83  H79 ARG d   1     -21.564   1.449   9.928  0.00  0.00     0.174 HD
ATOM     84  H80 ARG d   1     -20.008   0.591   9.765  0.00  0.00     0.174 HD
ATOM     85  H81 ARG d   1     -20.361   4.343   8.181  0.00  0.00     0.174 HD
ATOM     86  H82 ARG d   1     -21.760   3.624   9.021  0.00  0.00     0.174 HD
ATOM     87  H78 ARG d   1     -18.248   3.333   8.548  0.00  0.00     0.177 HD
ENDBRANCH  76  79
ENDBRANCH  73  76
ENDBRANCH  70  73
ENDBRANCH  39  70
ENDBRANCH  37  39
ENDBRANCH  33  35
BRANCH  33  88
ATOM     88  CB  ARG d   1     -12.776   0.044   4.776  0.00  0.00    -0.036 C 
ATOM     89  H59 ARG d   1     -11.680  -0.024   4.709  0.00  0.00     0.036 H 
ATOM     90  H60 ARG d   1     -13.058   1.026   5.184  0.00  0.00     0.036 H 
BRANCH  88  91
ATOM     91  CG  ARG d   1     -13.307  -0.006   3.345  0.00  0.00    -0.048 C 
ATOM     92  H61 ARG d   1     -12.896  -0.910   2.872  0.00  0.00     0.035 H 
ATOM     93  H62 ARG d   1     -12.931   0.885   2.822  0.00  0.00     0.035 H 
BRANCH  91  94
ATOM     94  CD  ARG d   1     -14.816  -0.040   3.161  0.00  0.00     0.009 C 
ATOM     95  H63 ARG d   1     -15.262  -0.546   4.030  0.00  0.00     0.064 H 
ATOM     96  H64 ARG d   1     -15.043  -0.609   2.248  0.00  0.00     0.064 H 
BRANCH  94  97
ATOM     97  NE  ARG d   1     -15.413   1.283   3.041  0.00  0.00    -0.227 N 
ATOM     98  CZ  ARG d   1     -16.724   1.346   2.764  0.00  0.00     0.665 C 
ATOM     99  NH1 ARG d   1     -17.442   0.216   2.731  0.00  0.00    -0.235 N 
ATOM    100  NH2 ARG d   1     -17.338   2.488   2.525  0.00  0.00    -0.235 N 
ATOM    101  H66 ARG d   1     -18.449   0.252   2.519  0.00  0.00     0.174 HD
ATOM    102  H67 ARG d   1     -16.987  -0.689   2.917  0.00  0.00     0.174 HD
ATOM    103  H68 ARG d   1     -16.808   3.371   2.544  0.00  0.00     0.174 HD
ATOM    104  H69 ARG d   1     -18.347   2.497   2.319  0.00  0.00     0.174 HD
ATOM    105  H65 ARG d   1     -14.851   2.137   3.164  0.00  0.00     0.177 HD
ENDBRANCH  94  97
ENDBRANCH  91  94
ENDBRANCH  88  91
ENDBRANCH  33  88
ENDBRANCH  31  33
ENDBRANCH  18  29
ENDBRANCH   4  15
BRANCH   1 106
ATOM    106  CA  VAL d   1     -11.247  -7.256   0.896  0.00  0.00     0.092 C 
ATOM    107  H35 VAL d   1     -10.149  -7.298   0.947  0.00  0.00     0.088 H 
BRANCH 106 108
ATOM    108  N   VAL d   1     -11.764  -8.502   0.352  0.00  0.00    -0.346 N 
ATOM    109  C   PRO d   1     -11.392  -9.689   0.847  0.00  0.00     0.241 C 
ATOM    110  O   PRO d   1     -10.628  -9.847   1.792  0.00  0.00    -0.271 OA
ATOM    111  H34 VAL d   1     -12.412  -8.471  -0.409  0.00  0.00     0.163 HD
BRANCH 109 112
ATOM    112  CA  PRO d   1     -11.995 -10.883   0.092  0.00  0.00     0.091 C 
ATOM    113  N   PRO d   1     -10.844 -11.684  -0.338  0.00  0.00    -0.337 N 
ATOM    114  C   PRO d   1     -10.035 -11.277  -1.364  0.00  0.00     0.243 C 
ATOM    115  CD  PRO d   1     -10.686 -12.923   0.430  0.00  0.00    -0.001 C 
ATOM    116  O   PRO d   1     -10.236 -10.257  -2.008  0.00  0.00    -0.271 OA
ATOM    117  CG  PRO d   1     -11.787 -12.877   1.495  0.00  0.00    -0.048 C 
ATOM    118  H32 PRO d   1      -9.693 -12.960   0.902  0.00  0.00     0.064 H 
ATOM    119  H33 PRO d   1     -10.815 -13.800  -0.221  0.00  0.00     0.064 H 
ATOM    120  CB  PRO d   1     -12.781 -11.803   1.036  0.00  0.00    -0.036 C 
ATOM    121  H30 PRO d   1     -12.288 -13.854   1.568  0.00  0.00     0.035 H 
ATOM    122  H31 PRO d   1     -11.361 -12.609   2.473  0.00  0.00     0.035 H 
ATOM    123  H28 PRO d   1     -13.626 -12.265   0.505  0.00  0.00     0.036 H 
ATOM    124  H29 PRO d   1     -13.157 -11.235   1.900  0.00  0.00     0.036 H 
ATOM    125  H27 PRO d   1     -12.617 -10.549  -0.751  0.00  0.00     0.087 H 
BRANCH 114 126
ATOM    126  CA  PRO d   1      -8.788 -12.158  -1.603  0.00  0.00     0.092 C 
ATOM    127  N   PRO d   1      -8.148 -12.061  -2.916  0.00  0.00    -0.337 N 
ATOM    128  C   PRO d   1      -8.833 -12.240  -4.079  0.00  0.00     0.243 C 
ATOM    129  CD  PRO d   1      -6.689 -11.835  -2.847  0.00  0.00    -0.001 C 
ATOM    130  O   PRO d   1     -10.025 -12.514  -4.157  0.00  0.00    -0.271 OA
ATOM    131  CG  PRO d   1      -6.365 -11.743  -1.359  0.00  0.00    -0.048 C 
ATOM    132  H25 PRO d   1      -6.420 -10.899  -3.358  0.00  0.00     0.064 H 
ATOM    133  H26 PRO d   1      -6.147 -12.674  -3.308  0.00  0.00     0.064 H 
ATOM    134  CB  PRO d   1      -7.714 -11.564  -0.661  0.00  0.00    -0.036 C 
ATOM    135  H23 PRO d   1      -5.872 -12.664  -1.015  0.00  0.00     0.035 H 
ATOM    136  H24 PRO d   1      -5.711 -10.881  -1.160  0.00  0.00     0.035 H 
ATOM    137  H21 PRO d   1      -7.716 -12.098   0.300  0.00  0.00     0.036 H 
ATOM    138  H22 PRO d   1      -7.912 -10.496  -0.487  0.00  0.00     0.036 H 
ATOM    139  H20 PRO d   1      -9.024 -13.208  -1.373  0.00  0.00     0.087 H 
BRANCH 128 140
ATOM    140  CA  PRO d   1      -7.959 -12.051  -5.331  0.00  0.00     0.092 A 
ATOM    141  N   PRO d   1      -8.505 -12.659  -6.519  0.00  0.00    -0.337 N 
ATOM    142  C   VAL d   1      -8.552 -14.021  -6.619  0.00  0.00     0.243 C 
ATOM    143  CD  PRO d   1      -8.758 -11.685  -7.593  0.00  0.00    -0.001 A 
ATOM    144  O   VAL d   1      -8.032 -14.774  -5.801  0.00  0.00    -0.271 OA
ATOM    145  CG  PRO d   1      -8.241 -10.343  -7.078  0.00  0.00    -0.048 A 
ATOM    146  H18 PRO d   1      -9.835 -11.623  -7.806  0.00  0.00     0.064 H 
ATOM    147  H19 PRO d   1      -8.220 -11.976  -8.507  0.00  0.00     0.064 H 
ATOM    148  CB  PRO d   1      -7.793 -10.568  -5.638  0.00  0.00    -0.036 A 
ATOM    149  H16 PRO d   1      -7.392 -10.004  -7.690  0.00  0.00     0.035 H 
ATOM    150  H17 PRO d   1      -9.042  -9.590  -7.112  0.00  0.00     0.035 H 
ATOM    151  H14 PRO d   1      -6.739 -10.277  -5.523  0.00  0.00     0.036 H 
ATOM    152  H15 PRO d   1      -8.415  -9.971  -4.954  0.00  0.00     0.036 H 
ATOM    153  H13 PRO d   1      -6.973 -12.495  -5.128  0.00  0.00     0.087 H 
BRANCH 142 154
ATOM    154  CA  VAL d   1      -9.213 -14.591  -7.888  0.00  0.00     0.092 C 
ATOM    155  H5  VAL d   1      -9.800 -13.805  -8.386  0.00  0.00     0.088 H 
BRANCH 154 156
ATOM    156  N   VAL d   1      -8.132 -15.044  -8.758  0.00  0.00    -0.348 N 
ATOM    157  C   ACE d   1      -7.634 -14.306  -9.766  0.00  0.00     0.214 C 
ATOM    158  O   ACE d   1      -8.217 -13.392 -10.325  0.00  0.00    -0.274 OA
ATOM    159  H4  VAL d   1      -7.741 -15.950  -8.596  0.00  0.00     0.163 HD
BRANCH 157 160
ATOM    160  CH3 ACE d   1      -6.180 -14.635 -10.097  0.00  0.00    -0.003 C 
ATOM    161  H1  ACE d   1      -5.848 -15.487  -9.485  0.00  0.00     0.040 H 
ATOM    162  H2  ACE d   1      -5.548 -13.761  -9.881  0.00  0.00     0.040 H 
ATOM    163  H3  ACE d   1      -6.096 -14.894 -11.163  0.00  0.00     0.040 H 
ENDBRANCH 157 160
ENDBRANCH 154 156
BRANCH 154 164
ATOM    164  CB  VAL d   1     -10.134 -15.789  -7.564  0.00  0.00    -0.033 C 
ATOM    165  H6  VAL d   1      -9.467 -16.649  -7.402  0.00  0.00     0.042 H 
BRANCH 164 166
ATOM    166  CG1 VAL d   1     -10.991 -15.660  -6.279  0.00  0.00    -0.071 C 
ATOM    167  H7  VAL d   1     -11.601 -16.566  -6.153  0.00  0.00     0.028 H 
ATOM    168  H8  VAL d   1     -11.650 -14.783  -6.364  0.00  0.00     0.028 H 
ATOM    169  H9  VAL d   1     -10.330 -15.539  -5.408  0.00  0.00     0.028 H 
ENDBRANCH 164 166
BRANCH 164 170
ATOM    170  CG2 VAL d   1     -11.027 -16.129  -8.755  0.00  0.00    -0.071 C 
ATOM    171  H10 VAL d   1     -10.411 -16.218  -9.662  0.00  0.00     0.028 H 
ATOM    172  H11 VAL d   1     -11.771 -15.331  -8.895  0.00  0.00     0.028 H 
ATOM    173  H12 VAL d   1     -11.542 -17.082  -8.566  0.00  0.00     0.028 H 
ENDBRANCH 164 170
ENDBRANCH 154 164
ENDBRANCH 142 154
ENDBRANCH 128 140
ENDBRANCH 114 126
ENDBRANCH 109 112
ENDBRANCH 106 108
BRANCH 106 174
ATOM    174  CB  VAL d   1     -11.654  -6.111  -0.023  0.00  0.00    -0.033 C 
ATOM    175  H36 VAL d   1     -12.710  -5.899   0.203  0.00  0.00     0.042 H 
BRANCH 174 176
ATOM    176  CG1 VAL d   1     -10.857  -4.820   0.189  0.00  0.00    -0.071 C 
ATOM    177  H37 VAL d   1     -11.213  -4.050  -0.511  0.00  0.00     0.028 H 
ATOM    178  H38 VAL d   1      -9.790  -5.014   0.008  0.00  0.00     0.028 H 
ATOM    179  H39 VAL d   1     -10.996  -4.469   1.222  0.00  0.00     0.028 H 
ENDBRANCH 174 176
BRANCH 174 180
ATOM    180  CG2 VAL d   1     -11.547  -6.408  -1.512  0.00  0.00    -0.071 C 
ATOM    181  H40 VAL d   1     -12.100  -7.330  -1.743  0.00  0.00     0.028 H 
ATOM    182  H41 VAL d   1     -10.489  -6.537  -1.785  0.00  0.00     0.028 H 
ATOM    183  H42 VAL d   1     -11.974  -5.571  -2.084  0.00  0.00     0.028 H 
ENDBRANCH 174 180
ENDBRANCH 106 174
ENDBRANCH   1 106
TORSDOF 34
