REMARK  6 active torsions:
REMARK  status: ('A' for Active; 'I' for Inactive)
REMARK    1  A    between atoms: C16_10  and  C20_9 
REMARK    2  A    between atoms: C28_25  and  C18_11 
REMARK    3  A    between atoms: N9_30  and  C3_14 
REMARK    4  A    between atoms: C34_28  and  C35_26 
REMARK    5  A    between atoms: C34_28  and  C36_27 
REMARK    6  A    between atoms: C34_28  and  N31_31 
ROOT
ATOM      1  C17 B45 d   1      20.557  14.281  32.119  0.00  0.00    -0.065 A 
ATOM      2  C19 B45 d   1      22.658  13.161  32.171  0.00  0.00    -0.049 A 
ATOM      3  C16 B45 d   1      19.934  13.132  31.667  0.00  0.00    -0.013 A 
ATOM      4  C18 B45 d   1      21.915  14.310  32.372  0.00  0.00    -0.051 A 
ATOM      5  C13 B45 d   1      20.702  11.993  31.464  0.00  0.00    -0.002 A 
ATOM      6  C14 B45 d   1      22.062  12.001  31.723  0.00  0.00     0.053 A 
ATOM      7  C10 B45 d   1      22.284   9.625  31.073  0.00  0.00     0.328 A 
ATOM      8  C12 B45 d   1      20.051  10.741  30.968  0.00  0.00     0.024 A 
ATOM      9  N11 B45 d   1      20.936   9.619  30.758  0.00  0.00    -0.338 N 
ATOM     10  N9  B45 d   1      22.827  10.825  31.510  0.00  0.00    -0.261 N 
ATOM     11  O15 B45 d   1      22.944   8.598  30.953  0.00  0.00    -0.246 OA
ATOM     12  H6  B45 d   1      19.968  15.177  32.278  0.00  0.00     0.085 H 
ATOM     13  H7  B45 d   1      23.724  13.172  32.368  0.00  0.00     0.087 H 
ATOM     14  H9  B45 d   1      19.562  10.970  30.010  0.00  0.00     0.071 H 
ATOM     15  H10 B45 d   1      19.291  10.440  31.704  0.00  0.00     0.071 H 
ATOM     16  H27 B45 d   1      20.551   8.786  30.360  0.00  0.00     0.164 HD
ENDROOT
BRANCH   4  17
ATOM     17  C28 B45 d   1      22.636  15.549  32.843  0.00  0.00    -0.025 C 
ATOM     18  C29 B45 d   1      23.234  16.142  31.588  0.00  0.00    -0.035 C 
ATOM     19  C30 B45 d   1      24.104  17.338  31.898  0.00  0.00     0.085 C 
ATOM     20  H11 B45 d   1      23.845  15.376  31.087  0.00  0.00     0.036 H 
ATOM     21  H12 B45 d   1      22.420  16.457  30.919  0.00  0.00     0.036 H 
ATOM     22  N31 B45 d   1      23.224  18.372  32.507  0.00  0.00    -0.068 N 
ATOM     23  H15 B45 d   1      24.557  17.725  30.973  0.00  0.00     0.076 H 
ATOM     24  H16 B45 d   1      24.898  17.054  32.605  0.00  0.00     0.076 H 
ATOM     25  C32 B45 d   1      22.620  17.877  33.785  0.00  0.00     0.085 C 
ATOM     26  H28 B45 d   1      22.452  18.515  31.875  0.00  0.00     0.280 HD
ATOM     27  C33 B45 d   1      21.790  16.616  33.524  0.00  0.00    -0.035 C 
ATOM     28  H17 B45 d   1      23.423  17.642  34.499  0.00  0.00     0.076 H 
ATOM     29  H18 B45 d   1      21.971  18.659  34.207  0.00  0.00     0.076 H 
ATOM     30  H13 B45 d   1      20.939  16.871  32.875  0.00  0.00     0.036 H 
ATOM     31  H14 B45 d   1      21.416  16.224  34.482  0.00  0.00     0.036 H 
ATOM     32  H19 B45 d   1      23.431  15.250  33.542  0.00  0.00     0.047 H 
BRANCH  22  33
ATOM     33  C34 B45 d   1      23.955  19.685  32.577  0.00  0.00     0.097 C 
ATOM     34  H26 B45 d   1      24.991  19.517  32.908  0.00  0.00     0.083 H 
BRANCH  33  35
ATOM     35  C35 B45 d   1      23.263  20.644  33.509  0.00  0.00    -0.050 C 
ATOM     36  H20 B45 d   1      23.820  21.592  33.539  0.00  0.00     0.030 H 
ATOM     37  H21 B45 d   1      23.224  20.210  34.519  0.00  0.00     0.030 H 
ATOM     38  H22 B45 d   1      22.240  20.831  33.150  0.00  0.00     0.030 H 
ENDBRANCH  33  35
BRANCH  33  39
ATOM     39  C36 B45 d   1      23.929  20.317  31.206  0.00  0.00    -0.050 C 
ATOM     40  H23 B45 d   1      24.426  19.651  30.486  0.00  0.00     0.030 H 
ATOM     41  H24 B45 d   1      24.456  21.282  31.237  0.00  0.00     0.030 H 
ATOM     42  H25 B45 d   1      22.886  20.479  30.897  0.00  0.00     0.030 H 
ENDBRANCH  33  39
ENDBRANCH  22  33
ENDBRANCH   4  17
BRANCH   3  43
ATOM     43  C20 B45 d   1      18.498  13.121  31.416  0.00  0.00    -0.003 A 
ATOM     44  C21 B45 d   1      17.997  13.702  30.266  0.00  0.00    -0.068 A 
ATOM     45  C22 B45 d   1      16.644  13.679  30.000  0.00  0.00    -0.045 A 
ATOM     46  H2  B45 d   1      18.674  14.180  29.567  0.00  0.00     0.085 H 
ATOM     47  C23 B45 d   1      15.774  13.070  30.879  0.00  0.00     0.118 A 
ATOM     48  H3  B45 d   1      16.263  14.141  29.096  0.00  0.00     0.088 H 
ATOM     49  C24 B45 d   1      16.243  12.486  32.033  0.00  0.00    -0.024 A 
ATOM     50  F27 B45 d   1      14.454  13.035  30.627  0.00  0.00    -0.206 F 
ATOM     51  C25 B45 d   1      17.596  12.524  32.280  0.00  0.00     0.048 A 
ATOM     52  H8  B45 d   1      15.564  12.008  32.730  0.00  0.00     0.090 H 
ATOM     53 CL26 B45 d   1      18.103  11.768  33.735  0.00  0.00    -0.083 Cl
ENDBRANCH   3  43
BRANCH  10  54
ATOM     54  C3  B45 d   1      24.137  10.787  32.042  0.00  0.00     0.087 A 
ATOM     55  C2  B45 d   1      24.360  10.310  33.312  0.00  0.00     0.063 A 
ATOM     56  C1  B45 d   1      25.638  10.258  33.825  0.00  0.00    -0.060 A 
ATOM     57 CL8  B45 d   1      23.023   9.777  34.262  0.00  0.00    -0.082 Cl
ATOM     58  C6  B45 d   1      26.700  10.692  33.066  0.00  0.00    -0.080 A 
ATOM     59  H4  B45 d   1      25.806   9.876  34.825  0.00  0.00     0.086 H 
ATOM     60  C5  B45 d   1      26.491  11.172  31.791  0.00  0.00    -0.060 A 
ATOM     61  H1  B45 d   1      27.704  10.656  33.472  0.00  0.00     0.083 H 
ATOM     62  C4  B45 d   1      25.208  11.210  31.289  0.00  0.00     0.063 A 
ATOM     63  H5  B45 d   1      27.326  11.515  31.190  0.00  0.00     0.086 H 
ATOM     64 CL7  B45 d   1      24.933  11.804  29.707  0.00  0.00    -0.082 Cl
ENDBRANCH  10  54
TORSDOF 6
