REMARK  11 active torsions:
REMARK  status: ('A' for Active; 'I' for Inactive)
REMARK    1  A    between atoms: NAY_32  and  C6_3 
REMARK    2  A    between atoms: CBA_7  and  CAA_6 
REMARK    3  A    between atoms: NBK_13  and  CBE_12 
REMARK    4  A    between atoms: CBF_15  and  CBL_16 
REMARK    5  A    between atoms: CBL_16  and  CAC_17 
REMARK    6  A    between atoms: CBL_16  and  CAD_18 
REMARK    7  A    between atoms: CBL_16  and  CAB_19 
REMARK    8  A    between atoms: NAX_22  and  CBG_21 
REMARK       I    between atoms: CAZ_23  and  NAX_22 
REMARK       I    between atoms: NAW_25  and  CAZ_23 
REMARK    9  A    between atoms: CBC_26  and  NAW_25 
REMARK   10  A    between atoms: CBD_31  and  NAY_32 
REMARK   11  A    between atoms: CBB_34  and  NAE_35 
ROOT
ATOM      1  NAX SS6 d   1       0.662  -1.922 -12.287  0.00  0.00    -0.293 N 
ATOM      2  CAZ SS6 d   1       0.086  -0.981 -13.082  0.00  0.00     0.326 C 
ATOM      3  OAF SS6 d   1       0.729  -0.176 -13.759  0.00  0.00    -0.247 OA
ATOM      4  NAW SS6 d   1      -1.249  -1.065 -13.159  0.00  0.00    -0.309 N 
ATOM      5  H18 SS6 d   1       0.062  -2.671 -12.004  0.00  0.00     0.172 HD
ATOM      6  H19 SS6 d   1      -1.657  -1.764 -12.572  0.00  0.00     0.170 HD
ENDROOT
BRANCH   1   7
ATOM      7  CBG SS6 d   1       1.937  -1.988 -11.824  0.00  0.00     0.135 A 
ATOM      8  NBK SS6 d   1       2.530  -3.060 -11.279  0.00  0.00    -0.217 N 
ATOM      9  NAV SS6 d   1       3.668  -2.776 -10.857  0.00  0.00    -0.169 NA
ATOM     10  CBF SS6 d   1       3.880  -1.486 -11.064  0.00  0.00     0.066 A 
ATOM     11  CAR SS6 d   1       2.785  -0.944 -11.642  0.00  0.00    -0.012 A 
ATOM     12  H17 SS6 d   1       2.620   0.100 -11.904  0.00  0.00     0.092 H 
BRANCH   8  13
ATOM     13  CBE SS6 d   1       2.021  -4.303 -11.216  0.00  0.00     0.061 A 
ATOM     14  CAP SS6 d   1       2.236  -5.028 -10.065  0.00  0.00    -0.049 A 
ATOM     15  CBA SS6 d   1       1.735  -6.313  -9.937  0.00  0.00    -0.060 A 
ATOM     16  H4  SS6 d   1       2.803  -4.589  -9.252  0.00  0.00     0.087 H 
ATOM     17  CAJ SS6 d   1       1.010  -6.880 -10.980  0.00  0.00    -0.077 A 
ATOM     18  CAH SS6 d   1       0.809  -6.170 -12.156  0.00  0.00    -0.080 A 
ATOM     19  H5  SS6 d   1       0.601  -7.878 -10.874  0.00  0.00     0.084 H 
ATOM     20  CAM SS6 d   1       1.311  -4.872 -12.281  0.00  0.00    -0.055 A 
ATOM     21  H6  SS6 d   1       0.263  -6.622 -12.976  0.00  0.00     0.083 H 
ATOM     22  H7  SS6 d   1       1.152  -4.310 -13.194  0.00  0.00     0.087 H 
BRANCH  15  23
ATOM     23  CAA SS6 d   1       1.987  -7.098  -8.620  0.00  0.00    -0.051 C 
ATOM     24  H1  SS6 d   1       2.576  -6.476  -7.929  0.00  0.00     0.033 H 
ATOM     25  H2  SS6 d   1       2.540  -8.022  -8.844  0.00  0.00     0.033 H 
ATOM     26  H3  SS6 d   1       1.023  -7.351  -8.154  0.00  0.00     0.033 H 
ENDBRANCH  15  23
ENDBRANCH   8  13
BRANCH  10  27
ATOM     27  CBL SS6 d   1       5.195  -0.789 -10.636  0.00  0.00    -0.005 C 
BRANCH  27  28
ATOM     28  CAC SS6 d   1       4.879   0.184  -9.493  0.00  0.00    -0.064 C 
ATOM     29  H8  SS6 d   1       5.803   0.689  -9.175  0.00  0.00     0.028 H 
ATOM     30  H9  SS6 d   1       4.455  -0.373  -8.644  0.00  0.00     0.028 H 
ATOM     31  H10 SS6 d   1       4.152   0.933  -9.840  0.00  0.00     0.028 H 
ENDBRANCH  27  28
BRANCH  27  32
ATOM     32  CAD SS6 d   1       6.207  -1.850 -10.134  0.00  0.00    -0.064 C 
ATOM     33  H11 SS6 d   1       6.438  -2.551 -10.950  0.00  0.00     0.028 H 
ATOM     34  H12 SS6 d   1       5.771  -2.402  -9.289  0.00  0.00     0.028 H 
ATOM     35  H13 SS6 d   1       7.131  -1.350  -9.808  0.00  0.00     0.028 H 
ENDBRANCH  27  32
BRANCH  27  36
ATOM     36  CAB SS6 d   1       5.793  -0.017 -11.788  0.00  0.00    -0.064 C 
ATOM     37  H14 SS6 d   1       5.071   0.734 -12.140  0.00  0.00     0.028 H 
ATOM     38  H15 SS6 d   1       6.031  -0.709 -12.609  0.00  0.00     0.028 H 
ATOM     39  H16 SS6 d   1       6.712   0.486 -11.454  0.00  0.00     0.028 H 
ENDBRANCH  27  36
ENDBRANCH  10  27
ENDBRANCH   1   7
BRANCH   4  40
ATOM     40  CBC SS6 d   1      -2.146  -0.355 -13.906  0.00  0.00     0.038 A 
ATOM     41  CAQ SS6 d   1      -1.964  -0.059 -15.263  0.00  0.00    -0.031 A 
ATOM     42  CBD SS6 d   1      -2.940   0.662 -15.954  0.00  0.00     0.035 A 
ATOM     43  H20 SS6 d   1      -1.068  -0.389 -15.775  0.00  0.00     0.090 H 
ATOM     44  CAL SS6 d   1      -4.109   1.083 -15.299  0.00  0.00    -0.057 A 
ATOM     45  CAG SS6 d   1      -4.303   0.801 -13.943  0.00  0.00    -0.079 A 
ATOM     46  H23 SS6 d   1      -4.866   1.630 -15.848  0.00  0.00     0.086 H 
ATOM     47  CAK SS6 d   1      -3.323   0.075 -13.266  0.00  0.00    -0.057 A 
ATOM     48  H22 SS6 d   1      -5.196   1.139 -13.429  0.00  0.00     0.083 H 
ATOM     49  H21 SS6 d   1      -3.472  -0.164 -12.219  0.00  0.00     0.086 H 
BRANCH  42  50
ATOM     50  NAY SS6 d   1      -2.760   0.929 -17.253  0.00  0.00    -0.340 N 
ATOM     51  H24 SS6 d   1      -2.531   0.150 -17.887  0.00  0.00     0.167 HD
BRANCH  50  52
ATOM     52  C6  SS6 d   1      -2.864   2.163 -17.769  0.00  0.00     0.142 A 
ATOM     53  C5  SS6 d   1      -3.054   2.341 -19.149  0.00  0.00     0.041 A 
ATOM     54  C4  SS6 d   1      -3.155   3.661 -19.634  0.00  0.00     0.072 A 
ATOM     55  CAS SS6 d   1      -3.149   1.252 -20.049  0.00  0.00    -0.042 A 
ATOM     56  N3  SS6 d   1      -3.057   4.674 -18.773  0.00  0.00    -0.241 NA
ATOM     57  CAO SS6 d   1      -3.320   3.906 -21.002  0.00  0.00    -0.052 A 
ATOM     58  C2  SS6 d   1      -2.883   4.473 -17.459  0.00  0.00     0.089 A 
ATOM     59  N1  SS6 d   1      -2.787   3.245 -16.954  0.00  0.00    -0.224 NA
ATOM     60  H30 SS6 d   1      -2.819   5.327 -16.795  0.00  0.00     0.146 H 
ATOM     61  CAN SS6 d   1      -3.410   2.809 -21.896  0.00  0.00    -0.056 A 
ATOM     62  H29 SS6 d   1      -3.378   4.923 -21.374  0.00  0.00     0.087 H 
ATOM     63  CBB SS6 d   1      -3.328   1.475 -21.429  0.00  0.00     0.026 A 
ATOM     64  H28 SS6 d   1      -3.544   2.995 -22.956  0.00  0.00     0.087 H 
ATOM     65  H25 SS6 d   1      -3.083   0.237 -19.673  0.00  0.00     0.088 H 
BRANCH  63  66
ATOM     66  NAE SS6 d   1      -3.431   0.436 -22.309  0.00  0.00    -0.399 N 
ATOM     67  H26 SS6 d   1      -3.562   0.623 -23.314  0.00  0.00     0.156 HD
ATOM     68  H27 SS6 d   1      -3.378  -0.535 -21.968  0.00  0.00     0.156 HD
ENDBRANCH  63  66
ENDBRANCH  50  52
ENDBRANCH  42  50
ENDBRANCH   4  40
TORSDOF 11
