REMARK  19 active torsions:
REMARK  status: ('A' for Active; 'I' for Inactive)
REMARK    1  A    between atoms: N_1  and  CA_2 
REMARK    2  A    between atoms: CA_2  and  C_3 
REMARK    3  A    between atoms: CA_2  and  CB_5 
REMARK       I    between atoms: C_3  and  N_8 
REMARK    4  A    between atoms: CB_5  and  CG1_6 
REMARK    5  A    between atoms: CB_5  and  CG2_7 
REMARK    6  A    between atoms: N_8  and  CA_9 
REMARK    7  A    between atoms: CA_9  and  C_10 
REMARK    8  A    between atoms: CA_9  and  CB_12 
REMARK       I    between atoms: C_10  and  N_20 
REMARK    9  A    between atoms: CB_12  and  CG_13 
REMARK   10  A    between atoms: CZ_18  and  OH_19 
REMARK   11  A    between atoms: N_20  and  CA_21 
REMARK   12  A    between atoms: CA_21  and  C_22 
REMARK   13  A    between atoms: CA_21  and  CB_24 
REMARK       I    between atoms: C_22  and  N_32 
REMARK   14  A    between atoms: CB_24  and  CG_25 
REMARK   15  A    between atoms: CZ_30  and  OH_31 
REMARK   16  A    between atoms: N_32  and  CA_33 
REMARK   17  A    between atoms: CA_33  and  C_34 
REMARK   18  A    between atoms: CA_33  and  CB_36 
REMARK   19  A    between atoms: CB_36  and  CG_37 
ROOT
ATOM      1  C   TYR d   1       0.368 -34.167  12.112  0.00  0.00     0.241 C 
ATOM      2  O   TYR d   1       1.111 -34.979  12.659  0.00  0.00    -0.271 OA
ATOM      3  N   TYR d   1      -0.698 -33.642  12.710  0.00  0.00    -0.346 N 
ATOM      4  H21 TYR d   1      -1.248 -32.967  12.219  0.00  0.00     0.163 HD
ENDROOT
BRANCH   3   5
ATOM      5  CA  TYR d   1      -1.086 -34.025  14.064  0.00  0.00     0.093 C 
ATOM      6  H22 TYR d   1      -0.278 -34.634  14.495  0.00  0.00     0.088 H 
BRANCH   5   7
ATOM      7  C   TYR d   1      -2.364 -34.855  14.057  0.00  0.00     0.241 C 
ATOM      8  O   TYR d   1      -3.366 -34.461  13.460  0.00  0.00    -0.271 OA
ATOM      9  N   PHE d   1      -2.323 -36.004  14.725  0.00  0.00    -0.344 N 
ATOM     10  H30 PHE d   1      -1.465 -36.288  15.153  0.00  0.00     0.163 HD
BRANCH   9  11
ATOM     11  CA  PHE d   1      -3.497 -36.861  14.850  0.00  0.00     0.100 C 
ATOM     12  H31 PHE d   1      -4.360 -36.221  15.085  0.00  0.00     0.090 H 
BRANCH  11  13
ATOM     13  C   PHE d   1      -3.332 -37.866  15.984  0.00  0.00     0.197 C 
ATOM     14  O   PHE d   1      -4.313 -38.412  16.486  0.00  0.00    -0.646 OA
ATOM     15  OXT PHE d   1      -2.219 -38.152  16.425  0.00  0.00    -0.646 OA
ENDBRANCH  11  13
BRANCH  11  16
ATOM     16  CB  PHE d   1      -3.787 -37.588  13.534  0.00  0.00    -0.013 C 
ATOM     17  H32 PHE d   1      -4.049 -36.837  12.774  0.00  0.00     0.043 H 
ATOM     18  H33 PHE d   1      -4.641 -38.263  13.692  0.00  0.00     0.043 H 
BRANCH  16  19
ATOM     19  CG  PHE d   1      -2.633 -38.398  13.019  0.00  0.00    -0.056 A 
ATOM     20  CD1 PHE d   1      -1.669 -37.816  12.209  0.00  0.00    -0.077 A 
ATOM     21  CE1 PHE d   1      -0.604 -38.558  11.729  0.00  0.00    -0.082 A 
ATOM     22  H34 PHE d   1      -1.751 -36.767  11.949  0.00  0.00     0.084 H 
ATOM     23  CZ  PHE d   1      -0.494 -39.898  12.056  0.00  0.00    -0.083 A 
ATOM     24  H36 PHE d   1       0.143 -38.090  11.098  0.00  0.00     0.083 H 
ATOM     25  CE2 PHE d   1      -1.450 -40.491  12.862  0.00  0.00    -0.082 A 
ATOM     26  H38 PHE d   1       0.339 -40.482  11.682  0.00  0.00     0.083 H 
ATOM     27  CD2 PHE d   1      -2.513 -39.742  13.338  0.00  0.00    -0.077 A 
ATOM     28  H37 PHE d   1      -1.367 -41.541  13.120  0.00  0.00     0.083 H 
ATOM     29  H35 PHE d   1      -3.260 -40.212  13.967  0.00  0.00     0.084 H 
ENDBRANCH  16  19
ENDBRANCH  11  16
ENDBRANCH   9  11
ENDBRANCH   5   7
BRANCH   5  30
ATOM     30  CB  TYR d   1      -1.283 -32.786  14.941  0.00  0.00    -0.014 C 
ATOM     31  H23 TYR d   1      -1.591 -33.118  15.944  0.00  0.00     0.043 H 
ATOM     32  H24 TYR d   1      -2.080 -32.172  14.497  0.00  0.00     0.043 H 
BRANCH  30  33
ATOM     33  CG  TYR d   1      -0.048 -31.929  15.084  0.00  0.00    -0.056 A 
ATOM     34  CD1 TYR d   1       0.895 -32.194  16.070  0.00  0.00    -0.074 A 
ATOM     35  CE1 TYR d   1       2.029 -31.410  16.206  0.00  0.00    -0.051 A 
ATOM     36  H25 TYR d   1       0.741 -33.029  16.744  0.00  0.00     0.084 H 
ATOM     37  CZ  TYR d   1       2.228 -30.346  15.348  0.00  0.00     0.065 A 
ATOM     38  H27 TYR d   1       2.755 -31.630  16.980  0.00  0.00     0.087 H 
ATOM     39  CE2 TYR d   1       1.304 -30.062  14.362  0.00  0.00    -0.051 A 
ATOM     40  CD2 TYR d   1       0.175 -30.852  14.235  0.00  0.00    -0.074 A 
ATOM     41  H28 TYR d   1       1.462 -29.225  13.691  0.00  0.00     0.087 H 
ATOM     42  H26 TYR d   1      -0.548 -30.627  13.460  0.00  0.00     0.084 H 
BRANCH  37  43
ATOM     43  OH  TYR d   1       3.352 -29.563  15.478  0.00  0.00    -0.361 OA
ATOM     44  H29 TYR d   1       3.881 -29.888  16.197  0.00  0.00     0.217 HD
ENDBRANCH  37  43
ENDBRANCH  30  33
ENDBRANCH   5  30
ENDBRANCH   3   5
BRANCH   1  45
ATOM     45  CA  TYR d   1       0.639 -33.707  10.682  0.00  0.00     0.093 C 
ATOM     46  H13 TYR d   1      -0.077 -32.910  10.433  0.00  0.00     0.088 H 
BRANCH  45  47
ATOM     47  N   TYR d   1       1.988 -33.169  10.545  0.00  0.00    -0.346 N 
ATOM     48  C   VAL d   1       2.204 -31.912  10.174  0.00  0.00     0.249 C 
ATOM     49  O   VAL d   1       1.295 -31.117   9.935  0.00  0.00    -0.271 OA
ATOM     50  H12 TYR d   1       2.770 -33.762  10.735  0.00  0.00     0.163 HD
BRANCH  48  51
ATOM     51  CA  VAL d   1       3.663 -31.485  10.057  0.00  0.00     0.178 C 
ATOM     52  H4  VAL d   1       4.293 -32.386  10.042  0.00  0.00     0.099 H 
BRANCH  51  53
ATOM     53  N   VAL d   1       3.895 -30.749   8.820  0.00  0.00    -0.066 N 
ATOM     54  H1  VAL d   1       3.640 -31.325   8.033  0.00  0.00     0.275 HD
ATOM     55  H2  VAL d   1       4.870 -30.502   8.754  0.00  0.00     0.275 HD
ATOM     56  H3  VAL d   1       3.335 -29.911   8.818  0.00  0.00     0.275 HD
ENDBRANCH  51  53
BRANCH  51  57
ATOM     57  CB  VAL d   1       4.038 -30.646  11.293  0.00  0.00    -0.025 C 
ATOM     58  H5  VAL d   1       3.306 -29.831  11.396  0.00  0.00     0.042 H 
BRANCH  57  59
ATOM     59  CG1 VAL d   1       3.985 -31.502  12.551  0.00  0.00    -0.071 C 
ATOM     60  H6  VAL d   1       4.255 -30.889  13.423  0.00  0.00     0.028 H 
ATOM     61  H7  VAL d   1       4.694 -32.337  12.456  0.00  0.00     0.028 H 
ATOM     62  H8  VAL d   1       2.967 -31.898  12.682  0.00  0.00     0.028 H 
ENDBRANCH  57  59
BRANCH  57  63
ATOM     63  CG2 VAL d   1       5.418 -30.033  11.120  0.00  0.00    -0.071 C 
ATOM     64  H9  VAL d   1       5.435 -29.420  10.207  0.00  0.00     0.028 H 
ATOM     65  H10 VAL d   1       6.167 -30.834  11.037  0.00  0.00     0.028 H 
ATOM     66  H11 VAL d   1       5.651 -29.402  11.990  0.00  0.00     0.028 H 
ENDBRANCH  57  63
ENDBRANCH  51  57
ENDBRANCH  48  51
ENDBRANCH  45  47
BRANCH  45  67
ATOM     67  CB  TYR d   1       0.428 -34.870   9.711  0.00  0.00    -0.014 C 
ATOM     68  H14 TYR d   1      -0.616 -35.206   9.797  0.00  0.00     0.043 H 
ATOM     69  H15 TYR d   1       1.103 -35.689  10.002  0.00  0.00     0.043 H 
BRANCH  67  70
ATOM     70  CG  TYR d   1       0.697 -34.525   8.263  0.00  0.00    -0.056 A 
ATOM     71  CD1 TYR d   1      -0.222 -33.790   7.522  0.00  0.00    -0.074 A 
ATOM     72  CE1 TYR d   1       0.019 -33.472   6.195  0.00  0.00    -0.051 A 
ATOM     73  H16 TYR d   1      -1.142 -33.460   7.990  0.00  0.00     0.084 H 
ATOM     74  CZ  TYR d   1       1.187 -33.896   5.593  0.00  0.00     0.065 A 
ATOM     75  H18 TYR d   1      -0.705 -32.894   5.633  0.00  0.00     0.087 H 
ATOM     76  CE2 TYR d   1       2.114 -34.629   6.307  0.00  0.00    -0.051 A 
ATOM     77  CD2 TYR d   1       1.865 -34.940   7.634  0.00  0.00    -0.074 A 
ATOM     78  H19 TYR d   1       3.031 -34.959   5.832  0.00  0.00     0.087 H 
ATOM     79  H17 TYR d   1       2.594 -35.517   8.191  0.00  0.00     0.084 H 
BRANCH  74  80
ATOM     80  OH  TYR d   1       1.429 -33.584   4.275  0.00  0.00    -0.361 OA
ATOM     81  H20 TYR d   1       0.701 -33.081   3.931  0.00  0.00     0.217 HD
ENDBRANCH  74  80
ENDBRANCH  67  70
ENDBRANCH  45  67
ENDBRANCH   1  45
TORSDOF 19
