REMARK  5 active torsions:
REMARK  status: ('A' for Active; 'I' for Inactive)
REMARK    1  A    between atoms: N1_1  and  C1_2 
REMARK    2  A    between atoms: N2_8  and  C17_9 
REMARK    3  A    between atoms: C3_15  and  C4_16 
REMARK    4  A    between atoms: C7_19  and  O_22 
REMARK    5  A    between atoms: O_22  and  C8_23 
ROOT
ATOM      1  C1  B43 d   1     -18.358   5.035 -17.622  0.00  0.00     0.137 A 
ATOM      2  N4  B43 d   1     -18.472   4.678 -18.931  0.00  0.00    -0.224 NA
ATOM      3  C23 B43 d   1     -17.502   4.930 -19.822  0.00  0.00     0.091 A 
ATOM      4  N3  B43 d   1     -16.384   5.544 -19.432  0.00  0.00    -0.223 NA
ATOM      5  C22 B43 d   1     -16.223   5.914 -18.131  0.00  0.00     0.146 A 
ATOM      6  C2  B43 d   1     -17.201   5.671 -17.174  0.00  0.00     0.068 A 
ATOM      7  N2  B43 d   1     -15.209   6.529 -17.551  0.00  0.00    -0.335 N 
ATOM      8  C16 B43 d   1     -15.473   6.700 -16.250  0.00  0.00    -0.006 A 
ATOM      9  C3  B43 d   1     -16.723   6.182 -15.962  0.00  0.00     0.008 A 
ATOM     10  H3  B43 d   1     -17.626   4.635 -20.858  0.00  0.00     0.146 H 
ATOM     11  H13 B43 d   1     -14.807   7.173 -15.530  0.00  0.00     0.113 H 
ENDROOT
BRANCH   9  12
ATOM     12  C4  B43 d   1     -17.290   6.111 -14.674  0.00  0.00    -0.023 A 
ATOM     13  C15 B43 d   1     -17.670   4.884 -14.125  0.00  0.00    -0.070 A 
ATOM     14  C14 B43 d   1     -18.111   4.787 -12.804  0.00  0.00    -0.049 A 
ATOM     15  H14 B43 d   1     -17.622   3.990 -14.736  0.00  0.00     0.085 H 
ATOM     16  C7  B43 d   1     -18.203   5.913 -11.990  0.00  0.00     0.076 A 
ATOM     17  H15 B43 d   1     -18.387   3.818 -12.405  0.00  0.00     0.087 H 
ATOM     18  C6  B43 d   1     -17.806   7.141 -12.514  0.00  0.00    -0.049 A 
ATOM     19  C5  B43 d   1     -17.366   7.235 -13.838  0.00  0.00    -0.070 A 
ATOM     20  H16 B43 d   1     -17.838   8.028 -11.892  0.00  0.00     0.087 H 
ATOM     21  H17 B43 d   1     -17.076   8.203 -14.229  0.00  0.00     0.085 H 
BRANCH  16  22
ATOM     22  O   B43 d   1     -18.841   5.780 -10.774  0.00  0.00    -0.311 OA
BRANCH  22  23
ATOM     23  C8  B43 d   1     -19.803   6.621 -10.287  0.00  0.00     0.076 A 
ATOM     24  C13 B43 d   1     -20.856   7.049 -11.090  0.00  0.00    -0.050 A 
ATOM     25  C12 B43 d   1     -21.824   7.881 -10.546  0.00  0.00    -0.080 A 
ATOM     26  H18 B43 d   1     -20.919   6.737 -12.126  0.00  0.00     0.087 H 
ATOM     27  C11 B43 d   1     -21.746   8.285  -9.222  0.00  0.00    -0.083 A 
ATOM     28  H19 B43 d   1     -22.649   8.219 -11.162  0.00  0.00     0.083 H 
ATOM     29  C10 B43 d   1     -20.691   7.857  -8.430  0.00  0.00    -0.080 A 
ATOM     30  H20 B43 d   1     -22.508   8.934  -8.807  0.00  0.00     0.083 H 
ATOM     31  C9  B43 d   1     -19.729   7.006  -8.948  0.00  0.00    -0.050 A 
ATOM     32  H21 B43 d   1     -20.619   8.190  -7.401  0.00  0.00     0.083 H 
ATOM     33  H22 B43 d   1     -18.925   6.642  -8.318  0.00  0.00     0.087 H 
ENDBRANCH  22  23
ENDBRANCH  16  22
ENDBRANCH   9  12
BRANCH   1  34
ATOM     34  N1  B43 d   1     -19.393   4.749 -16.815  0.00  0.00    -0.383 N 
ATOM     35  H1  B43 d   1     -19.352   5.000 -15.817  0.00  0.00     0.157 HD
ATOM     36  H2  B43 d   1     -20.227   4.279 -17.194  0.00  0.00     0.157 HD
ENDBRANCH   1  34
BRANCH   7  37
ATOM     37  C17 B43 d   1     -14.052   6.997 -18.340  0.00  0.00     0.018 C 
ATOM     38  C21 B43 d   1     -14.067   8.501 -18.548  0.00  0.00    -0.046 C 
ATOM     39  C20 B43 d   1     -12.605   8.910 -18.618  0.00  0.00    -0.063 C 
ATOM     40  H5  B43 d   1     -14.567   9.002 -17.706  0.00  0.00     0.036 H 
ATOM     41  H6  B43 d   1     -14.584   8.755 -19.485  0.00  0.00     0.036 H 
ATOM     42  C19 B43 d   1     -11.768   7.664 -18.377  0.00  0.00    -0.063 C 
ATOM     43  H7  B43 d   1     -12.389   9.663 -17.846  0.00  0.00     0.033 H 
ATOM     44  H8  B43 d   1     -12.379   9.328 -19.610  0.00  0.00     0.033 H 
ATOM     45  C18 B43 d   1     -12.704   6.672 -17.722  0.00  0.00    -0.046 C 
ATOM     46  H9  B43 d   1     -10.922   7.891 -17.712  0.00  0.00     0.033 H 
ATOM     47  H10 B43 d   1     -11.389   7.265 -19.329  0.00  0.00     0.033 H 
ATOM     48  H11 B43 d   1     -12.405   5.639 -17.951  0.00  0.00     0.036 H 
ATOM     49  H12 B43 d   1     -12.727   6.814 -16.631  0.00  0.00     0.036 H 
ATOM     50  H4  B43 d   1     -14.110   6.505 -19.322  0.00  0.00     0.073 H 
ENDBRANCH   7  37
TORSDOF 5
