REMARK  2 active torsions:
REMARK  status: ('A' for Active; 'I' for Inactive)
REMARK    1  A    between atoms: C1'_1  and  C1_4 
REMARK    2  A    between atoms: C2_5  and  O2_10 
ROOT
ATOM      1  C1  SAL d   1       2.189  -3.204 -24.118  0.00  0.00     0.073 A 
ATOM      2  C2  SAL d   1       1.135  -4.130 -23.785  0.00  0.00     0.082 A 
ATOM      3  C3  SAL d   1       0.452  -3.993 -22.549  0.00  0.00    -0.050 A 
ATOM      4  C4  SAL d   1       0.798  -2.966 -21.650  0.00  0.00    -0.080 A 
ATOM      5  C5  SAL d   1       1.827  -2.056 -21.967  0.00  0.00    -0.082 A 
ATOM      6  C6  SAL d   1       2.521  -2.167 -23.185  0.00  0.00    -0.064 A 
ATOM      7  H1  SAL d   1      -0.343  -4.685 -22.295  0.00  0.00     0.087 H 
ATOM      8  H2  SAL d   1       0.270  -2.874 -20.708  0.00  0.00     0.083 H 
ATOM      9  H3  SAL d   1       2.084  -1.268 -21.269  0.00  0.00     0.083 H 
ATOM     10  H4  SAL d   1       3.312  -1.464 -23.420  0.00  0.00     0.085 H 
ENDROOT
BRANCH   1  11
ATOM     11  C1' SAL d   1       2.944  -3.303 -25.407  0.00  0.00     0.212 C 
ATOM     12  O1' SAL d   1       2.687  -4.175 -26.212  0.00  0.00    -0.644 OA
ATOM     13  O2' SAL d   1       3.923  -2.418 -25.684  0.00  0.00    -0.644 OA
ENDBRANCH   1  11
BRANCH   2  14
ATOM     14  O2  SAL d   1       0.788  -5.128 -24.645  0.00  0.00    -0.360 OA
ATOM     15  H5  SAL d   1       1.336  -5.082 -25.419  0.00  0.00     0.217 HD
ENDBRANCH   2  14
TORSDOF 2
