REMARK  7 active torsions:
REMARK  status: ('A' for Active; 'I' for Inactive)
REMARK    1  A    between atoms: N1_1  and  C2_17 
REMARK       I    between atoms: C1_18  and  N1_1 
REMARK    2  A    between atoms: C5_4  and  C1_18 
REMARK    3  A    between atoms: C17_11  and  N5_22 
REMARK    4  A    between atoms: C23_20  and  C24_15 
REMARK    5  A    between atoms: N5_22  and  C19_21 
REMARK    6  A    between atoms: N4_25  and  C18_26 
REMARK    7  A    between atoms: N2_29  and  C11_30 
ROOT
ATOM      1  N3  P37 d   1       0.513  35.545  30.448  0.00  0.00    -0.177 NA
ATOM      2  C13 P37 d   1       1.663  33.742  30.753  0.00  0.00     0.054 A 
ATOM      3  C15 P37 d   1       0.963  31.318  31.965  0.00  0.00     0.230 A 
ATOM      4  C17 P37 d   1       2.596  32.702  30.822  0.00  0.00     0.059 A 
ATOM      5  C16 P37 d   1       2.243  31.492  31.433  0.00  0.00     0.051 A 
ATOM      6  O2  P37 d   1       0.659  30.250  32.497  0.00  0.00    -0.273 OA
ATOM      7  N4  P37 d   1       0.018  32.364  31.892  0.00  0.00    -0.306 N 
ATOM      8  C12 P37 d   1       0.385  33.587  31.275  0.00  0.00     0.148 A 
ATOM      9  C14 P37 d   1       1.703  34.974  30.245  0.00  0.00     0.038 A 
ATOM     10  N2  P37 d   1      -0.224  34.755  31.049  0.00  0.00    -0.214 N 
ATOM     11  H15 P37 d   1       2.381  30.704  30.678  0.00  0.00     0.056 H 
ATOM     12  H16 P37 d   1       2.953  31.336  32.259  0.00  0.00     0.056 H 
ATOM     13  H20 P37 d   1       2.557  35.434  29.751  0.00  0.00     0.119 H 
ENDROOT
BRANCH   4  14
ATOM     14  N5  P37 d   1       3.814  32.898  30.304  0.00  0.00    -0.252 NA
BRANCH  14  15
ATOM     15  C19 P37 d   1       4.751  31.951  30.182  0.00  0.00     0.064 A 
ATOM     16  C20 P37 d   1       4.688  31.044  29.120  0.00  0.00    -0.039 A 
ATOM     17  C5  P37 d   1       5.657  30.053  28.969  0.00  0.00     0.034 A 
ATOM     18  H6  P37 d   1       3.876  31.112  28.405  0.00  0.00     0.088 H 
ATOM     19  C21 P37 d   1       6.711  29.979  29.888  0.00  0.00    -0.067 A 
ATOM     20  C22 P37 d   1       6.784  30.886  30.950  0.00  0.00    -0.074 A 
ATOM     21  H7  P37 d   1       7.473  29.216  29.776  0.00  0.00     0.085 H 
ATOM     22  C23 P37 d   1       5.801  31.870  31.101  0.00  0.00    -0.033 A 
ATOM     23  H8  P37 d   1       7.603  30.826  31.657  0.00  0.00     0.084 H 
BRANCH  17  24
ATOM     24  C1  P37 d   1       5.555  29.075  27.775  0.00  0.00     0.252 C 
ATOM     25  N1  P37 d   1       6.492  28.126  27.722  0.00  0.00    -0.352 N 
ATOM     26  H1  P37 d   1       7.183  28.099  28.445  0.00  0.00     0.163 HD
ATOM     27  O1  P37 d   1       4.663  29.207  26.934  0.00  0.00    -0.268 OA
BRANCH  25  28
ATOM     28  C2  P37 d   1       6.559  27.117  26.652  0.00  0.00     0.012 A 
ATOM     29  C4  P37 d   1       6.906  27.662  25.264  0.00  0.00    -0.044 A 
ATOM     30  C3  P37 d   1       7.951  26.882  26.060  0.00  0.00    -0.044 A 
ATOM     31  H2  P37 d   1       6.451  27.215  24.368  0.00  0.00     0.036 H 
ATOM     32  H3  P37 d   1       7.026  28.745  25.113  0.00  0.00     0.036 H 
ATOM     33  H12 P37 d   1       8.823  27.404  26.482  0.00  0.00     0.036 H 
ATOM     34  H13 P37 d   1       8.248  25.873  25.737  0.00  0.00     0.036 H 
ATOM     35  H14 P37 d   1       5.837  26.300  26.801  0.00  0.00     0.072 H 
ENDBRANCH  25  28
ENDBRANCH  17  24
BRANCH  22  36
ATOM     36  C24 P37 d   1       5.891  32.860  32.268  0.00  0.00    -0.049 C 
ATOM     37  H9  P37 d   1       6.781  32.633  32.874  0.00  0.00     0.033 H 
ATOM     38  H10 P37 d   1       4.990  32.773  32.893  0.00  0.00     0.033 H 
ATOM     39  H11 P37 d   1       5.967  33.885  31.875  0.00  0.00     0.033 H 
ENDBRANCH  22  36
ENDBRANCH  14  15
ENDBRANCH   4  14
BRANCH   7  40
ATOM     40  C18 P37 d   1      -1.337  32.142  32.470  0.00  0.00    -0.010 C 
ATOM     41  H17 P37 d   1      -1.394  31.128  32.892  0.00  0.00     0.057 H 
ATOM     42  H18 P37 d   1      -2.095  32.254  31.681  0.00  0.00     0.057 H 
ATOM     43  H19 P37 d   1      -1.522  32.880  33.264  0.00  0.00     0.057 H 
ENDBRANCH   7  40
BRANCH  10  44
ATOM     44  C11 P37 d   1      -1.496  35.011  31.360  0.00  0.00     0.099 A 
ATOM     45  C6  P37 d   1      -2.461  34.592  30.438  0.00  0.00     0.148 A 
ATOM     46  C7  P37 d   1      -3.810  34.805  30.676  0.00  0.00    -0.006 A 
ATOM     47  F1  P37 d   1      -2.093  33.966  29.301  0.00  0.00    -0.203 F 
ATOM     48  C8  P37 d   1      -4.202  35.445  31.844  0.00  0.00     0.119 A 
ATOM     49  H4  P37 d   1      -4.551  34.475  29.957  0.00  0.00     0.093 H 
ATOM     50  C9  P37 d   1      -3.247  35.867  32.775  0.00  0.00    -0.043 A 
ATOM     51  F2  P37 d   1      -5.519  35.640  32.053  0.00  0.00    -0.206 F 
ATOM     52  C10 P37 d   1      -1.886  35.653  32.540  0.00  0.00    -0.049 A 
ATOM     53  H21 P37 d   1      -3.565  36.363  33.685  0.00  0.00     0.088 H 
ATOM     54  H5  P37 d   1      -1.145  35.979  33.261  0.00  0.00     0.087 H 
ENDBRANCH  10  44
TORSDOF 7
