REMARK  12 active torsions:
REMARK  status: ('A' for Active; 'I' for Inactive)
REMARK    1  A    between atoms: CAV_3  and  OAY_4 
REMARK    2  A    between atoms: NAS_7  and  CAN_8 
REMARK    3  A    between atoms: CAP_10  and  OAQ_11 
REMARK    4  A    between atoms: OAQ_11  and  CAR_12 
REMARK    5  A    between atoms: CAK_15  and  NAJ_16 
REMARK    6  A    between atoms: NAJ_16  and  CAA_17 
REMARK    7  A    between atoms: CAC_25  and  NAZ_26 
REMARK    8  A    between atoms: NAZ_26  and  CBA_27 
REMARK    9  A    between atoms: CBB_32  and  SBG_33 
REMARK   10  A    between atoms: SBG_33  and  CBJ_36 
REMARK   11  A    between atoms: CBJ_36  and  CBL_37 
REMARK   12  A    between atoms: CBJ_36  and  CBK_38 
ROOT
ATOM      1  CAA S22 d   1       0.384  18.287  44.789  0.00  0.00     0.132 A 
ATOM      2  CAB S22 d   1       1.018  17.395  43.930  0.00  0.00    -0.012 A 
ATOM      3  NAF S22 d   1       0.531  19.616  44.566  0.00  0.00    -0.213 NA
ATOM      4  CAE S22 d   1       1.255  20.103  43.544  0.00  0.00     0.142 A 
ATOM      5  NAI S22 d   1       1.505  21.339  43.139  0.00  0.00    -0.350 N 
ATOM      6  CAH S22 d   1       2.297  21.254  42.062  0.00  0.00    -0.020 A 
ATOM      7  CAG S22 d   1       2.532  19.974  41.758  0.00  0.00    -0.052 A 
ATOM      8  CAD S22 d   1       1.906  19.238  42.668  0.00  0.00     0.038 A 
ATOM      9  CAC S22 d   1       1.795  17.871  42.865  0.00  0.00     0.050 A 
ATOM     10  H   S22 d   1       0.910  16.322  44.086  0.00  0.00     0.092 H 
ATOM     11  H   S22 d   1       1.159  22.197  43.568  0.00  0.00     0.166 HD
ATOM     12  H   S22 d   1       2.693  22.107  41.512  0.00  0.00     0.111 H 
ATOM     13  H   S22 d   1       3.125  19.605  40.922  0.00  0.00     0.087 H 
ENDROOT
BRANCH   1  14
ATOM     14  NAJ S22 d   1      -0.375  17.906  45.854  0.00  0.00    -0.339 N 
ATOM     15  H   S22 d   1      -0.693  18.649  46.476  0.00  0.00     0.167 HD
BRANCH  14  16
ATOM     16  CAK S22 d   1      -0.755  16.638  46.177  0.00  0.00     0.067 A 
ATOM     17  CAP S22 d   1      -0.883  16.260  47.531  0.00  0.00     0.097 A 
ATOM     18  CAO S22 d   1      -1.266  14.965  47.876  0.00  0.00    -0.023 A 
ATOM     19  CAN S22 d   1      -1.527  14.058  46.859  0.00  0.00     0.033 A 
ATOM     20  H   S22 d   1      -1.358  14.671  48.922  0.00  0.00     0.091 H 
ATOM     21  CAM S22 d   1      -1.429  14.423  45.522  0.00  0.00    -0.055 A 
ATOM     22  CAL S22 d   1      -1.038  15.702  45.186  0.00  0.00    -0.052 A 
ATOM     23  H   S22 d   1      -1.661  13.700  44.740  0.00  0.00     0.087 H 
ATOM     24  H   S22 d   1      -0.950  15.982  44.136  0.00  0.00     0.087 H 
BRANCH  17  25
ATOM     25  OAQ S22 d   1      -0.607  17.172  48.515  0.00  0.00    -0.354 OA
BRANCH  25  26
ATOM     26  CAR S22 d   1      -0.883  16.686  49.834  0.00  0.00     0.010 C 
ATOM     27  H   S22 d   1      -1.940  16.429  49.911  0.00  0.00     0.066 H 
ATOM     28  H   S22 d   1      -0.277  15.801  50.028  0.00  0.00     0.066 H 
ATOM     29  H   S22 d   1      -0.641  17.460  50.563  0.00  0.00     0.066 H 
ENDBRANCH  25  26
ENDBRANCH  17  25
BRANCH  19  30
ATOM     30  NAS S22 d   1      -1.931  12.764  47.145  0.00  0.00    -0.381 N 
ATOM     31  CAT S22 d   1      -2.292  12.351  48.521  0.00  0.00    -0.003 C 
ATOM     32  CAU S22 d   1      -1.747  10.921  48.751  0.00  0.00    -0.026 C 
ATOM     33  H   S22 d   1      -1.859  13.040  49.246  0.00  0.00     0.064 H 
ATOM     34  H   S22 d   1      -3.375  12.366  48.646  0.00  0.00     0.064 H 
ATOM     35  CAV S22 d   1      -2.285   9.880  47.748  0.00  0.00     0.038 C 
ATOM     36  H   S22 d   1      -2.065  10.608  49.745  0.00  0.00     0.039 H 
ATOM     37  H   S22 d   1      -0.665  10.962  48.627  0.00  0.00     0.039 H 
ATOM     38  CAW S22 d   1      -2.810  10.538  46.452  0.00  0.00    -0.026 C 
ATOM     39  H   S22 d   1      -1.466   9.217  47.469  0.00  0.00     0.083 H 
ATOM     40  CAX S22 d   1      -2.017  11.792  46.029  0.00  0.00    -0.003 C 
ATOM     41  H   S22 d   1      -3.838  10.849  46.638  0.00  0.00     0.039 H 
ATOM     42  H   S22 d   1      -2.712   9.805  45.651  0.00  0.00     0.039 H 
ATOM     43  H   S22 d   1      -2.529  12.265  45.191  0.00  0.00     0.064 H 
ATOM     44  H   S22 d   1      -1.008  11.491  45.748  0.00  0.00     0.064 H 
BRANCH  35  45
ATOM     45  OAY S22 d   1      -3.355   9.149  48.380  0.00  0.00    -0.395 OA
ATOM     46  H   S22 d   1      -3.701   8.496  47.767  0.00  0.00     0.210 HD
ENDBRANCH  35  45
ENDBRANCH  19  30
ENDBRANCH  14  16
ENDBRANCH   1  14
BRANCH   9  47
ATOM     47  NAZ S22 d   1       2.412  17.048  41.994  0.00  0.00    -0.354 N 
ATOM     48  H   S22 d   1       2.710  17.429  41.096  0.00  0.00     0.166 HD
BRANCH  47  49
ATOM     49  CBA S22 d   1       2.655  15.753  42.247  0.00  0.00     0.054 A 
ATOM     50  CBF S22 d   1       3.011  15.376  43.533  0.00  0.00    -0.056 A 
ATOM     51  CBE S22 d   1       3.265  14.033  43.801  0.00  0.00    -0.081 A 
ATOM     52  H   S22 d   1       3.091  16.121  44.324  0.00  0.00     0.087 H 
ATOM     53  CBD S22 d   1       3.195  13.058  42.804  0.00  0.00    -0.081 A 
ATOM     54  H   S22 d   1       3.526  13.735  44.817  0.00  0.00     0.083 H 
ATOM     55  CBC S22 d   1       2.858  13.432  41.516  0.00  0.00    -0.060 A 
ATOM     56  H   S22 d   1       3.404  12.014  43.038  0.00  0.00     0.083 H 
ATOM     57  CBB S22 d   1       2.590  14.776  41.241  0.00  0.00     0.086 A 
ATOM     58  H   S22 d   1       2.802  12.686  40.723  0.00  0.00     0.085 H 
BRANCH  57  59
ATOM     59  SBG S22 d   1       2.130  15.135  39.593  0.00  0.00     0.181 S 
ATOM     60  OBH S22 d   1       2.730  14.092  38.705  0.00  0.00    -0.222 OA
ATOM     61  OBI S22 d   1       2.530  16.544  39.242  0.00  0.00    -0.222 OA
BRANCH  59  62
ATOM     62  CBJ S22 d   1       0.342  14.939  39.450  0.00  0.00     0.042 C 
ATOM     63  H   S22 d   1      -0.008  15.245  38.464  0.00  0.00     0.063 H 
BRANCH  62  64
ATOM     64  CBL S22 d   1      -0.042  13.467  39.630  0.00  0.00    -0.060 C 
ATOM     65  H   S22 d   1       0.447  12.869  38.861  0.00  0.00     0.029 H 
ATOM     66  H   S22 d   1       0.278  13.127  40.615  0.00  0.00     0.029 H 
ATOM     67  H   S22 d   1      -1.123  13.361  39.542  0.00  0.00     0.029 H 
ENDBRANCH  62  64
BRANCH  62  68
ATOM     68  CBK S22 d   1      -0.290  15.799  40.506  0.00  0.00    -0.060 C 
ATOM     69  H   S22 d   1       0.052  15.476  41.489  0.00  0.00     0.029 H 
ATOM     70  H   S22 d   1      -0.005  16.839  40.344  0.00  0.00     0.029 H 
ATOM     71  H   S22 d   1      -1.374  15.705  40.449  0.00  0.00     0.029 H 
ENDBRANCH  62  68
ENDBRANCH  59  62
ENDBRANCH  57  59
ENDBRANCH  47  49
ENDBRANCH   9  47
TORSDOF 12
