REMARK  6 active torsions:
REMARK  status: ('A' for Active; 'I' for Inactive)
REMARK    1  A    between atoms: PAT_2  and  CAJ_5 
REMARK    2  A    between atoms: CAJ_5  and  CAH_6 
REMARK    3  A    between atoms: CAH_6  and  OAN_7 
REMARK    4  A    between atoms: OAN_7  and  CAG_8 
REMARK    5  A    between atoms: CAG_8  and  CAI_9 
REMARK    6  A    between atoms: CAI_9  and  N9_10 
ROOT
ATOM      1  CAI H26 d   1      16.434  12.802  18.609  0.00  0.00     0.022 C 
ATOM      2  H7  H26 d   1      17.061  11.976  18.242  0.00  0.00     0.068 H 
ATOM      3  H8  H26 d   1      16.055  12.558  19.612  0.00  0.00     0.068 H 
ENDROOT
BRANCH   1   4
ATOM      4  CAG H26 d   1      15.246  12.972  17.665  0.00  0.00     0.035 C 
ATOM      5  H5  H26 d   1      14.605  12.081  17.731  0.00  0.00     0.076 H 
ATOM      6  H6  H26 d   1      14.672  13.860  17.968  0.00  0.00     0.076 H 
BRANCH   4   7
ATOM      7  OAN H26 d   1      15.678  13.135  16.314  0.00  0.00    -0.389 OA
BRANCH   7   8
ATOM      8  CAH H26 d   1      16.586  12.119  15.872  0.00  0.00     0.031 C 
ATOM      9  H3  H26 d   1      17.511  12.167  16.465  0.00  0.00     0.075 H 
ATOM     10  H4  H26 d   1      16.122  11.130  15.996  0.00  0.00     0.075 H 
BRANCH   8  11
ATOM     11  CAJ H26 d   1      16.910  12.352  14.397  0.00  0.00     0.059 C 
ATOM     12  H1  H26 d   1      15.970  12.415  13.830  0.00  0.00     0.057 H 
ATOM     13  H2  H26 d   1      17.463  13.298  14.297  0.00  0.00     0.057 H 
BRANCH  11  14
ATOM     14  PAT H26 d   1      17.918  11.006  13.718  0.00  0.00     0.261 P 
ATOM     15  OAD H26 d   1      19.037  10.799  14.711  0.00  0.00    -0.640 OA
ATOM     16  OAE H26 d   1      16.952   9.849  13.590  0.00  0.00    -0.640 OA
ATOM     17  OAC H26 d   1      18.409  11.532  12.388  0.00  0.00    -0.640 OA
ENDBRANCH  11  14
ENDBRANCH   8  11
ENDBRANCH   7   8
ENDBRANCH   4   7
ENDBRANCH   1   4
BRANCH   1  18
ATOM     18  N9  H26 d   1      17.258  14.014  18.699  0.00  0.00    -0.322 N 
ATOM     19  C8  H26 d   1      18.464  14.177  18.133  0.00  0.00     0.068 A 
ATOM     20  N7  H26 d   1      18.936  15.409  18.430  0.00  0.00    -0.235 NA
ATOM     21  H9  H26 d   1      18.982  13.433  17.529  0.00  0.00     0.143 H 
ATOM     22  C5  H26 d   1      18.008  16.021  19.195  0.00  0.00     0.158 A 
ATOM     23  C4  H26 d   1      16.956  15.136  19.367  0.00  0.00     0.165 A 
ATOM     24  C6  H26 d   1      17.944  17.274  19.791  0.00  0.00     0.212 A 
ATOM     25  N3  H26 d   1      15.888  15.513  20.111  0.00  0.00    -0.224 NA
ATOM     26  C2  H26 d   1      15.846  16.729  20.675  0.00  0.00     0.068 A 
ATOM     27  N1  H26 d   1      16.854  17.601  20.525  0.00  0.00    -0.327 N 
ATOM     28  H10 H26 d   1      14.977  17.014  21.266  0.00  0.00     0.143 H 
ATOM     29  H11 H26 d   1      16.800  18.500  20.959  0.00  0.00     0.168 HD
ATOM     30  O6  H26 d   1      18.969  18.162  19.638  0.00  0.00    -0.169 OA
ENDBRANCH   1  18
TORSDOF 6
