REMARK  7 active torsions:
REMARK  status: ('A' for Active; 'I' for Inactive)
REMARK    1  A    between atoms: C2_6  and  N2_19 
REMARK    2  A    between atoms: CAJ_11  and  PAT_8 
REMARK    3  A    between atoms: CAH_12  and  CAJ_11 
REMARK    4  A    between atoms: OAN_13  and  CAH_12 
REMARK    5  A    between atoms: CAG_14  and  OAN_13 
REMARK    6  A    between atoms: CAI_15  and  CAG_14 
REMARK    7  A    between atoms: CAI_15  and  N9_16 
ROOT
ATOM      1  CAI 25H d   1      18.585  58.485   8.305  0.00  0.00     0.022 C 
ATOM      2  H9  25H d   1      19.251  59.360   8.299  0.00  0.00     0.068 H 
ATOM      3  H10 25H d   1      17.898  58.542   7.448  0.00  0.00     0.068 H 
ENDROOT
BRANCH   1   4
ATOM      4  CAG 25H d   1      17.770  58.477   9.609  0.00  0.00     0.035 C 
ATOM      5  H7  25H d   1      17.284  59.457   9.727  0.00  0.00     0.076 H 
ATOM      6  H8  25H d   1      17.002  57.693   9.540  0.00  0.00     0.076 H 
BRANCH   4   7
ATOM      7  OAN 25H d   1      18.585  58.224  10.768  0.00  0.00    -0.389 OA
BRANCH   7   8
ATOM      8  CAH 25H d   1      19.303  59.385  11.185  0.00  0.00     0.031 C 
ATOM      9  H5  25H d   1      20.372  59.266  10.956  0.00  0.00     0.075 H 
ATOM     10  H6  25H d   1      18.913  60.273  10.665  0.00  0.00     0.075 H 
BRANCH   8  11
ATOM     11  CAJ 25H d   1      19.110  59.538  12.683  0.00  0.00     0.059 C 
ATOM     12  H3  25H d   1      18.287  60.241  12.880  0.00  0.00     0.057 H 
ATOM     13  H4  25H d   1      18.872  58.560  13.127  0.00  0.00     0.057 H 
BRANCH  11  14
ATOM     14  PAT 25H d   1      20.643  60.177  13.404  0.00  0.00     0.261 P 
ATOM     15  OAD 25H d   1      21.721  60.045  12.350  0.00  0.00    -0.640 OA
ATOM     16  OAE 25H d   1      20.286  61.622  13.715  0.00  0.00    -0.640 OA
ATOM     17  OAC 25H d   1      20.885  59.307  14.620  0.00  0.00    -0.640 OA
ENDBRANCH  11  14
ENDBRANCH   8  11
ENDBRANCH   7   8
ENDBRANCH   4   7
ENDBRANCH   1   4
BRANCH   1  18
ATOM     18  N9  25H d   1      19.386  57.270   8.199  0.00  0.00    -0.323 N 
ATOM     19  C8  25H d   1      20.645  57.136   8.661  0.00  0.00     0.068 A 
ATOM     20  N7  25H d   1      21.078  55.870   8.405  0.00  0.00    -0.235 NA
ATOM     21  H2  25H d   1      21.223  57.914   9.158  0.00  0.00     0.143 H 
ATOM     22  C5  25H d   1      20.071  55.207   7.779  0.00  0.00     0.157 A 
ATOM     23  C6  25H d   1      19.950  53.905   7.301  0.00  0.00     0.226 A 
ATOM     24  C4  25H d   1      19.000  56.090   7.649  0.00  0.00     0.157 A 
ATOM     25  N1  25H d   1      18.786  53.510   6.710  0.00  0.00    -0.166 N 
ATOM     26  O6  25H d   1      20.969  53.082   7.424  0.00  0.00    -0.169 OA
ATOM     27  C2  25H d   1      17.755  54.390   6.593  0.00  0.00     0.679 A 
ATOM     28  H1  25H d   1      18.691  52.577   6.364  0.00  0.00     0.186 HD
ATOM     29  N3  25H d   1      17.848  55.658   7.058  0.00  0.00    -0.174 N 
ATOM     30  H11 25H d   1      17.047  56.299   6.965  0.00  0.00     0.186 HD
BRANCH  27  31
ATOM     31  N2  25H d   1      16.606  53.997   6.006  0.00  0.00    -0.234 N 
ATOM     32  H12 25H d   1      16.514  53.037   5.645  0.00  0.00     0.174 HD
ATOM     33  H13 25H d   1      15.820  54.657   5.918  0.00  0.00     0.174 HD
ENDBRANCH  27  31
ENDBRANCH   1  18
TORSDOF 7
