REMARK  31 active torsions:
REMARK  status: ('A' for Active; 'I' for Inactive)
REMARK    1  A    between atoms: O_3  and  C_1 
REMARK       I    between atoms: C3_4  and  N_2 
REMARK    2  A    between atoms: N_2  and  C6_6 
REMARK    3  A    between atoms: O_3  and  C3_4 
REMARK    4  A    between atoms: C6_6  and  C7_7 
REMARK    5  A    between atoms: C6_6  and  C60_60 
REMARK       I    between atoms: C7_7  and  N9_9 
REMARK    6  A    between atoms: N9_9  and  C10_10 
REMARK    7  A    between atoms: C10_10  and  C11_11 
REMARK    8  A    between atoms: C10_10  and  C47_47 
REMARK    9  A    between atoms: C11_11  and  C12_12 
REMARK   10  A    between atoms: C12_12  and  O13_13 
REMARK   11  A    between atoms: C12_12  and  C14_14 
REMARK   12  A    between atoms: C14_14  and  C15_15 
REMARK   13  A    between atoms: C14_14  and  N22_22 
REMARK   14  A    between atoms: C15_15  and  C16_16 
REMARK       I    between atoms: N22_22  and  C23_23 
REMARK   15  A    between atoms: C23_23  and  C25_25 
REMARK   16  A    between atoms: C25_25  and  N26_26 
REMARK   17  A    between atoms: C25_25  and  C43_43 
REMARK   18  A    between atoms: N29_29  and  C30_30 
REMARK   19  A    between atoms: C30_30  and  C31_31 
REMARK   20  A    between atoms: C35_35  and  C37_37 
REMARK   21  A    between atoms: C37_37  and  C38_38 
REMARK   22  A    between atoms: C37_37  and  C39_39 
REMARK   23  A    between atoms: C37_37  and  O40_40 
REMARK   24  A    between atoms: C43_43  and  C44_44 
REMARK   25  A    between atoms: C43_43  and  C45_45 
REMARK   26  A    between atoms: C43_43  and  C46_46 
REMARK   27  A    between atoms: C47_47  and  C48_48 
REMARK   28  A    between atoms: C51_51  and  C54_54 
REMARK   29  A    between atoms: C60_60  and  C61_61 
REMARK   30  A    between atoms: C60_60  and  C62_62 
REMARK   31  A    between atoms: C60_60  and  C63_63 
ROOT
ATOM      1  C14 GGV d   1      16.812  -4.465   7.749  0.00  0.00     0.041 C 
ATOM      2  H12 GGV d   1      16.322  -4.923   6.877  0.00  0.00     0.076 H 
ENDROOT
BRANCH   1   3
ATOM      3  C12 GGV d   1      16.586  -2.944   7.618  0.00  0.00     0.057 C 
ATOM      4  H10 GGV d   1      15.521  -2.740   7.806  0.00  0.00     0.086 H 
BRANCH   3   5
ATOM      5  C11 GGV d   1      16.931  -2.473   6.210  0.00  0.00    -0.020 C 
ATOM      6  H8  GGV d   1      18.027  -2.414   6.139  0.00  0.00     0.040 H 
ATOM      7  H9  GGV d   1      16.559  -3.232   5.506  0.00  0.00     0.040 H 
BRANCH   5   8
ATOM      8  C10 GGV d   1      16.371  -1.130   5.774  0.00  0.00     0.018 C 
ATOM      9  H7  GGV d   1      16.995  -0.335   6.210  0.00  0.00     0.073 H 
BRANCH   8  10
ATOM     10  N9  GGV d   1      15.023  -0.910   6.245  0.00  0.00    -0.354 N 
ATOM     11  C7  GGV d   1      13.887  -1.547   5.757  0.00  0.00     0.241 C 
ATOM     12  O8  GGV d   1      13.859  -2.516   5.014  0.00  0.00    -0.271 OA
ATOM     13  H6  GGV d   1      14.896  -0.246   6.982  0.00  0.00     0.162 HD
BRANCH  11  14
ATOM     14  C6  GGV d   1      12.635  -0.868   6.258  0.00  0.00     0.097 C 
ATOM     15  H5  GGV d   1      12.942  -0.068   6.947  0.00  0.00     0.088 H 
BRANCH  14  16
ATOM     16  N   GGV d   1      12.046  -0.258   5.085  0.00  0.00    -0.323 N 
ATOM     17  C3  GGV d   1      11.929   1.109   5.100  0.00  0.00     0.360 C 
ATOM     18  O4  GGV d   1      11.889   1.788   6.123  0.00  0.00    -0.239 OA
ATOM     19  H4  GGV d   1      11.741  -0.804   4.305  0.00  0.00     0.165 HD
BRANCH  17  20
ATOM     20  O   GGV d   1      11.892   1.606   3.830  0.00  0.00    -0.309 OA
BRANCH  20  21
ATOM     21  C   GGV d   1      11.584   2.997   3.820  0.00  0.00     0.015 C 
ATOM     22  H1  GGV d   1      11.563   3.361   2.782  0.00  0.00     0.067 H 
ATOM     23  H2  GGV d   1      12.351   3.546   4.386  0.00  0.00     0.067 H 
ATOM     24  H3  GGV d   1      10.600   3.158   4.285  0.00  0.00     0.067 H 
ENDBRANCH  20  21
ENDBRANCH  17  20
ENDBRANCH  14  16
BRANCH  14  25
ATOM     25  C60 GGV d   1      11.656  -1.745   7.035  0.00  0.00    -0.022 C 
BRANCH  25  26
ATOM     26  C61 GGV d   1      10.845  -2.657   6.159  0.00  0.00    -0.067 C 
ATOM     27  H55 GGV d   1      10.165  -3.256   6.783  0.00  0.00     0.028 H 
ATOM     28  H56 GGV d   1      11.518  -3.327   5.604  0.00  0.00     0.028 H 
ATOM     29  H57 GGV d   1      10.258  -2.057   5.449  0.00  0.00     0.028 H 
ENDBRANCH  25  26
BRANCH  25  30
ATOM     30  C62 GGV d   1      12.383  -2.610   8.036  0.00  0.00    -0.067 C 
ATOM     31  H58 GGV d   1      12.990  -1.974   8.697  0.00  0.00     0.028 H 
ATOM     32  H59 GGV d   1      13.038  -3.316   7.504  0.00  0.00     0.028 H 
ATOM     33  H60 GGV d   1      11.651  -3.170   8.636  0.00  0.00     0.028 H 
ENDBRANCH  25  30
BRANCH  25  34
ATOM     34  C63 GGV d   1      10.682  -0.852   7.762  0.00  0.00    -0.067 C 
ATOM     35  H61 GGV d   1      10.151  -0.220   7.035  0.00  0.00     0.028 H 
ATOM     36  H62 GGV d   1      11.229  -0.214   8.471  0.00  0.00     0.028 H 
ATOM     37  H63 GGV d   1       9.956  -1.471   8.310  0.00  0.00     0.028 H 
ENDBRANCH  25  34
ENDBRANCH  14  25
ENDBRANCH  11  14
ENDBRANCH   8  10
BRANCH   8  38
ATOM     38  C47 GGV d   1      16.524  -1.074   4.258  0.00  0.00    -0.022 C 
ATOM     39  H45 GGV d   1      16.139  -2.023   3.856  0.00  0.00     0.043 H 
ATOM     40  H46 GGV d   1      17.599  -0.993   4.041  0.00  0.00     0.043 H 
BRANCH  38  41
ATOM     41  C48 GGV d   1      15.837   0.034   3.518  0.00  0.00    -0.056 A 
ATOM     42  C49 GGV d   1      15.260  -0.224   2.291  0.00  0.00    -0.076 A 
ATOM     43  C50 GGV d   1      14.628   0.765   1.568  0.00  0.00    -0.070 A 
ATOM     44  H47 GGV d   1      15.305  -1.229   1.886  0.00  0.00     0.084 H 
ATOM     45  C51 GGV d   1      14.547   2.055   2.057  0.00  0.00    -0.007 A 
ATOM     46  H48 GGV d   1      14.190   0.528   0.605  0.00  0.00     0.084 H 
ATOM     47  C52 GGV d   1      15.124   2.295   3.289  0.00  0.00    -0.070 A 
ATOM     48  C53 GGV d   1      15.764   1.313   4.014  0.00  0.00    -0.076 A 
ATOM     49  H49 GGV d   1      15.071   3.296   3.702  0.00  0.00     0.084 H 
ATOM     50  H50 GGV d   1      16.209   1.549   4.974  0.00  0.00     0.084 H 
BRANCH  45  51
ATOM     51  C54 GGV d   1      13.918   3.150   1.305  0.00  0.00     0.066 A 
ATOM     52  C55 GGV d   1      13.994   4.452   1.772  0.00  0.00    -0.054 A 
ATOM     53  C56 GGV d   1      13.418   5.456   1.025  0.00  0.00    -0.079 A 
ATOM     54  H51 GGV d   1      14.496   4.676   2.706  0.00  0.00     0.087 H 
ATOM     55  C57 GGV d   1      12.779   5.141  -0.158  0.00  0.00    -0.066 A 
ATOM     56  H52 GGV d   1      13.466   6.485   1.363  0.00  0.00     0.083 H 
ATOM     57  C58 GGV d   1      12.741   3.825  -0.556  0.00  0.00     0.003 A 
ATOM     58  H53 GGV d   1      12.317   5.915  -0.760  0.00  0.00     0.085 H 
ATOM     59  N59 GGV d   1      13.300   2.832   0.145  0.00  0.00    -0.260 NA
ATOM     60  H54 GGV d   1      12.234   3.581  -1.482  0.00  0.00     0.114 H 
ENDBRANCH  45  51
ENDBRANCH  38  41
ENDBRANCH   8  38
ENDBRANCH   5   8
ENDBRANCH   3   5
BRANCH   3  61
ATOM     61  O13 GGV d   1      17.359  -2.201   8.565  0.00  0.00    -0.393 OA
ATOM     62  H11 GGV d   1      18.284  -2.343   8.398  0.00  0.00     0.210 HD
ENDBRANCH   3  61
ENDBRANCH   1   3
BRANCH   1  63
ATOM     63  C15 GGV d   1      16.140  -5.010   8.984  0.00  0.00    -0.020 C 
ATOM     64  H13 GGV d   1      15.056  -4.850   8.885  0.00  0.00     0.043 H 
ATOM     65  H14 GGV d   1      16.515  -4.452   9.855  0.00  0.00     0.043 H 
BRANCH  63  66
ATOM     66  C16 GGV d   1      16.378  -6.466   9.223  0.00  0.00    -0.056 A 
ATOM     67  C17 GGV d   1      15.678  -7.429   8.532  0.00  0.00    -0.077 A 
ATOM     68  C18 GGV d   1      15.914  -8.766   8.780  0.00  0.00    -0.082 A 
ATOM     69  H15 GGV d   1      14.941  -7.137   7.793  0.00  0.00     0.084 H 
ATOM     70  C19 GGV d   1      16.842  -9.168   9.716  0.00  0.00    -0.083 A 
ATOM     71  H16 GGV d   1      15.358  -9.515   8.227  0.00  0.00     0.083 H 
ATOM     72  C20 GGV d   1      17.533  -8.205  10.411  0.00  0.00    -0.082 A 
ATOM     73  H17 GGV d   1      17.023 -10.221   9.900  0.00  0.00     0.083 H 
ATOM     74  C21 GGV d   1      17.301  -6.867  10.166  0.00  0.00    -0.077 A 
ATOM     75  H18 GGV d   1      18.264  -8.498  11.156  0.00  0.00     0.083 H 
ATOM     76  H19 GGV d   1      17.853  -6.119  10.724  0.00  0.00     0.084 H 
ENDBRANCH  63  66
ENDBRANCH   1  63
BRANCH   1  77
ATOM     77  N22 GGV d   1      18.194  -4.906   7.725  0.00  0.00    -0.352 N 
ATOM     78  C23 GGV d   1      18.642  -5.740   6.717  0.00  0.00     0.242 C 
ATOM     79  O24 GGV d   1      17.944  -6.223   5.833  0.00  0.00    -0.271 OA
ATOM     80  H20 GGV d   1      18.825  -4.606   8.440  0.00  0.00     0.163 HD
BRANCH  78  81
ATOM     81  C25 GGV d   1      20.125  -6.003   6.811  0.00  0.00     0.104 C 
ATOM     82  H21 GGV d   1      20.570  -5.318   7.548  0.00  0.00     0.089 H 
BRANCH  81  83
ATOM     83  N26 GGV d   1      20.208  -7.354   7.360  0.00  0.00    -0.294 N 
ATOM     84  C27 GGV d   1      19.546  -8.463   6.892  0.00  0.00     0.000 A 
ATOM     85  C28 GGV d   1      19.851  -9.498   7.676  0.00  0.00    -0.000 A 
ATOM     86  H22 GGV d   1      18.884  -8.492   6.027  0.00  0.00     0.114 H 
ATOM     87  N29 GGV d   1      20.695  -9.035   8.636  0.00  0.00    -0.303 N 
ATOM     88  H23 GGV d   1      19.492 -10.520   7.568  0.00  0.00     0.114 H 
ATOM     89  C41 GGV d   1      20.945  -7.686   8.473  0.00  0.00     0.329 A 
ATOM     90  O42 GGV d   1      21.647  -6.947   9.148  0.00  0.00    -0.246 OA
BRANCH  87  91
ATOM     91  C30 GGV d   1      21.248  -9.870   9.679  0.00  0.00     0.043 C 
ATOM     92  H24 GGV d   1      21.963  -9.263  10.254  0.00  0.00     0.074 H 
ATOM     93  H25 GGV d   1      21.779 -10.704   9.198  0.00  0.00     0.074 H 
BRANCH  91  94
ATOM     94  C31 GGV d   1      20.253 -10.453  10.647  0.00  0.00     0.053 A 
ATOM     95  C32 GGV d   1      19.982  -9.829  11.851  0.00  0.00    -0.057 A 
ATOM     96  C33 GGV d   1      19.068 -10.388  12.724  0.00  0.00    -0.079 A 
ATOM     97  H26 GGV d   1      20.485  -8.904  12.109  0.00  0.00     0.086 H 
ATOM     98  C34 GGV d   1      18.453 -11.562  12.361  0.00  0.00    -0.056 A 
ATOM     99  H27 GGV d   1      18.842  -9.912  13.671  0.00  0.00     0.083 H 
ATOM    100  C35 GGV d   1      18.774 -12.128  11.143  0.00  0.00     0.068 A 
ATOM    101  H28 GGV d   1      17.731 -12.034  13.017  0.00  0.00     0.086 H 
ATOM    102  N36 GGV d   1      19.658 -11.597  10.289  0.00  0.00    -0.253 NA
BRANCH 100 103
ATOM    103  C37 GGV d   1      18.142 -13.405  10.686  0.00  0.00     0.095 C 
BRANCH 103 104
ATOM    104  C38 GGV d   1      17.530 -13.175   9.323  0.00  0.00    -0.043 C 
ATOM    105  H29 GGV d   1      17.060 -14.105   8.970  0.00  0.00     0.032 H 
ATOM    106  H30 GGV d   1      18.315 -12.870   8.615  0.00  0.00     0.032 H 
ATOM    107  H31 GGV d   1      16.770 -12.383   9.391  0.00  0.00     0.032 H 
ENDBRANCH 103 104
BRANCH 103 108
ATOM    108  C39 GGV d   1      17.123 -13.952  11.667  0.00  0.00    -0.043 C 
ATOM    109  H32 GGV d   1      17.602 -14.107  12.645  0.00  0.00     0.032 H 
ATOM    110  H33 GGV d   1      16.733 -14.911  11.294  0.00  0.00     0.032 H 
ATOM    111  H34 GGV d   1      16.295 -13.236  11.773  0.00  0.00     0.032 H 
ENDBRANCH 103 108
BRANCH 103 112
ATOM    112  O40 GGV d   1      19.146 -14.397  10.549  0.00  0.00    -0.384 OA
ATOM    113  H35 GGV d   1      19.807 -14.095   9.937  0.00  0.00     0.211 HD
ENDBRANCH 103 112
ENDBRANCH 100 103
ENDBRANCH  91  94
ENDBRANCH  87  91
ENDBRANCH  81  83
BRANCH  81 114
ATOM    114  C43 GGV d   1      20.810  -5.700   5.475  0.00  0.00    -0.021 C 
BRANCH 114 115
ATOM    115  C44 GGV d   1      20.294  -4.375   4.947  0.00  0.00    -0.067 C 
ATOM    116  H36 GGV d   1      20.781  -4.148   3.987  0.00  0.00     0.028 H 
ATOM    117  H37 GGV d   1      20.522  -3.578   5.670  0.00  0.00     0.028 H 
ATOM    118  H38 GGV d   1      19.206  -4.437   4.801  0.00  0.00     0.028 H 
ENDBRANCH 114 115
BRANCH 114 119
ATOM    119  C45 GGV d   1      22.300  -5.612   5.683  0.00  0.00    -0.067 C 
ATOM    120  H39 GGV d   1      22.674  -6.573   6.066  0.00  0.00     0.028 H 
ATOM    121  H40 GGV d   1      22.523  -4.816   6.409  0.00  0.00     0.028 H 
ATOM    122  H41 GGV d   1      22.791  -5.383   4.726  0.00  0.00     0.028 H 
ENDBRANCH 114 119
BRANCH 114 123
ATOM    123  C46 GGV d   1      20.616  -6.755   4.412  0.00  0.00    -0.067 C 
ATOM    124  H42 GGV d   1      19.542  -6.875   4.206  0.00  0.00     0.028 H 
ATOM    125  H43 GGV d   1      21.031  -7.711   4.764  0.00  0.00     0.028 H 
ATOM    126  H44 GGV d   1      21.134  -6.448   3.491  0.00  0.00     0.028 H 
ENDBRANCH 114 123
ENDBRANCH  81 114
ENDBRANCH  78  81
ENDBRANCH   1  77
TORSDOF 31
