REMARK WARNING: 32 MAX_TORS EXCEEDED!!!
REMARK  55 active torsions:
REMARK  status: ('A' for Active; 'I' for Inactive)
REMARK    1  A    between atoms: N_1  and  CA_2 
REMARK    2  A    between atoms: CA_2  and  C_3 
REMARK    3  A    between atoms: CA_2  and  CB_5 
REMARK       I    between atoms: C_3  and  N_13 
REMARK    4  A    between atoms: CB_5  and  CG_6 
REMARK    5  A    between atoms: CZ_11  and  OH_12 
REMARK    6  A    between atoms: N_13  and  CA_14 
REMARK    7  A    between atoms: CA_14  and  C_15 
REMARK    8  A    between atoms: CA_14  and  CB_17 
REMARK       I    between atoms: C_15  and  N_21 
REMARK    9  A    between atoms: CB_17  and  CG_18 
REMARK   10  A    between atoms: CG_18  and  CD1_19 
REMARK   11  A    between atoms: CG_18  and  CD2_20 
REMARK   12  A    between atoms: N_21  and  CA_22 
REMARK   13  A    between atoms: CA_22  and  C_23 
REMARK   14  A    between atoms: CA_22  and  CB_25 
REMARK       I    between atoms: C_23  and  N_30 
REMARK   15  A    between atoms: CB_25  and  CG_26 
REMARK   16  A    between atoms: CG_26  and  CD_27 
REMARK   17  A    between atoms: N_30  and  CA_31 
REMARK   18  A    between atoms: CA_31  and  C_32 
REMARK   19  A    between atoms: CA_31  and  CB_34 
REMARK       I    between atoms: C_32  and  N_38 
REMARK   20  A    between atoms: CB_34  and  CG_35 
REMARK   21  A    between atoms: N_38  and  CA_39 
REMARK   22  A    between atoms: CA_39  and  C_40 
REMARK   23  A    between atoms: CA_39  and  CB_42 
REMARK       I    between atoms: C_40  and  N_52 
REMARK   24  A    between atoms: CB_42  and  CG_43 
REMARK   25  A    between atoms: N_52  and  CA_53 
REMARK   26  A    between atoms: CA_53  and  C_54 
REMARK   27  A    between atoms: CA_53  and  CB_56 
REMARK       I    between atoms: C_54  and  N_60 
REMARK   28  A    between atoms: CB_56  and  CG1_57 
REMARK   29  A    between atoms: CB_56  and  CG2_58 
REMARK   30  A    between atoms: CG1_57  and  CD1_59 
REMARK   31  A    between atoms: N_60  and  CA_61 
REMARK   32  A    between atoms: CA_61  and  C_62 
REMARK   33  A    between atoms: CA_61  and  CB_64 
REMARK       I    between atoms: C_62  and  N_69 
REMARK   34  A    between atoms: CB_64  and  CG_65 
REMARK   35  A    between atoms: CG_65  and  CD_66 
REMARK   36  A    between atoms: CD_66  and  CE_67 
REMARK   37  A    between atoms: CE_67  and  NZ_68 
REMARK   38  A    between atoms: N_69  and  CA_70 
REMARK   39  A    between atoms: CA_70  and  C_71 
REMARK   40  A    between atoms: CA_70  and  CB_73 
REMARK       I    between atoms: C_71  and  N_81 
REMARK   41  A    between atoms: CB_73  and  CG_74 
REMARK   42  A    between atoms: CZ_79  and  OH_80 
REMARK   43  A    between atoms: N_81  and  CA_82 
REMARK   44  A    between atoms: CA_82  and  C_83 
REMARK   45  A    between atoms: CA_82  and  CB_85 
REMARK       I    between atoms: C_83  and  N_89 
REMARK   46  A    between atoms: CB_85  and  CG_86 
REMARK       I    between atoms: CG_86  and  ND2_88 
REMARK   47  A    between atoms: N_89  and  CA_90 
REMARK   48  A    between atoms: CA_90  and  C_91 
REMARK   49  A    between atoms: CA_90  and  CB_93 
REMARK       I    between atoms: C_91  and  N_97 
REMARK   50  A    between atoms: CB_93  and  CG_94 
REMARK       I    between atoms: CG_94  and  ND2_96 
REMARK   51  A    between atoms: N_97  and  CA_98 
REMARK   52  A    between atoms: CA_98  and  C_99 
REMARK   53  A    between atoms: CA_98  and  CB_101 
REMARK   54  A    between atoms: CB_101  and  CG_102 
REMARK   55  A    between atoms: CG_102  and  CD_103 
REMARK       I    between atoms: CD_103  and  NE2_105 
ROOT
ATOM      1  CA  ILE d   1      31.171  -6.294  73.903  0.00  0.00     0.092 C 
ATOM      2  H44 ILE d   1      30.232  -5.792  73.627  0.00  0.00     0.088 H 
ENDROOT
BRANCH   1   3
ATOM      3  N   ILE d   1      31.393  -7.388  72.959  0.00  0.00    -0.346 N 
ATOM      4  C   TRP d   1      31.390  -7.153  71.652  0.00  0.00     0.241 C 
ATOM      5  O   TRP d   1      31.271  -6.006  71.170  0.00  0.00    -0.271 OA
ATOM      6  H43 ILE d   1      31.547  -8.316  73.298  0.00  0.00     0.163 HD
BRANCH   4   7
ATOM      7  CA  TRP d   1      31.509  -8.379  70.765  0.00  0.00     0.093 C 
ATOM      8  H34 TRP d   1      31.733  -8.050  69.740  0.00  0.00     0.088 H 
BRANCH   7   9
ATOM      9  N   TRP d   1      32.610  -9.243  71.218  0.00  0.00    -0.346 N 
ATOM     10  C   ASP d   1      33.881  -8.826  71.274  0.00  0.00     0.241 C 
ATOM     11  O   ASP d   1      34.244  -7.704  70.913  0.00  0.00    -0.271 OA
ATOM     12  H33 TRP d   1      32.401 -10.181  71.496  0.00  0.00     0.163 HD
BRANCH  10  13
ATOM     13  CA  ASP d   1      34.902  -9.829  71.800  0.00  0.00     0.098 C 
ATOM     14  H30 ASP d   1      35.831  -9.293  72.045  0.00  0.00     0.088 H 
BRANCH  13  15
ATOM     15  N   ASP d   1      34.418 -10.501  73.026  0.00  0.00    -0.346 N 
ATOM     16  C   GLU d   1      34.180  -9.832  74.159  0.00  0.00     0.241 C 
ATOM     17  O   GLU d   1      34.345  -8.615  74.276  0.00  0.00    -0.271 OA
ATOM     18  H29 ASP d   1      34.264 -11.489  73.007  0.00  0.00     0.163 HD
BRANCH  16  19
ATOM     19  CA  GLU d   1      33.665 -10.651  75.338  0.00  0.00     0.090 C 
ATOM     20  H24 GLU d   1      33.257  -9.968  76.097  0.00  0.00     0.087 H 
BRANCH  19  21
ATOM     21  N   GLU d   1      32.605 -11.525  74.875  0.00  0.00    -0.346 N 
ATOM     22  C   LEU d   1      31.530 -11.034  74.294  0.00  0.00     0.241 C 
ATOM     23  O   LEU d   1      31.358  -9.826  74.120  0.00  0.00    -0.271 OA
ATOM     24  H23 GLU d   1      32.691 -12.514  74.998  0.00  0.00     0.163 HD
BRANCH  22  25
ATOM     25  CA  LEU d   1      30.520 -12.038  73.807  0.00  0.00     0.089 C 
ATOM     26  H13 LEU d   1      29.943 -11.539  73.014  0.00  0.00     0.087 H 
BRANCH  25  27
ATOM     27  N   LEU d   1      31.127 -13.217  73.193  0.00  0.00    -0.346 N 
ATOM     28  C   TYR d   1      31.910 -13.111  72.121  0.00  0.00     0.249 C 
ATOM     29  O   TYR d   1      32.260 -12.036  71.646  0.00  0.00    -0.271 OA
ATOM     30  H12 LEU d   1      30.951 -14.120  73.585  0.00  0.00     0.163 HD
BRANCH  28  31
ATOM     31  CA  TYR d   1      32.376 -14.416  71.482  0.00  0.00     0.179 C 
ATOM     32  H4  TYR d   1      33.044 -14.158  70.647  0.00  0.00     0.099 H 
BRANCH  31  33
ATOM     33  N   TYR d   1      33.158 -15.271  72.412  0.00  0.00    -0.066 N 
ATOM     34  H1  TYR d   1      33.438 -16.115  71.937  0.00  0.00     0.275 HD
ATOM     35  H2  TYR d   1      32.589 -15.507  73.210  0.00  0.00     0.275 HD
ATOM     36  H3  TYR d   1      33.977 -14.771  72.719  0.00  0.00     0.275 HD
ENDBRANCH  31  33
BRANCH  31  37
ATOM     37  CB  TYR d   1      31.156 -15.144  70.895  0.00  0.00    -0.006 C 
ATOM     38  H5  TYR d   1      30.494 -15.479  71.707  0.00  0.00     0.043 H 
ATOM     39  H6  TYR d   1      31.486 -16.014  70.309  0.00  0.00     0.043 H 
BRANCH  37  40
ATOM     40  CG  TYR d   1      30.428 -14.178  70.008  0.00  0.00    -0.056 A 
ATOM     41  CD1 TYR d   1      30.936 -13.848  68.757  0.00  0.00    -0.074 A 
ATOM     42  CE1 TYR d   1      30.331 -12.860  67.975  0.00  0.00    -0.051 A 
ATOM     43  H7  TYR d   1      31.813 -14.364  68.383  0.00  0.00     0.084 H 
ATOM     44  CZ  TYR d   1      29.220 -12.201  68.470  0.00  0.00     0.065 A 
ATOM     45  H9  TYR d   1      30.726 -12.614  66.996  0.00  0.00     0.087 H 
ATOM     46  CE2 TYR d   1      28.726 -12.517  69.711  0.00  0.00    -0.051 A 
ATOM     47  CD2 TYR d   1      29.347 -13.477  70.475  0.00  0.00    -0.074 A 
ATOM     48  H10 TYR d   1      27.846 -12.009  70.089  0.00  0.00     0.087 H 
ATOM     49  H8  TYR d   1      28.972 -13.684  71.471  0.00  0.00     0.084 H 
BRANCH  44  50
ATOM     50  OH  TYR d   1      28.569 -11.228  67.749  0.00  0.00    -0.361 OA
ATOM     51  H11 TYR d   1      29.008 -11.106  66.915  0.00  0.00     0.217 HD
ENDBRANCH  44  50
ENDBRANCH  37  40
ENDBRANCH  31  37
ENDBRANCH  28  31
ENDBRANCH  25  27
BRANCH  25  52
ATOM     52  CB  LEU d   1      29.521 -12.411  74.910  0.00  0.00    -0.035 C 
ATOM     53  H14 LEU d   1      29.476 -11.590  75.641  0.00  0.00     0.037 H 
ATOM     54  H15 LEU d   1      29.869 -13.328  75.409  0.00  0.00     0.037 H 
BRANCH  52  55
ATOM     55  CG  LEU d   1      28.111 -12.655  74.350  0.00  0.00    -0.059 C 
ATOM     56  H16 LEU d   1      28.227 -13.367  73.520  0.00  0.00     0.038 H 
BRANCH  55  57
ATOM     57  CD1 LEU d   1      27.174 -13.302  75.360  0.00  0.00    -0.073 C 
ATOM     58  H17 LEU d   1      26.185 -13.450  74.901  0.00  0.00     0.028 H 
ATOM     59  H18 LEU d   1      27.076 -12.649  76.240  0.00  0.00     0.028 H 
ATOM     60  H19 LEU d   1      27.584 -14.275  75.669  0.00  0.00     0.028 H 
ENDBRANCH  55  57
BRANCH  55  61
ATOM     61  CD2 LEU d   1      27.478 -11.404  73.772  0.00  0.00    -0.073 C 
ATOM     62  H20 LEU d   1      28.166 -10.948  73.045  0.00  0.00     0.028 H 
ATOM     63  H21 LEU d   1      27.274 -10.688  74.582  0.00  0.00     0.028 H 
ATOM     64  H22 LEU d   1      26.536 -11.668  73.270  0.00  0.00     0.028 H 
ENDBRANCH  55  61
ENDBRANCH  52  55
ENDBRANCH  25  52
ENDBRANCH  22  25
ENDBRANCH  19  21
BRANCH  19  65
ATOM     65  CB  GLU d   1      34.806 -11.456  75.970  0.00  0.00    -0.029 C 
ATOM     66  H25 GLU d   1      35.642 -10.772  76.179  0.00  0.00     0.037 H 
ATOM     67  H26 GLU d   1      35.131 -12.224  75.252  0.00  0.00     0.037 H 
BRANCH  65  68
ATOM     68  CG  GLU d   1      34.411 -12.141  77.260  0.00  0.00     0.018 C 
ATOM     69  H27 GLU d   1      33.747 -11.463  77.817  0.00  0.00     0.049 H 
ATOM     70  H28 GLU d   1      35.325 -12.321  77.845  0.00  0.00     0.049 H 
BRANCH  68  71
ATOM     71  CD  GLU d   1      33.688 -13.477  77.087  0.00  0.00     0.172 C 
ATOM     72  OE1 GLU d   1      33.555 -14.033  75.956  0.00  0.00    -0.648 OA
ATOM     73  OE2 GLU d   1      33.257 -13.989  78.134  0.00  0.00    -0.648 OA
ENDBRANCH  68  71
ENDBRANCH  65  68
ENDBRANCH  19  65
ENDBRANCH  16  19
ENDBRANCH  13  15
BRANCH  13  74
ATOM     74  CB  ASP d   1      35.197 -10.849  70.692  0.00  0.00     0.043 C 
ATOM     75  H31 ASP d   1      35.346 -10.304  69.748  0.00  0.00     0.052 H 
ATOM     76  H32 ASP d   1      34.330 -11.519  70.596  0.00  0.00     0.052 H 
BRANCH  74  77
ATOM     77  CG  ASP d   1      36.438 -11.700  70.961  0.00  0.00     0.175 C 
ATOM     78  OD1 ASP d   1      37.233 -11.391  71.878  0.00  0.00    -0.648 OA
ATOM     79  OD2 ASP d   1      36.632 -12.671  70.206  0.00  0.00    -0.648 OA
ENDBRANCH  74  77
ENDBRANCH  13  74
ENDBRANCH  10  13
ENDBRANCH   7   9
BRANCH   7  80
ATOM     80  CB  TRP d   1      30.162  -9.123  70.752  0.00  0.00    -0.012 C 
ATOM     81  H35 TRP d   1      30.026  -9.625  71.721  0.00  0.00     0.044 H 
ATOM     82  H36 TRP d   1      30.181  -9.875  69.949  0.00  0.00     0.044 H 
BRANCH  80  83
ATOM     83  CG  TRP d   1      29.007  -8.202  70.521  0.00  0.00    -0.028 A 
ATOM     84  CD1 TRP d   1      28.193  -7.657  71.463  0.00  0.00    -0.015 A 
ATOM     85  NE1 TRP d   1      27.298  -6.803  70.873  0.00  0.00    -0.365 N 
ATOM     86  H37 TRP d   1      28.244  -7.868  72.530  0.00  0.00     0.112 H 
ATOM     87  CE2 TRP d   1      27.508  -6.786  69.523  0.00  0.00     0.042 A 
ATOM     88  H38 TRP d   1      26.579  -6.258  71.370  0.00  0.00     0.165 HD
ATOM     89  CD2 TRP d   1      28.579  -7.655  69.257  0.00  0.00    -0.002 A 
ATOM     90  CZ2 TRP d   1      26.818  -6.093  68.510  0.00  0.00    -0.056 A 
ATOM     91  CE3 TRP d   1      28.989  -7.837  67.927  0.00  0.00    -0.070 A 
ATOM     92  CZ3 TRP d   1      28.306  -7.134  66.910  0.00  0.00    -0.082 A 
ATOM     93  H39 TRP d   1      29.811  -8.502  67.686  0.00  0.00     0.084 H 
ATOM     94  CH2 TRP d   1      27.240  -6.272  67.222  0.00  0.00    -0.081 A 
ATOM     95  H41 TRP d   1      28.607  -7.261  65.876  0.00  0.00     0.083 H 
ATOM     96  H42 TRP d   1      26.741  -5.737  66.422  0.00  0.00     0.083 H 
ATOM     97  H40 TRP d   1      25.983  -5.442  68.743  0.00  0.00     0.086 H 
ENDBRANCH  80  83
ENDBRANCH   7  80
ENDBRANCH   4   7
ENDBRANCH   1   3
BRANCH   1  98
ATOM     98  C   ILE d   1      32.288  -5.268  73.804  0.00  0.00     0.241 C 
ATOM     99  O   ILE d   1      32.020  -4.052  73.743  0.00  0.00    -0.271 OA
ATOM    100  N   LYS d   1      33.524  -5.748  73.764  0.00  0.00    -0.346 N 
ATOM    101  H54 LYS d   1      33.662  -6.733  73.870  0.00  0.00     0.163 HD
BRANCH 100 102
ATOM    102  CA  LYS d   1      34.695  -4.887  73.570  0.00  0.00     0.089 C 
ATOM    103  H55 LYS d   1      34.758  -4.178  74.408  0.00  0.00     0.087 H 
BRANCH 102 104
ATOM    104  C   LYS d   1      34.528  -4.103  72.280  0.00  0.00     0.241 C 
ATOM    105  O   LYS d   1      34.557  -2.867  72.268  0.00  0.00    -0.271 OA
ATOM    106  N   TYR d   1      34.304  -4.817  71.187  0.00  0.00    -0.346 N 
ATOM    107  H67 TYR d   1      34.283  -5.815  71.249  0.00  0.00     0.163 HD
BRANCH 106 108
ATOM    108  CA  TYR d   1      34.087  -4.174  69.889  0.00  0.00     0.093 C 
ATOM    109  H68 TYR d   1      35.021  -3.671  69.597  0.00  0.00     0.088 H 
BRANCH 108 110
ATOM    110  C   TYR d   1      32.979  -3.113  69.925  0.00  0.00     0.241 C 
ATOM    111  O   TYR d   1      33.180  -1.976  69.488  0.00  0.00    -0.271 OA
ATOM    112  N   ASN d   1      31.819  -3.482  70.455  0.00  0.00    -0.346 N 
ATOM    113  H76 ASN d   1      31.768  -4.373  70.905  0.00  0.00     0.163 HD
BRANCH 112 114
ATOM    114  CA  ASN d   1      30.611  -2.656  70.417  0.00  0.00     0.097 C 
ATOM    115  H77 ASN d   1      30.463  -2.322  69.380  0.00  0.00     0.088 H 
BRANCH 114 116
ATOM    116  C   ASN d   1      30.706  -1.400  71.305  0.00  0.00     0.241 C 
ATOM    117  O   ASN d   1      30.043  -0.382  71.034  0.00  0.00    -0.271 OA
ATOM    118  N   ASN d   1      31.510  -1.482  72.361  0.00  0.00    -0.346 N 
ATOM    119  H82 ASN d   1      31.976  -2.345  72.557  0.00  0.00     0.163 HD
BRANCH 118 120
ATOM    120  CA  ASN d   1      31.726  -0.330  73.244  0.00  0.00     0.097 C 
ATOM    121  H83 ASN d   1      30.750   0.133  73.451  0.00  0.00     0.088 H 
BRANCH 120 122
ATOM    122  C   ASN d   1      32.601   0.698  72.552  0.00  0.00     0.241 C 
ATOM    123  O   ASN d   1      32.363   1.910  72.691  0.00  0.00    -0.271 OA
ATOM    124  N   GLN d   1      33.599   0.214  71.806  0.00  0.00    -0.348 N 
ATOM    125  H88 GLN d   1      33.752  -0.774  71.793  0.00  0.00     0.163 HD
BRANCH 124 126
ATOM    126  CA  GLN d   1      34.481   1.072  71.004  0.00  0.00     0.063 C 
ATOM    127  H89 GLN d   1      34.881   1.872  71.644  0.00  0.00     0.083 H 
BRANCH 126 128
ATOM    128  C   GLN d   1      33.673   1.693  69.866  0.00  0.00     0.109 C 
ATOM    129  O   GLN d   1      34.197   2.477  69.085  0.00  0.00    -0.305 OA
ATOM    130  H90 GLN d   1      32.621   1.436  69.748  0.00  0.00     0.146 H 
ENDBRANCH 126 128
BRANCH 126 131
ATOM    131  CB  GLN d   1      35.655   0.263  70.425  0.00  0.00    -0.032 C 
ATOM    132  H91 GLN d   1      36.255   0.932  69.791  0.00  0.00     0.037 H 
ATOM    133  H92 GLN d   1      35.243  -0.552  69.812  0.00  0.00     0.037 H 
BRANCH 131 134
ATOM    134  CG  GLN d   1      36.579  -0.352  71.486  0.00  0.00     0.011 C 
ATOM    135  H93 GLN d   1      35.955  -0.736  72.307  0.00  0.00     0.047 H 
ATOM    136  H94 GLN d   1      37.241   0.439  71.868  0.00  0.00     0.047 H 
BRANCH 134 137
ATOM    137  CD  GLN d   1      37.448  -1.497  70.969  0.00  0.00     0.215 C 
ATOM    138  OE1 GLN d   1      37.206  -2.031  69.891  0.00  0.00    -0.274 OA
ATOM    139  NE2 GLN d   1      38.459  -1.889  71.753  0.00  0.00    -0.370 N 
ATOM    140  H95 GLN d   1      39.058  -2.635  71.461  0.00  0.00     0.159 HD
ATOM    141  H96 GLN d   1      38.615  -1.436  72.631  0.00  0.00     0.159 HD
ENDBRANCH 134 137
ENDBRANCH 131 134
ENDBRANCH 126 131
ENDBRANCH 124 126
ENDBRANCH 120 122
BRANCH 120 142
ATOM    142  CB  ASN d   1      32.337  -0.768  74.582  0.00  0.00     0.036 C 
ATOM    143  H84 ASN d   1      32.785   0.110  75.070  0.00  0.00     0.051 H 
ATOM    144  H85 ASN d   1      33.118  -1.517  74.385  0.00  0.00     0.051 H 
BRANCH 142 145
ATOM    145  CG  ASN d   1      31.300  -1.377  75.524  0.00  0.00     0.217 C 
ATOM    146  OD1 ASN d   1      30.099  -1.356  75.235  0.00  0.00    -0.274 OA
ATOM    147  ND2 ASN d   1      31.759  -1.907  76.661  0.00  0.00    -0.370 N 
ATOM    148  H86 ASN d   1      31.123  -2.319  77.313  0.00  0.00     0.159 HD
ATOM    149  H87 ASN d   1      32.739  -1.892  76.860  0.00  0.00     0.159 HD
ENDBRANCH 142 145
ENDBRANCH 120 142
ENDBRANCH 118 120
ENDBRANCH 114 116
BRANCH 114 150
ATOM    150  CB  ASN d   1      29.404  -3.508  70.831  0.00  0.00     0.036 C 
ATOM    151  H78 ASN d   1      29.545  -3.830  71.873  0.00  0.00     0.051 H 
ATOM    152  H79 ASN d   1      29.359  -4.391  70.177  0.00  0.00     0.051 H 
BRANCH 150 153
ATOM    153  CG  ASN d   1      28.090  -2.769  70.730  0.00  0.00     0.217 C 
ATOM    154  OD1 ASN d   1      27.655  -2.387  69.650  0.00  0.00    -0.274 OA
ATOM    155  ND2 ASN d   1      27.436  -2.575  71.878  0.00  0.00    -0.370 N 
ATOM    156  H80 ASN d   1      26.560  -2.092  71.879  0.00  0.00     0.159 HD
ATOM    157  H81 ASN d   1      27.822  -2.912  72.737  0.00  0.00     0.159 HD
ENDBRANCH 150 153
ENDBRANCH 114 150
ENDBRANCH 112 114
ENDBRANCH 108 110
BRANCH 108 158
ATOM    158  CB  TYR d   1      33.772  -5.256  68.850  0.00  0.00    -0.014 C 
ATOM    159  H69 TYR d   1      33.142  -6.017  69.334  0.00  0.00     0.043 H 
ATOM    160  H70 TYR d   1      34.723  -5.712  68.537  0.00  0.00     0.043 H 
BRANCH 158 161
ATOM    161  CG  TYR d   1      33.049  -4.774  67.600  0.00  0.00    -0.056 A 
ATOM    162  CD1 TYR d   1      33.682  -3.952  66.677  0.00  0.00    -0.074 A 
ATOM    163  CE1 TYR d   1      33.028  -3.532  65.544  0.00  0.00    -0.051 A 
ATOM    164  H71 TYR d   1      34.705  -3.638  66.853  0.00  0.00     0.084 H 
ATOM    165  CZ  TYR d   1      31.725  -3.926  65.306  0.00  0.00     0.065 A 
ATOM    166  H73 TYR d   1      33.536  -2.889  64.834  0.00  0.00     0.087 H 
ATOM    167  CE2 TYR d   1      31.078  -4.746  66.190  0.00  0.00    -0.051 A 
ATOM    168  CD2 TYR d   1      31.744  -5.162  67.341  0.00  0.00    -0.074 A 
ATOM    169  H74 TYR d   1      30.061  -5.068  65.997  0.00  0.00     0.087 H 
ATOM    170  H72 TYR d   1      31.231  -5.803  68.049  0.00  0.00     0.084 H 
BRANCH 165 171
ATOM    171  OH  TYR d   1      31.061  -3.528  64.181  0.00  0.00    -0.361 OA
ATOM    172  H75 TYR d   1      31.626  -2.967  63.663  0.00  0.00     0.217 HD
ENDBRANCH 165 171
ENDBRANCH 158 161
ENDBRANCH 108 158
ENDBRANCH 106 108
ENDBRANCH 102 104
BRANCH 102 173
ATOM    173  CB  LYS d   1      35.977  -5.725  73.548  0.00  0.00    -0.038 C 
ATOM    174  H56 LYS d   1      36.001  -6.283  72.600  0.00  0.00     0.036 H 
ATOM    175  H57 LYS d   1      35.934  -6.433  74.389  0.00  0.00     0.036 H 
BRANCH 173 176
ATOM    176  CG  LYS d   1      37.301  -4.924  73.665  0.00  0.00    -0.061 C 
ATOM    177  H58 LYS d   1      37.276  -4.320  74.584  0.00  0.00     0.033 H 
ATOM    178  H59 LYS d   1      37.399  -4.261  72.793  0.00  0.00     0.033 H 
BRANCH 176 179
ATOM    179  CD  LYS d   1      38.518  -5.872  73.717  0.00  0.00    -0.043 C 
ATOM    180  H60 LYS d   1      38.278  -6.778  73.141  0.00  0.00     0.035 H 
ATOM    181  H61 LYS d   1      38.703  -6.143  74.767  0.00  0.00     0.035 H 
BRANCH 179 182
ATOM    182  CE  LYS d   1      39.811  -5.253  73.137  0.00  0.00     0.080 C 
ATOM    183  H62 LYS d   1      39.958  -4.253  73.571  0.00  0.00     0.075 H 
ATOM    184  H63 LYS d   1      39.711  -5.167  72.045  0.00  0.00     0.075 H 
BRANCH 182 185
ATOM    185  NZ  LYS d   1      41.007  -6.112  73.458  0.00  0.00    -0.079 N 
ATOM    186  H64 LYS d   1      41.837  -5.691  73.071  0.00  0.00     0.274 HD
ATOM    187  H65 LYS d   1      40.879  -7.029  73.059  0.00  0.00     0.274 HD
ATOM    188  H66 LYS d   1      41.105  -6.191  74.458  0.00  0.00     0.274 HD
ENDBRANCH 182 185
ENDBRANCH 179 182
ENDBRANCH 176 179
ENDBRANCH 173 176
ENDBRANCH 102 173
ENDBRANCH 100 102
ENDBRANCH   1  98
BRANCH   1 189
ATOM    189  CB  ILE d   1      31.006  -6.838  75.327  0.00  0.00    -0.030 C 
ATOM    190  H45 ILE d   1      31.767  -7.612  75.507  0.00  0.00     0.043 H 
BRANCH 189 191
ATOM    191  CG1 ILE d   1      29.622  -7.483  75.446  0.00  0.00    -0.063 C 
ATOM    192  H46 ILE d   1      29.444  -8.084  74.542  0.00  0.00     0.033 H 
ATOM    193  H47 ILE d   1      28.873  -6.680  75.505  0.00  0.00     0.033 H 
BRANCH 191 194
ATOM    194  CD1 ILE d   1      29.453  -8.364  76.630  0.00  0.00    -0.076 C 
ATOM    195  H51 ILE d   1      28.435  -8.781  76.634  0.00  0.00     0.027 H 
ATOM    196  H52 ILE d   1      29.613  -7.779  77.548  0.00  0.00     0.027 H 
ATOM    197  H53 ILE d   1      30.185  -9.184  76.585  0.00  0.00     0.027 H 
ENDBRANCH 191 194
ENDBRANCH 189 191
BRANCH 189 198
ATOM    198  CG2 ILE d   1      31.223  -5.707  76.337  0.00  0.00    -0.071 C 
ATOM    199  H48 ILE d   1      32.230  -5.285  76.204  0.00  0.00     0.028 H 
ATOM    200  H49 ILE d   1      31.124  -6.103  77.358  0.00  0.00     0.028 H 
ATOM    201  H50 ILE d   1      30.471  -4.921  76.174  0.00  0.00     0.028 H 
ENDBRANCH 189 198
ENDBRANCH   1 189
TORSDOF 55
