REMARK WARNING: 32 MAX_TORS EXCEEDED!!!
REMARK  66 active torsions:
REMARK  status: ('A' for Active; 'I' for Inactive)
REMARK    1  A    between atoms: N_1  and  CA_2 
REMARK    2  A    between atoms: CA_2  and  C_3 
REMARK    3  A    between atoms: CA_2  and  CB_5 
REMARK       I    between atoms: C_3  and  N_12 
REMARK    4  A    between atoms: CB_5  and  CG_6 
REMARK    5  A    between atoms: CG_6  and  CD_7 
REMARK    6  A    between atoms: CD_7  and  NE_8 
REMARK       I    between atoms: NE_8  and  CZ_9 
REMARK       I    between atoms: CZ_9  and  NH1_10 
REMARK       I    between atoms: CZ_9  and  NH2_11 
REMARK    7  A    between atoms: N_12  and  CA_13 
REMARK    8  A    between atoms: CA_13  and  C_14 
REMARK    9  A    between atoms: CA_13  and  CB_16 
REMARK       I    between atoms: C_14  and  N_21 
REMARK   10  A    between atoms: CB_16  and  CG_17 
REMARK   11  A    between atoms: CG_17  and  CD_18 
REMARK   12  A    between atoms: CD_18  and  CE_19 
REMARK   13  A    between atoms: CE_19  and  NZ_20 
REMARK   14  A    between atoms: N_21  and  CA_22 
REMARK   15  A    between atoms: CA_22  and  C_23 
REMARK   16  A    between atoms: CA_22  and  CB_25 
REMARK       I    between atoms: C_23  and  N_32 
REMARK   17  A    between atoms: CB_25  and  CG_26 
REMARK   18  A    between atoms: CG_26  and  CD_27 
REMARK   19  A    between atoms: CD_27  and  NE_28 
REMARK       I    between atoms: NE_28  and  CZ_29 
REMARK       I    between atoms: CZ_29  and  NH1_30 
REMARK       I    between atoms: CZ_29  and  NH2_31 
REMARK   20  A    between atoms: N_32  and  CA_33 
REMARK   21  A    between atoms: CA_33  and  C_34 
REMARK   22  A    between atoms: CA_33  and  CB_36 
REMARK       I    between atoms: C_34  and  N_40 
REMARK   23  A    between atoms: CB_36  and  CG1_37 
REMARK   24  A    between atoms: CB_36  and  CG2_38 
REMARK   25  A    between atoms: CG1_37  and  CD1_39 
REMARK   26  A    between atoms: N_40  and  CA_41 
REMARK   27  A    between atoms: CA_41  and  C_42 
REMARK   28  A    between atoms: CA_41  and  CB_44 
REMARK       I    between atoms: C_42  and  N_50 
REMARK   29  A    between atoms: CB_44  and  CG_45 
REMARK   30  A    between atoms: N_50  and  CA_51 
REMARK   31  A    between atoms: CA_51  and  C_52 
REMARK   32  A    between atoms: CA_51  and  CB_54 
REMARK       I    between atoms: C_52  and  N_58 
REMARK   33  A    between atoms: CB_54  and  CG1_55 
REMARK   34  A    between atoms: CB_54  and  CG2_56 
REMARK   35  A    between atoms: CG1_55  and  CD1_57 
REMARK   36  A    between atoms: N_58  and  CA_59 
REMARK   37  A    between atoms: CA_59  and  C_60 
REMARK       I    between atoms: C_60  and  N_62 
REMARK   38  A    between atoms: CA_63  and  C_64 
REMARK       I    between atoms: C_64  and  N_69 
REMARK   39  A    between atoms: N_69  and  CA_70 
REMARK   40  A    between atoms: CA_70  and  C_71 
REMARK       I    between atoms: C_71  and  N_73 
REMARK   41  A    between atoms: N_73  and  CA_74 
REMARK   42  A    between atoms: CA_74  and  C_75 
REMARK   43  A    between atoms: CA_74  and  CB_77 
REMARK       I    between atoms: C_75  and  N_84 
REMARK   44  A    between atoms: CB_77  and  CG_78 
REMARK   45  A    between atoms: CG_78  and  CD_79 
REMARK   46  A    between atoms: CD_79  and  NE_80 
REMARK       I    between atoms: NE_80  and  CZ_81 
REMARK       I    between atoms: CZ_81  and  NH1_82 
REMARK       I    between atoms: CZ_81  and  NH2_83 
REMARK   47  A    between atoms: N_84  and  CA_85 
REMARK   48  A    between atoms: CA_85  and  C_86 
REMARK   49  A    between atoms: CA_85  and  CB_88 
REMARK       I    between atoms: C_86  and  N_89 
REMARK   50  A    between atoms: N_89  and  CA_90 
REMARK   51  A    between atoms: CA_90  and  C_91 
REMARK   52  A    between atoms: CA_90  and  CB_93 
REMARK       I    between atoms: C_91  and  N_100 
REMARK   53  A    between atoms: CB_93  and  CG_94 
REMARK   54  A    between atoms: N_100  and  CA_101 
REMARK   55  A    between atoms: CA_101  and  C_102 
REMARK   56  A    between atoms: CA_101  and  CB_104 
REMARK       I    between atoms: C_102  and  N_112 
REMARK   57  A    between atoms: CB_104  and  CG_105 
REMARK   58  A    between atoms: CZ_110  and  OH_111 
REMARK   59  A    between atoms: N_112  and  CA_113 
REMARK   60  A    between atoms: CA_113  and  C_114 
REMARK   61  A    between atoms: CA_113  and  CB_116 
REMARK       I    between atoms: C_114  and  N_117 
REMARK   62  A    between atoms: N_117  and  CA_118 
REMARK   63  A    between atoms: CA_118  and  C_119 
REMARK   64  A    between atoms: CA_118  and  CB_121 
REMARK   65  A    between atoms: CB_121  and  OG1_122 
REMARK   66  A    between atoms: CB_121  and  CG2_123 
ROOT
ATOM      1  C   ILE d   1      40.549  -4.756  32.018  0.00  0.00     0.241 C 
ATOM      2  O   ILE d   1      39.792  -5.225  32.869  0.00  0.00    -0.271 OA
ATOM      3  N   GLY d   1      40.186  -3.820  31.151  0.00  0.00    -0.351 N 
ATOM      4  H71 GLY d   1      40.855  -3.478  30.491  0.00  0.00     0.163 HD
ENDROOT
BRANCH   3   5
ATOM      5  CA  GLY d   1      38.840  -3.284  31.141  0.00  0.00     0.069 C 
ATOM      6  H72 GLY d   1      38.734  -2.532  31.937  0.00  0.00     0.078 H 
ATOM      7  H73 GLY d   1      38.116  -4.096  31.305  0.00  0.00     0.078 H 
BRANCH   5   8
ATOM      8  C   GLY d   1      38.591  -2.641  29.794  0.00  0.00     0.238 C 
ATOM      9  O   GLY d   1      39.520  -2.506  28.999  0.00  0.00    -0.272 OA
ATOM     10  N   PRO d   1      37.350  -2.238  29.491  0.00  0.00    -0.337 N 
ATOM     11  CA  PRO d   1      37.102  -1.612  28.188  0.00  0.00     0.091 C 
ATOM     12  CD  PRO d   1      36.101  -2.360  30.266  0.00  0.00    -0.001 C 
ATOM     13  CB  PRO d   1      35.632  -1.200  28.280  0.00  0.00    -0.036 C 
ATOM     14  H74 PRO d   1      37.248  -2.341  27.377  0.00  0.00     0.087 H 
ATOM     15  CG  PRO d   1      35.047  -2.225  29.198  0.00  0.00    -0.048 C 
ATOM     16  H75 PRO d   1      35.150  -1.235  27.292  0.00  0.00     0.036 H 
ATOM     17  H76 PRO d   1      35.531  -0.189  28.702  0.00  0.00     0.036 H 
ATOM     18  H77 PRO d   1      34.888  -3.180  28.675  0.00  0.00     0.035 H 
ATOM     19  H78 PRO d   1      34.094  -1.877  29.624  0.00  0.00     0.035 H 
ATOM     20  H79 PRO d   1      36.016  -1.558  31.014  0.00  0.00     0.064 H 
ATOM     21  H80 PRO d   1      36.037  -3.337  30.768  0.00  0.00     0.064 H 
BRANCH  11  22
ATOM     22  C   PRO d   1      38.022  -0.408  27.939  0.00  0.00     0.241 C 
ATOM     23  O   PRO d   1      38.147   0.477  28.794  0.00  0.00    -0.271 OA
ATOM     24  N   GLY d   1      38.671  -0.384  26.778  0.00  0.00    -0.351 N 
ATOM     25  H81 GLY d   1      38.566  -1.142  26.134  0.00  0.00     0.163 HD
BRANCH  24  26
ATOM     26  CA  GLY d   1      39.530   0.736  26.441  0.00  0.00     0.069 C 
ATOM     27  H82 GLY d   1      38.995   1.650  26.738  0.00  0.00     0.078 H 
ATOM     28  H83 GLY d   1      39.657   0.724  25.349  0.00  0.00     0.078 H 
BRANCH  26  29
ATOM     29  C   GLY d   1      40.920   0.823  27.046  0.00  0.00     0.236 C 
ATOM     30  O   GLY d   1      41.699   1.701  26.658  0.00  0.00    -0.272 OA
ATOM     31  N   ARG d   1      41.248  -0.049  27.996  0.00  0.00    -0.346 N 
ATOM     32  H84 ARG d   1      40.582  -0.727  28.308  0.00  0.00     0.163 HD
BRANCH  31  33
ATOM     33  CA  ARG d   1      42.585  -0.011  28.581  0.00  0.00     0.089 C 
ATOM     34  H85 ARG d   1      43.281   0.284  27.782  0.00  0.00     0.087 H 
BRANCH  33  35
ATOM     35  C   ARG d   1      43.046  -1.353  29.116  0.00  0.00     0.241 C 
ATOM     36  O   ARG d   1      42.262  -2.131  29.657  0.00  0.00    -0.271 OA
ATOM     37  N   ALA d   1      44.334  -1.616  28.955  0.00  0.00    -0.346 N 
ATOM     38  H97 ALA d   1      44.914  -0.939  28.503  0.00  0.00     0.163 HD
BRANCH  37  39
ATOM     39  CA  ALA d   1      44.928  -2.856  29.415  0.00  0.00     0.086 C 
ATOM     40  H98 ALA d   1      44.428  -3.190  30.336  0.00  0.00     0.086 H 
BRANCH  39  41
ATOM     41  C   ALA d   1      46.389  -2.582  29.694  0.00  0.00     0.240 C 
ATOM     42  O   ALA d   1      47.074  -1.985  28.870  0.00  0.00    -0.271 OA
ATOM     43  N   PHE d   1      46.867  -3.012  30.856  0.00  0.00    -0.346 N 
ATOM     44 2H10 PHE d   1      46.263  -3.494  31.490  0.00  0.00     0.163 HD
BRANCH  43  45
ATOM     45  CA  PHE d   1      48.262  -2.790  31.219  0.00  0.00     0.093 C 
ATOM     46 3H10 PHE d   1      48.897  -3.120  30.384  0.00  0.00     0.088 H 
BRANCH  45  47
ATOM     47  C   PHE d   1      48.650  -3.577  32.463  0.00  0.00     0.241 C 
ATOM     48  O   PHE d   1      47.788  -4.101  33.167  0.00  0.00    -0.271 OA
ATOM     49  N   TYR d   1      49.947  -3.658  32.738  0.00  0.00    -0.346 N 
ATOM     50 1H11 TYR d   1      50.614  -3.230  32.128  0.00  0.00     0.163 HD
BRANCH  49  51
ATOM     51  CA  TYR d   1      50.398  -4.368  33.924  0.00  0.00     0.093 C 
ATOM     52 2H11 TYR d   1      49.515  -4.558  34.552  0.00  0.00     0.088 H 
BRANCH  51  53
ATOM     53  C   TYR d   1      51.381  -3.540  34.752  0.00  0.00     0.241 C 
ATOM     54  O   TYR d   1      52.533  -3.345  34.367  0.00  0.00    -0.271 OA
ATOM     55  N   ALA d   1      50.899  -3.047  35.892  0.00  0.00    -0.346 N 
ATOM     56 0H12 ALA d   1      49.950  -3.248  36.136  0.00  0.00     0.163 HD
BRANCH  55  57
ATOM     57  CA  ALA d   1      51.696  -2.226  36.801  0.00  0.00     0.086 C 
ATOM     58 1H12 ALA d   1      52.235  -1.478  36.201  0.00  0.00     0.086 H 
BRANCH  57  59
ATOM     59  C   ALA d   1      52.731  -3.050  37.571  0.00  0.00     0.240 C 
ATOM     60  O   ALA d   1      52.431  -4.131  38.079  0.00  0.00    -0.271 OA
ATOM     61  N   THR d   1      53.950  -2.521  37.652  0.00  0.00    -0.346 N 
ATOM     62 5H12 THR d   1      54.118  -1.635  37.220  0.00  0.00     0.163 HD
BRANCH  61  63
ATOM     63  CA  THR d   1      55.055  -3.183  38.348  0.00  0.00     0.087 C 
ATOM     64 6H12 THR d   1      55.242  -4.146  37.850  0.00  0.00     0.087 H 
BRANCH  63  65
ATOM     65  C   THR d   1      54.728  -3.455  39.817  0.00  0.00     0.112 C 
ATOM     66  O   THR d   1      55.146  -4.527  40.305  0.00  0.00    -0.305 OA
ATOM     67 7H12 THR d   1      54.156  -2.745  40.412  0.00  0.00     0.146 H 
ENDBRANCH  63  65
BRANCH  63  68
ATOM     68  CB  THR d   1      56.349  -2.326  38.271  0.00  0.00     0.058 C 
ATOM     69 8H12 THR d   1      56.638  -2.210  37.216  0.00  0.00     0.086 H 
BRANCH  68  70
ATOM     70  OG1 THR d   1      57.407  -2.983  38.980  0.00  0.00    -0.393 OA
ATOM     71 9H12 THR d   1      57.156  -3.094  39.889  0.00  0.00     0.210 HD
ENDBRANCH  68  70
BRANCH  68  72
ATOM     72  CG2 THR d   1      56.117  -0.944  38.878  0.00  0.00    -0.050 C 
ATOM     73 0H13 THR d   1      57.044  -0.355  38.813  0.00  0.00     0.031 H 
ATOM     74 1H13 THR d   1      55.824  -1.051  39.933  0.00  0.00     0.031 H 
ATOM     75 2H13 THR d   1      55.317  -0.430  38.325  0.00  0.00     0.031 H 
ENDBRANCH  68  72
ENDBRANCH  63  68
ENDBRANCH  61  63
ENDBRANCH  57  59
BRANCH  57  76
ATOM     76  CB  ALA d   1      50.774  -1.493  37.779  0.00  0.00    -0.049 C 
ATOM     77 2H12 ALA d   1      51.378  -0.877  38.461  0.00  0.00     0.030 H 
ATOM     78 3H12 ALA d   1      50.199  -2.228  38.361  0.00  0.00     0.030 H 
ATOM     79 4H12 ALA d   1      50.082  -0.848  37.217  0.00  0.00     0.030 H 
ENDBRANCH  57  76
ENDBRANCH  55  57
ENDBRANCH  51  53
BRANCH  51  80
ATOM     80  CB  TYR d   1      51.005  -5.727  33.546  0.00  0.00    -0.014 C 
ATOM     81 3H11 TYR d   1      50.318  -6.221  32.843  0.00  0.00     0.043 H 
ATOM     82 4H11 TYR d   1      51.085  -6.328  34.464  0.00  0.00     0.043 H 
BRANCH  80  83
ATOM     83  CG  TYR d   1      52.369  -5.678  32.903  0.00  0.00    -0.056 A 
ATOM     84  CD1 TYR d   1      52.591  -4.948  31.739  0.00  0.00    -0.074 A 
ATOM     85  CE1 TYR d   1      53.848  -4.927  31.133  0.00  0.00    -0.051 A 
ATOM     86 5H11 TYR d   1      51.776  -4.387  31.297  0.00  0.00     0.084 H 
ATOM     87  CZ  TYR d   1      54.893  -5.644  31.698  0.00  0.00     0.065 A 
ATOM     88 7H11 TYR d   1      54.007  -4.354  30.227  0.00  0.00     0.087 H 
ATOM     89  CE2 TYR d   1      54.695  -6.376  32.858  0.00  0.00    -0.051 A 
ATOM     90  CD2 TYR d   1      53.438  -6.388  33.453  0.00  0.00    -0.074 A 
ATOM     91 8H11 TYR d   1      55.513  -6.935  33.298  0.00  0.00     0.087 H 
ATOM     92 6H11 TYR d   1      53.285  -6.960  34.361  0.00  0.00     0.084 H 
BRANCH  87  93
ATOM     93  OH  TYR d   1      56.134  -5.636  31.104  0.00  0.00    -0.361 OA
ATOM     94 9H11 TYR d   1      56.107  -5.093  30.325  0.00  0.00     0.217 HD
ENDBRANCH  87  93
ENDBRANCH  80  83
ENDBRANCH  51  80
ENDBRANCH  49  51
ENDBRANCH  45  47
BRANCH  45  95
ATOM     95  CB  PHE d   1      48.501  -1.297  31.465  0.00  0.00    -0.014 C 
ATOM     96 4H10 PHE d   1      48.241  -0.749  30.547  0.00  0.00     0.043 H 
ATOM     97 5H10 PHE d   1      49.568  -1.150  31.690  0.00  0.00     0.043 H 
BRANCH  95  98
ATOM     98  CG  PHE d   1      47.694  -0.727  32.601  0.00  0.00    -0.056 A 
ATOM     99  CD1 PHE d   1      47.948  -1.109  33.916  0.00  0.00    -0.077 A 
ATOM    100  CE1 PHE d   1      47.208  -0.580  34.973  0.00  0.00    -0.082 A 
ATOM    101 6H10 PHE d   1      48.733  -1.828  34.121  0.00  0.00     0.084 H 
ATOM    102  CZ  PHE d   1      46.198   0.346  34.717  0.00  0.00    -0.083 A 
ATOM    103 8H10 PHE d   1      47.418  -0.888  35.991  0.00  0.00     0.083 H 
ATOM    104  CE2 PHE d   1      45.934   0.734  33.404  0.00  0.00    -0.082 A 
ATOM    105 0H11 PHE d   1      45.621   0.762  35.535  0.00  0.00     0.083 H 
ATOM    106  CD2 PHE d   1      46.684   0.196  32.355  0.00  0.00    -0.077 A 
ATOM    107 9H10 PHE d   1      45.148   1.452  33.197  0.00  0.00     0.083 H 
ATOM    108 7H10 PHE d   1      46.476   0.502  31.336  0.00  0.00     0.084 H 
ENDBRANCH  95  98
ENDBRANCH  45  95
ENDBRANCH  43  45
ENDBRANCH  39  41
BRANCH  39 109
ATOM    109  CB  ALA d   1      44.788  -3.930  28.351  0.00  0.00    -0.049 C 
ATOM    110  H99 ALA d   1      45.242  -4.865  28.712  0.00  0.00     0.030 H 
ATOM    111 0H10 ALA d   1      45.299  -3.605  27.433  0.00  0.00     0.030 H 
ATOM    112 1H10 ALA d   1      43.722  -4.098  28.138  0.00  0.00     0.030 H 
ENDBRANCH  39 109
ENDBRANCH  37  39
ENDBRANCH  33  35
BRANCH  33 113
ATOM    113  CB  ARG d   1      42.674   1.035  29.696  0.00  0.00    -0.036 C 
ATOM    114  H86 ARG d   1      42.116   1.926  29.372  0.00  0.00     0.036 H 
ATOM    115  H87 ARG d   1      43.734   1.296  29.834  0.00  0.00     0.036 H 
BRANCH 113 116
ATOM    116  CG  ARG d   1      42.120   0.596  31.040  0.00  0.00    -0.048 C 
ATOM    117  H88 ARG d   1      42.452   1.309  31.809  0.00  0.00     0.035 H 
ATOM    118  H89 ARG d   1      42.513  -0.404  31.274  0.00  0.00     0.035 H 
BRANCH 116 119
ATOM    119  CD  ARG d   1      40.614   0.539  31.050  0.00  0.00     0.009 C 
ATOM    120  H90 ARG d   1      40.279  -0.274  30.390  0.00  0.00     0.064 H 
ATOM    121  H91 ARG d   1      40.214   1.496  30.685  0.00  0.00     0.064 H 
BRANCH 119 122
ATOM    122  NE  ARG d   1      40.117   0.296  32.399  0.00  0.00    -0.227 N 
ATOM    123  CZ  ARG d   1      38.832   0.170  32.718  0.00  0.00     0.665 C 
ATOM    124  NH1 ARG d   1      37.893   0.266  31.783  0.00  0.00    -0.235 N 
ATOM    125  NH2 ARG d   1      38.486  -0.059  33.976  0.00  0.00    -0.235 N 
ATOM    126  H93 ARG d   1      36.900   0.167  32.038  0.00  0.00     0.174 HD
ATOM    127  H94 ARG d   1      38.158   0.439  30.803  0.00  0.00     0.174 HD
ATOM    128  H95 ARG d   1      39.211  -0.134  34.704  0.00  0.00     0.174 HD
ATOM    129  H96 ARG d   1      37.492  -0.162  34.226  0.00  0.00     0.174 HD
ATOM    130  H92 ARG d   1      40.809   0.216  33.158  0.00  0.00     0.177 HD
ENDBRANCH 119 122
ENDBRANCH 116 119
ENDBRANCH 113 116
ENDBRANCH  33 113
ENDBRANCH  31  33
ENDBRANCH  26  29
ENDBRANCH  24  26
ENDBRANCH  11  22
ENDBRANCH   5   8
ENDBRANCH   3   5
BRANCH   1 131
ATOM    131  CA  ILE d   1      41.982  -5.237  31.899  0.00  0.00     0.092 C 
ATOM    132  H61 ILE d   1      42.509  -4.618  31.158  0.00  0.00     0.088 H 
BRANCH 131 133
ATOM    133  N   ILE d   1      42.675  -5.115  33.174  0.00  0.00    -0.346 N 
ATOM    134  C   HIS d   1      43.819  -4.450  33.280  0.00  0.00     0.241 C 
ATOM    135  O   HIS d   1      44.359  -3.891  32.327  0.00  0.00    -0.271 OA
ATOM    136  H60 ILE d   1      42.280  -5.542  33.988  0.00  0.00     0.163 HD
BRANCH 134 137
ATOM    137  CA  HIS d   1      44.440  -4.392  34.669  0.00  0.00     0.094 C 
ATOM    138  H54 HIS d   1      43.714  -4.777  35.400  0.00  0.00     0.088 H 
BRANCH 137 139
ATOM    139  N   HIS d   1      45.658  -5.200  34.754  0.00  0.00    -0.346 N 
ATOM    140  C   ILE d   1      45.735  -6.321  35.467  0.00  0.00     0.241 C 
ATOM    141  O   ILE d   1      44.789  -6.786  36.102  0.00  0.00    -0.271 OA
ATOM    142  H53 HIS d   1      46.469  -4.896  34.254  0.00  0.00     0.163 HD
BRANCH 140 143
ATOM    143  CA  ILE d   1      47.091  -7.025  35.454  0.00  0.00     0.092 C 
ATOM    144  H43 ILE d   1      47.748  -6.479  34.760  0.00  0.00     0.088 H 
BRANCH 143 145
ATOM    145  N   ILE d   1      47.742  -7.038  36.764  0.00  0.00    -0.346 N 
ATOM    146  C   ARG d   1      48.864  -6.358  36.977  0.00  0.00     0.241 C 
ATOM    147  O   ARG d   1      49.396  -5.679  36.107  0.00  0.00    -0.271 OA
ATOM    148  H42 ILE d   1      47.337  -7.566  37.510  0.00  0.00     0.163 HD
BRANCH 146 149
ATOM    149  CA  ARG d   1      49.483  -6.443  38.371  0.00  0.00     0.089 C 
ATOM    150  H30 ARG d   1      48.877  -7.121  38.990  0.00  0.00     0.087 H 
BRANCH 149 151
ATOM    151  N   ARG d   1      50.849  -6.956  38.293  0.00  0.00    -0.346 N 
ATOM    152  C   LYS d   1      51.165  -8.185  38.680  0.00  0.00     0.241 C 
ATOM    153  O   LYS d   1      50.333  -8.980  39.113  0.00  0.00    -0.271 OA
ATOM    154  H29 ARG d   1      51.569  -6.361  37.936  0.00  0.00     0.163 HD
BRANCH 152 155
ATOM    155  CA  LYS d   1      52.639  -8.573  38.563  0.00  0.00     0.089 C 
ATOM    156  H17 LYS d   1      53.221  -7.681  38.288  0.00  0.00     0.087 H 
BRANCH 155 157
ATOM    157  N   LYS d   1      53.120  -9.082  39.844  0.00  0.00    -0.346 N 
ATOM    158  C   ARG d   1      53.592  -8.282  40.795  0.00  0.00     0.248 C 
ATOM    159  O   ARG d   1      53.656  -7.057  40.674  0.00  0.00    -0.271 OA
ATOM    160  H16 LYS d   1      53.093 -10.067  40.012  0.00  0.00     0.163 HD
BRANCH 158 161
ATOM    161  CA  ARG d   1      54.054  -8.966  42.080  0.00  0.00     0.176 C 
ATOM    162  H4  ARG d   1      53.620  -9.976  42.114  0.00  0.00     0.099 H 
BRANCH 161 163
ATOM    163  N   ARG d   1      55.541  -9.092  42.126  0.00  0.00    -0.067 N 
ATOM    164  H1  ARG d   1      55.813  -9.546  42.984  0.00  0.00     0.275 HD
ATOM    165  H2  ARG d   1      55.957  -8.175  42.084  0.00  0.00     0.275 HD
ATOM    166  H3  ARG d   1      55.856  -9.640  41.341  0.00  0.00     0.275 HD
ENDBRANCH 161 163
BRANCH 161 167
ATOM    167  CB  ARG d   1      53.548  -8.171  43.289  0.00  0.00    -0.029 C 
ATOM    168  H5  ARG d   1      53.986  -7.163  43.247  0.00  0.00     0.036 H 
ATOM    169  H6  ARG d   1      53.886  -8.680  44.203  0.00  0.00     0.036 H 
BRANCH 167 170
ATOM    170  CG  ARG d   1      52.030  -8.032  43.352  0.00  0.00    -0.047 C 
ATOM    171  H7  ARG d   1      51.582  -9.032  43.443  0.00  0.00     0.035 H 
ATOM    172  H8  ARG d   1      51.675  -7.553  42.428  0.00  0.00     0.035 H 
BRANCH 170 173
ATOM    173  CD  ARG d   1      51.603  -7.187  44.544  0.00  0.00     0.009 C 
ATOM    174  H9  ARG d   1      51.940  -6.153  44.380  0.00  0.00     0.064 H 
ATOM    175  H10 ARG d   1      52.081  -7.589  45.449  0.00  0.00     0.064 H 
BRANCH 173 176
ATOM    176  NE  ARG d   1      50.153  -7.180  44.745  0.00  0.00    -0.227 N 
ATOM    177  CZ  ARG d   1      49.425  -8.262  45.013  0.00  0.00     0.665 C 
ATOM    178  NH1 ARG d   1      50.002  -9.451  45.112  0.00  0.00    -0.235 N 
ATOM    179  NH2 ARG d   1      48.115  -8.158  45.193  0.00  0.00    -0.235 N 
ATOM    180  H12 ARG d   1      49.433 -10.284  45.320  0.00  0.00     0.174 HD
ATOM    181  H13 ARG d   1      51.020  -9.542  44.981  0.00  0.00     0.174 HD
ATOM    182  H14 ARG d   1      47.656  -7.239  45.118  0.00  0.00     0.174 HD
ATOM    183  H15 ARG d   1      47.556  -8.996  45.407  0.00  0.00     0.174 HD
ATOM    184  H11 ARG d   1      49.663  -6.277  44.674  0.00  0.00     0.177 HD
ENDBRANCH 173 176
ENDBRANCH 170 173
ENDBRANCH 167 170
ENDBRANCH 161 167
ENDBRANCH 158 161
ENDBRANCH 155 157
BRANCH 155 185
ATOM    185  CB  LYS d   1      52.829  -9.642  37.486  0.00  0.00    -0.038 C 
ATOM    186  H18 LYS d   1      52.209 -10.511  37.753  0.00  0.00     0.036 H 
ATOM    187  H19 LYS d   1      53.889  -9.936  37.479  0.00  0.00     0.036 H 
BRANCH 185 188
ATOM    188  CG  LYS d   1      52.452  -9.207  36.088  0.00  0.00    -0.061 C 
ATOM    189  H20 LYS d   1      52.997  -8.285  35.837  0.00  0.00     0.033 H 
ATOM    190  H21 LYS d   1      51.370  -9.016  36.048  0.00  0.00     0.033 H 
BRANCH 188 191
ATOM    191  CD  LYS d   1      52.806 -10.288  35.077  0.00  0.00    -0.043 C 
ATOM    192  H22 LYS d   1      52.252 -11.206  35.324  0.00  0.00     0.035 H 
ATOM    193  H23 LYS d   1      53.887 -10.487  35.128  0.00  0.00     0.035 H 
BRANCH 191 194
ATOM    194  CE  LYS d   1      52.447  -9.858  33.663  0.00  0.00     0.080 C 
ATOM    195  H24 LYS d   1      52.955  -8.908  33.441  0.00  0.00     0.075 H 
ATOM    196  H25 LYS d   1      51.358  -9.715  33.601  0.00  0.00     0.075 H 
BRANCH 194 197
ATOM    197  NZ  LYS d   1      52.857 -10.871  32.648  0.00  0.00    -0.079 N 
ATOM    198  H26 LYS d   1      52.601 -10.547  31.728  0.00  0.00     0.274 HD
ATOM    199  H27 LYS d   1      52.392 -11.745  32.838  0.00  0.00     0.274 HD
ATOM    200  H28 LYS d   1      53.855 -11.005  32.691  0.00  0.00     0.274 HD
ENDBRANCH 194 197
ENDBRANCH 191 194
ENDBRANCH 188 191
ENDBRANCH 185 188
ENDBRANCH 155 185
ENDBRANCH 152 155
ENDBRANCH 149 151
BRANCH 149 201
ATOM    201  CB  ARG d   1      49.511  -5.057  39.019  0.00  0.00    -0.036 C 
ATOM    202  H31 ARG d   1      48.475  -4.735  39.200  0.00  0.00     0.036 H 
ATOM    203  H32 ARG d   1      49.997  -4.356  38.325  0.00  0.00     0.036 H 
BRANCH 201 204
ATOM    204  CG  ARG d   1      50.268  -5.029  40.347  0.00  0.00    -0.048 C 
ATOM    205  H33 ARG d   1      51.114  -5.729  40.286  0.00  0.00     0.035 H 
ATOM    206  H34 ARG d   1      49.586  -5.348  41.149  0.00  0.00     0.035 H 
BRANCH 204 207
ATOM    207  CD  ARG d   1      50.805  -3.641  40.684  0.00  0.00     0.009 C 
ATOM    208  H35 ARG d   1      49.977  -2.919  40.642  0.00  0.00     0.064 H 
ATOM    209  H36 ARG d   1      51.570  -3.366  39.943  0.00  0.00     0.064 H 
BRANCH 207 210
ATOM    210  NE  ARG d   1      51.402  -3.599  42.019  0.00  0.00    -0.227 N 
ATOM    211  CZ  ARG d   1      50.704  -3.517  43.150  0.00  0.00     0.665 C 
ATOM    212  NH1 ARG d   1      49.377  -3.459  43.116  0.00  0.00    -0.235 N 
ATOM    213  NH2 ARG d   1      51.331  -3.505  44.319  0.00  0.00    -0.235 N 
ATOM    214  H38 ARG d   1      48.842  -3.396  43.994  0.00  0.00     0.174 HD
ATOM    215  H39 ARG d   1      48.884  -3.477  42.212  0.00  0.00     0.174 HD
ATOM    216  H40 ARG d   1      52.359  -3.550  44.352  0.00  0.00     0.174 HD
ATOM    217  H41 ARG d   1      50.789  -3.451  45.193  0.00  0.00     0.174 HD
ATOM    218  H37 ARG d   1      52.429  -3.635  42.089  0.00  0.00     0.177 HD
ENDBRANCH 207 210
ENDBRANCH 204 207
ENDBRANCH 201 204
ENDBRANCH 149 201
ENDBRANCH 146 149
ENDBRANCH 143 145
BRANCH 143 219
ATOM    219  CB  ILE d   1      46.917  -8.457  34.931  0.00  0.00    -0.030 C 
ATOM    220  H44 ILE d   1      46.305  -9.028  35.645  0.00  0.00     0.043 H 
BRANCH 219 221
ATOM    221  CG1 ILE d   1      48.288  -9.118  34.806  0.00  0.00    -0.063 C 
ATOM    222  H45 ILE d   1      48.869  -8.886  35.711  0.00  0.00     0.033 H 
ATOM    223  H46 ILE d   1      48.797  -8.697  33.926  0.00  0.00     0.033 H 
BRANCH 221 224
ATOM    224  CD1 ILE d   1      48.228 -10.614  34.650  0.00  0.00    -0.076 C 
ATOM    225  H50 ILE d   1      49.249 -11.015  34.567  0.00  0.00     0.027 H 
ATOM    226  H51 ILE d   1      47.660 -10.866  33.742  0.00  0.00     0.027 H 
ATOM    227  H52 ILE d   1      47.731 -11.055  35.527  0.00  0.00     0.027 H 
ENDBRANCH 221 224
ENDBRANCH 219 221
BRANCH 219 228
ATOM    228  CG2 ILE d   1      46.221  -8.445  33.589  0.00  0.00    -0.071 C 
ATOM    229  H47 ILE d   1      45.236  -7.967  33.691  0.00  0.00     0.028 H 
ATOM    230  H48 ILE d   1      46.092  -9.478  33.233  0.00  0.00     0.028 H 
ATOM    231  H49 ILE d   1      46.829  -7.881  32.866  0.00  0.00     0.028 H 
ENDBRANCH 219 228
ENDBRANCH 143 219
ENDBRANCH 140 143
ENDBRANCH 137 139
BRANCH 137 232
ATOM    232  CB  HIS d   1      44.753  -2.932  34.992  0.00  0.00     0.004 C 
ATOM    233  H55 HIS d   1      45.431  -2.544  34.218  0.00  0.00     0.046 H 
ATOM    234  H56 HIS d   1      45.254  -2.894  35.971  0.00  0.00     0.046 H 
BRANCH 232 235
ATOM    235  CG  HIS d   1      43.546  -2.049  35.046  0.00  0.00     0.053 A 
ATOM    236  ND1 HIS d   1      42.974  -1.643  36.232  0.00  0.00    -0.247 NA
ATOM    237  CE1 HIS d   1      41.931  -0.873  35.976  0.00  0.00     0.064 A 
ATOM    238  NE2 HIS d   1      41.805  -0.766  34.666  0.00  0.00    -0.359 N 
ATOM    239  H58 HIS d   1      41.286  -0.406  36.719  0.00  0.00     0.143 H 
ATOM    240  CD2 HIS d   1      42.803  -1.493  34.061  0.00  0.00     0.002 A 
ATOM    241  H59 HIS d   1      41.077  -0.226  34.177  0.00  0.00     0.166 HD
ATOM    242  H57 HIS d   1      42.965  -1.601  32.990  0.00  0.00     0.114 H 
ENDBRANCH 232 235
ENDBRANCH 137 232
ENDBRANCH 134 137
ENDBRANCH 131 133
BRANCH 131 243
ATOM    243  CB  ILE d   1      41.956  -6.702  31.400  0.00  0.00    -0.030 C 
ATOM    244  H62 ILE d   1      41.547  -7.341  32.197  0.00  0.00     0.043 H 
BRANCH 243 245
ATOM    245  CG1 ILE d   1      43.377  -7.168  31.081  0.00  0.00    -0.063 C 
ATOM    246  H63 ILE d   1      44.004  -7.011  31.971  0.00  0.00     0.033 H 
ATOM    247  H64 ILE d   1      43.764  -6.562  30.248  0.00  0.00     0.033 H 
BRANCH 245 248
ATOM    248  CD1 ILE d   1      43.458  -8.627  30.690  0.00  0.00    -0.076 C 
ATOM    249  H68 ILE d   1      44.504  -8.892  30.476  0.00  0.00     0.027 H 
ATOM    250  H69 ILE d   1      42.845  -8.801  29.794  0.00  0.00     0.027 H 
ATOM    251  H70 ILE d   1      43.084  -9.249  31.516  0.00  0.00     0.027 H 
ENDBRANCH 245 248
ENDBRANCH 243 245
BRANCH 243 252
ATOM    252  CG2 ILE d   1      41.054  -6.821  30.168  0.00  0.00    -0.071 C 
ATOM    253  H65 ILE d   1      40.039  -6.481  30.422  0.00  0.00     0.028 H 
ATOM    254  H66 ILE d   1      41.017  -7.870  29.840  0.00  0.00     0.028 H 
ATOM    255  H67 ILE d   1      41.457  -6.197  29.357  0.00  0.00     0.028 H 
ENDBRANCH 243 252
ENDBRANCH 131 243
ENDBRANCH   1 131
TORSDOF 66
