REMARK  6 active torsions:
REMARK  status: ('A' for Active; 'I' for Inactive)
REMARK    1  A    between atoms: N_1  and  CA_2 
REMARK    2  A    between atoms: CA_2  and  C_3 
REMARK    3  A    between atoms: CA_2  and  CB_5 
REMARK    4  A    between atoms: CB_5  and  CG_6 
REMARK    5  A    between atoms: CG_6  and  CD1_7 
REMARK    6  A    between atoms: CG_6  and  CD2_8 
ROOT
ATOM      1  CB  LEU d   1      26.112  30.447  20.332  0.00  0.00    -0.026 C 
ATOM      2  H5  LEU d   1      27.114  29.995  20.291  0.00  0.00     0.037 H 
ATOM      3  H6  LEU d   1      25.397  29.717  20.739  0.00  0.00     0.037 H 
ENDROOT
BRANCH   1   4
ATOM      4  CA  LEU d   1      25.690  30.761  18.907  0.00  0.00     0.182 C 
ATOM      5  H4  LEU d   1      26.467  31.373  18.426  0.00  0.00     0.101 H 
BRANCH   4   6
ATOM      6  N   LEU d   1      24.435  31.517  18.902  0.00  0.00    -0.065 N 
ATOM      7  H1  LEU d   1      24.560  32.379  19.410  0.00  0.00     0.275 HD
ATOM      8  H2  LEU d   1      23.712  30.970  19.342  0.00  0.00     0.275 HD
ATOM      9  H3  LEU d   1      24.170  31.722  17.951  0.00  0.00     0.275 HD
ENDBRANCH   4   6
BRANCH   4  10
ATOM     10  C   LEU d   1      25.560  29.445  18.152  0.00  0.00     0.204 C 
ATOM     11  O   LEU d   1      26.528  28.682  18.010  0.00  0.00    -0.646 OA
ATOM     12  OXT LEU d   1      24.465  29.106  17.697  0.00  0.00    -0.646 OA
ENDBRANCH   4  10
ENDBRANCH   1   4
BRANCH   1  13
ATOM     13  CG  LEU d   1      26.174  31.625  21.302  0.00  0.00    -0.059 C 
ATOM     14  H7  LEU d   1      25.163  32.037  21.436  0.00  0.00     0.038 H 
BRANCH  13  15
ATOM     15  CD1 LEU d   1      26.686  31.125  22.627  0.00  0.00    -0.073 C 
ATOM     16  H8  LEU d   1      26.737  31.962  23.340  0.00  0.00     0.028 H 
ATOM     17  H9  LEU d   1      27.690  30.695  22.494  0.00  0.00     0.028 H 
ATOM     18  H10 LEU d   1      26.005  30.354  23.016  0.00  0.00     0.028 H 
ENDBRANCH  13  15
BRANCH  13  19
ATOM     19  CD2 LEU d   1      27.082  32.721  20.757  0.00  0.00    -0.073 C 
ATOM     20  H11 LEU d   1      26.692  33.073  19.790  0.00  0.00     0.028 H 
ATOM     21  H12 LEU d   1      28.098  32.321  20.619  0.00  0.00     0.028 H 
ATOM     22  H13 LEU d   1      27.111  33.560  21.468  0.00  0.00     0.028 H 
ENDBRANCH  13  19
ENDBRANCH   1  13
TORSDOF 6
