REMARK  19 active torsions:
REMARK  status: ('A' for Active; 'I' for Inactive)
REMARK    1  A    between atoms: C_1  and  CH3_3 
REMARK       I    between atoms: C_1  and  N_4 
REMARK    2  A    between atoms: N_4  and  CA_5 
REMARK    3  A    between atoms: CA_5  and  C_6 
REMARK    4  A    between atoms: CA_5  and  CB_8 
REMARK       I    between atoms: C_6  and  N_18 
REMARK    5  A    between atoms: CB_8  and  CG_9 
REMARK    6  A    between atoms: N_18  and  CA_19 
REMARK    7  A    between atoms: CA_19  and  C_20 
REMARK    8  A    between atoms: CA_19  and  CB_22 
REMARK       I    between atoms: C_20  and  N_27 
REMARK    9  A    between atoms: CB_22  and  CG_23 
REMARK   10  A    between atoms: CG_23  and  CD_24 
REMARK   11  A    between atoms: N_27  and  CA_28 
REMARK   12  A    between atoms: CA_28  and  C_29 
REMARK   13  A    between atoms: CA_28  and  CB_31 
REMARK       I    between atoms: C_29  and  N_37 
REMARK   14  A    between atoms: CB_31  and  CG_32 
REMARK   15  A    between atoms: N_37  and  CA_38 
REMARK   16  A    between atoms: CA_38  and  C_39 
REMARK   17  A    between atoms: CA_38  and  CB_41 
REMARK   18  A    between atoms: C_39  and  O_40 
REMARK   19  A    between atoms: CB_41  and  CG_42 
ROOT
ATOM      1  CA  GLU d   1      40.487  33.430  58.288  0.00  0.00     0.090 C 
ATOM      2  H15 GLU d   1      41.127  32.536  58.321  0.00  0.00     0.087 H 
ENDROOT
BRANCH   1   3
ATOM      3  N   GLU d   1      41.190  34.494  58.994  0.00  0.00    -0.346 N 
ATOM      4  C   TRP d   1      42.486  34.410  59.273  0.00  0.00     0.241 C 
ATOM      5  O   TRP d   1      43.184  33.451  58.946  0.00  0.00    -0.271 OA
ATOM      6  H14 GLU d   1      40.683  35.309  59.276  0.00  0.00     0.163 HD
BRANCH   4   7
ATOM      7  CA  TRP d   1      43.080  35.577  60.048  0.00  0.00     0.093 C 
ATOM      8  H5  TRP d   1      44.169  35.430  60.103  0.00  0.00     0.088 H 
BRANCH   7   9
ATOM      9  N   TRP d   1      42.844  36.885  59.439  0.00  0.00    -0.348 N 
ATOM     10  C   ACE d   1      43.744  37.485  58.663  0.00  0.00     0.214 C 
ATOM     11  O   ACE d   1      44.832  36.986  58.378  0.00  0.00    -0.274 OA
ATOM     12  H4  TRP d   1      41.974  37.346  59.612  0.00  0.00     0.163 HD
BRANCH  10  13
ATOM     13  CH3 ACE d   1      43.358  38.836  58.127  0.00  0.00    -0.003 C 
ATOM     14  H1  ACE d   1      42.356  39.103  58.494  0.00  0.00     0.040 H 
ATOM     15  H2  ACE d   1      43.350  38.806  57.028  0.00  0.00     0.040 H 
ATOM     16  H3  ACE d   1      44.086  39.587  58.468  0.00  0.00     0.040 H 
ENDBRANCH  10  13
ENDBRANCH   7   9
BRANCH   7  17
ATOM     17  CB  TRP d   1      42.504  35.536  61.469  0.00  0.00    -0.012 C 
ATOM     18  H6  TRP d   1      42.574  34.502  61.839  0.00  0.00     0.044 H 
ATOM     19  H7  TRP d   1      41.447  35.838  61.421  0.00  0.00     0.044 H 
BRANCH  17  20
ATOM     20  CG  TRP d   1      43.201  36.428  62.441  0.00  0.00    -0.028 A 
ATOM     21  CD1 TRP d   1      42.827  37.687  62.823  0.00  0.00    -0.015 A 
ATOM     22  NE1 TRP d   1      43.731  38.198  63.724  0.00  0.00    -0.365 N 
ATOM     23  H8  TRP d   1      41.941  38.209  62.465  0.00  0.00     0.112 H 
ATOM     24  CE2 TRP d   1      44.723  37.258  63.942  0.00  0.00     0.042 A 
ATOM     25  H9  TRP d   1      43.679  39.128  64.164  0.00  0.00     0.165 HD
ATOM     26  CD2 TRP d   1      44.408  36.140  63.142  0.00  0.00    -0.002 A 
ATOM     27  CZ2 TRP d   1      45.849  37.320  64.761  0.00  0.00    -0.056 A 
ATOM     28  CE3 TRP d   1      45.272  35.028  63.183  0.00  0.00    -0.070 A 
ATOM     29  CZ3 TRP d   1      46.397  35.080  63.998  0.00  0.00    -0.082 A 
ATOM     30  H10 TRP d   1      45.063  34.146  62.589  0.00  0.00     0.084 H 
ATOM     31  CH2 TRP d   1      46.672  36.218  64.778  0.00  0.00    -0.081 A 
ATOM     32  H12 TRP d   1      47.072  34.232  64.033  0.00  0.00     0.083 H 
ATOM     33  H13 TRP d   1      47.554  36.227  65.408  0.00  0.00     0.083 H 
ATOM     34  H11 TRP d   1      46.067  38.198  65.358  0.00  0.00     0.086 H 
ENDBRANCH  17  20
ENDBRANCH   7  17
ENDBRANCH   4   7
ENDBRANCH   1   3
BRANCH   1  35
ATOM     35  C   GLU d   1      40.186  33.715  56.821  0.00  0.00     0.241 C 
ATOM     36  O   GLU d   1      40.370  34.832  56.341  0.00  0.00    -0.271 OA
ATOM     37  N   HIS d   1      39.720  32.686  56.115  0.00  0.00    -0.346 N 
ATOM     38  H20 HIS d   1      39.601  31.803  56.569  0.00  0.00     0.163 HD
BRANCH  37  39
ATOM     39  CA  HIS d   1      39.376  32.804  54.696  0.00  0.00     0.094 C 
ATOM     40  H21 HIS d   1      39.396  33.870  54.427  0.00  0.00     0.088 H 
BRANCH  39  41
ATOM     41  C   HIS d   1      37.986  32.260  54.399  0.00  0.00     0.241 C 
ATOM     42  O   HIS d   1      37.370  31.606  55.239  0.00  0.00    -0.271 OA
ATOM     43  N   ASP d   1      37.514  32.514  53.180  0.00  0.00    -0.352 N 
ATOM     44  H27 ASP d   1      38.086  33.017  52.532  0.00  0.00     0.163 HD
BRANCH  43  45
ATOM     45  CA  ASP d   1      36.188  32.080  52.764  0.00  0.00     0.041 C 
ATOM     46  H28 ASP d   1      35.723  31.548  53.607  0.00  0.00     0.076 H 
BRANCH  45  47
ATOM     47  C   ASP d   1      36.228  31.140  51.569  0.00  0.00     0.036 C 
ATOM     48  H29 ASP d   1      36.877  30.287  51.818  0.00  0.00     0.077 H 
ATOM     49  H30 ASP d   1      36.650  31.684  50.711  0.00  0.00     0.077 H 
BRANCH  47  50
ATOM     50  O   ASP d   1      34.933  30.634  51.196  0.00  0.00    -0.399 OA
ATOM     51  H31 ASP d   1      35.024  30.056  50.448  0.00  0.00     0.209 HD
ENDBRANCH  47  50
ENDBRANCH  45  47
BRANCH  45  52
ATOM     52  CB  ASP d   1      35.325  33.294  52.408  0.00  0.00     0.036 C 
ATOM     53  H32 ASP d   1      34.565  32.984  51.676  0.00  0.00     0.052 H 
ATOM     54  H33 ASP d   1      35.969  34.067  51.963  0.00  0.00     0.052 H 
BRANCH  52  55
ATOM     55  CG  ASP d   1      34.625  33.881  53.617  0.00  0.00     0.174 C 
ATOM     56  OD1 ASP d   1      34.210  33.095  54.490  0.00  0.00    -0.648 OA
ATOM     57  OD2 ASP d   1      34.497  35.118  53.698  0.00  0.00    -0.648 OA
ENDBRANCH  52  55
ENDBRANCH  45  52
ENDBRANCH  43  45
ENDBRANCH  39  41
BRANCH  39  58
ATOM     58  CB  HIS d   1      40.395  32.063  53.834  0.00  0.00     0.004 C 
ATOM     59  H22 HIS d   1      41.337  32.631  53.843  0.00  0.00     0.046 H 
ATOM     60  H23 HIS d   1      40.008  32.010  52.806  0.00  0.00     0.046 H 
BRANCH  58  61
ATOM     61  CG  HIS d   1      40.677  30.676  54.303  0.00  0.00     0.053 A 
ATOM     62  ND1 HIS d   1      41.615  30.397  55.278  0.00  0.00    -0.247 NA
ATOM     63  CE1 HIS d   1      41.632  29.099  55.513  0.00  0.00     0.064 A 
ATOM     64  NE2 HIS d   1      40.740  28.521  54.729  0.00  0.00    -0.359 N 
ATOM     65  H25 HIS d   1      42.273  28.590  56.232  0.00  0.00     0.143 H 
ATOM     66  CD2 HIS d   1      40.129  29.484  53.964  0.00  0.00     0.002 A 
ATOM     67  H26 HIS d   1      40.536  27.512  54.697  0.00  0.00     0.166 HD
ATOM     68  H24 HIS d   1      39.349  29.320  53.222  0.00  0.00     0.114 H 
ENDBRANCH  58  61
ENDBRANCH  39  58
ENDBRANCH  37  39
ENDBRANCH   1  35
BRANCH   1  69
ATOM     69  CB  GLU d   1      39.187  33.120  59.027  0.00  0.00    -0.029 C 
ATOM     70  H16 GLU d   1      38.653  32.331  58.477  0.00  0.00     0.037 H 
ATOM     71  H17 GLU d   1      38.572  34.032  59.049  0.00  0.00     0.037 H 
BRANCH  69  72
ATOM     72  CG  GLU d   1      39.402  32.648  60.461  0.00  0.00     0.018 C 
ATOM     73  H18 GLU d   1      40.292  33.151  60.867  0.00  0.00     0.049 H 
ATOM     74  H19 GLU d   1      39.567  31.561  60.452  0.00  0.00     0.049 H 
BRANCH  72  75
ATOM     75  CD  GLU d   1      38.217  32.953  61.365  0.00  0.00     0.172 C 
ATOM     76  OE1 GLU d   1      37.086  32.515  61.046  0.00  0.00    -0.648 OA
ATOM     77  OE2 GLU d   1      38.420  33.630  62.399  0.00  0.00    -0.648 OA
ENDBRANCH  72  75
ENDBRANCH  69  72
ENDBRANCH   1  69
TORSDOF 19
