REMARK  18 active torsions:
REMARK  status: ('A' for Active; 'I' for Inactive)
REMARK    1  A    between atoms: C_1  and  CH3_3 
REMARK       I    between atoms: C_1  and  N_4 
REMARK    2  A    between atoms: N_4  and  CA_5 
REMARK    3  A    between atoms: CA_5  and  C_6 
REMARK    4  A    between atoms: CA_5  and  CB_8 
REMARK       I    between atoms: C_6  and  N_12 
REMARK    5  A    between atoms: CB_8  and  CG1_9 
REMARK    6  A    between atoms: CB_8  and  CG2_10 
REMARK    7  A    between atoms: CG1_9  and  CD1_11 
REMARK    8  A    between atoms: N_12  and  CA_13 
REMARK    9  A    between atoms: CA_13  and  C_14 
REMARK   10  A    between atoms: CA_13  and  CB_16 
REMARK       I    between atoms: C_14  and  N_21 
REMARK   11  A    between atoms: CB_16  and  CG_17 
REMARK   12  A    between atoms: CG_17  and  CD_18 
REMARK   13  A    between atoms: CA_22  and  C_23 
REMARK       I    between atoms: C_23  and  N_28 
REMARK   14  A    between atoms: N_28  and  CA_29 
REMARK   15  A    between atoms: CA_29  and  C_30 
REMARK   16  A    between atoms: CA_29  and  CB_32 
REMARK   17  A    between atoms: C_30  and  O_31 
REMARK   18  A    between atoms: CB_32  and  CG_33 
ROOT
ATOM      1  CA  GLU d   1       5.736  33.398  57.956  0.00  0.00     0.090 C 
ATOM      2  H16 GLU d   1       6.421  32.542  58.045  0.00  0.00     0.087 H 
ENDROOT
BRANCH   1   3
ATOM      3  N   GLU d   1       6.448  34.603  58.359  0.00  0.00    -0.346 N 
ATOM      4  C   ILE d   1       7.753  34.602  58.625  0.00  0.00     0.241 C 
ATOM      5  O   ILE d   1       8.448  33.593  58.544  0.00  0.00    -0.271 OA
ATOM      6  H15 GLU d   1       5.940  35.460  58.439  0.00  0.00     0.163 HD
BRANCH   4   7
ATOM      7  CA  ILE d   1       8.356  35.939  59.049  0.00  0.00     0.092 C 
ATOM      8  H5  ILE d   1       7.547  36.585  59.421  0.00  0.00     0.088 H 
BRANCH   7   9
ATOM      9  N   ILE d   1       9.309  35.729  60.129  0.00  0.00    -0.348 N 
ATOM     10  C   ACE d   1       8.897  35.471  61.368  0.00  0.00     0.214 C 
ATOM     11  O   ACE d   1       7.701  35.395  61.676  0.00  0.00    -0.274 OA
ATOM     12  H4  ILE d   1      10.289  35.779  59.937  0.00  0.00     0.163 HD
BRANCH  10  13
ATOM     13  CH3 ACE d   1       9.982  35.272  62.404  0.00  0.00    -0.003 C 
ATOM     14  H1  ACE d   1      10.968  35.380  61.928  0.00  0.00     0.040 H 
ATOM     15  H2  ACE d   1       9.893  34.266  62.839  0.00  0.00     0.040 H 
ATOM     16  H3  ACE d   1       9.874  36.026  63.198  0.00  0.00     0.040 H 
ENDBRANCH  10  13
ENDBRANCH   7   9
BRANCH   7  17
ATOM     17  CB  ILE d   1       9.027  36.650  57.834  0.00  0.00    -0.030 C 
ATOM     18  H6  ILE d   1       9.985  36.156  57.614  0.00  0.00     0.043 H 
BRANCH  17  19
ATOM     19  CG1 ILE d   1       9.279  38.126  58.164  0.00  0.00    -0.063 C 
ATOM     20  H7  ILE d   1       8.340  38.559  58.539  0.00  0.00     0.033 H 
ATOM     21  H8  ILE d   1       9.574  38.639  57.237  0.00  0.00     0.033 H 
BRANCH  19  22
ATOM     22  CD1 ILE d   1      10.357  38.368  59.201  0.00  0.00    -0.076 C 
ATOM     23  H12 ILE d   1      10.466  39.449  59.371  0.00  0.00     0.027 H 
ATOM     24  H13 ILE d   1      11.311  37.955  58.841  0.00  0.00     0.027 H 
ATOM     25  H14 ILE d   1      10.076  37.875  60.144  0.00  0.00     0.027 H 
ENDBRANCH  19  22
ENDBRANCH  17  19
BRANCH  17  26
ATOM     26  CG2 ILE d   1       8.132  36.576  56.610  0.00  0.00    -0.071 C 
ATOM     27  H9  ILE d   1       7.941  35.522  56.359  0.00  0.00     0.028 H 
ATOM     28  H10 ILE d   1       8.629  37.071  55.762  0.00  0.00     0.028 H 
ATOM     29  H11 ILE d   1       7.178  37.081  56.822  0.00  0.00     0.028 H 
ENDBRANCH  17  26
ENDBRANCH   7  17
ENDBRANCH   4   7
ENDBRANCH   1   3
BRANCH   1  30
ATOM     30  C   GLU d   1       5.258  33.486  56.505  0.00  0.00     0.243 C 
ATOM     31  O   GLU d   1       4.784  34.534  56.057  0.00  0.00    -0.271 OA
ATOM     32  N   PRO d   1       5.393  32.385  55.752  0.00  0.00    -0.337 N 
ATOM     33  CA  PRO d   1       4.979  32.310  54.347  0.00  0.00     0.091 C 
ATOM     34  CD  PRO d   1       6.220  31.217  56.107  0.00  0.00    -0.001 C 
ATOM     35  CB  PRO d   1       5.857  31.196  53.796  0.00  0.00    -0.036 C 
ATOM     36  H21 PRO d   1       5.200  33.259  53.837  0.00  0.00     0.087 H 
ATOM     37  CG  PRO d   1       5.950  30.268  54.956  0.00  0.00    -0.048 C 
ATOM     38  H22 PRO d   1       6.849  31.575  53.508  0.00  0.00     0.036 H 
ATOM     39  H23 PRO d   1       5.385  30.707  52.931  0.00  0.00     0.036 H 
ATOM     40  H24 PRO d   1       6.775  29.552  54.828  0.00  0.00     0.035 H 
ATOM     41  H25 PRO d   1       5.008  29.720  55.104  0.00  0.00     0.035 H 
ATOM     42  H26 PRO d   1       5.903  30.781  57.066  0.00  0.00     0.064 H 
ATOM     43  H27 PRO d   1       7.285  31.485  56.161  0.00  0.00     0.064 H 
BRANCH  33  44
ATOM     44  C   PRO d   1       3.495  32.005  54.169  0.00  0.00     0.241 C 
ATOM     45  O   PRO d   1       2.860  31.390  55.027  0.00  0.00    -0.271 OA
ATOM     46  N   ASP d   1       2.959  32.438  53.035  0.00  0.00    -0.352 N 
ATOM     47  H28 ASP d   1       3.542  32.919  52.381  0.00  0.00     0.163 HD
BRANCH  46  48
ATOM     48  CA  ASP d   1       1.546  32.238  52.705  0.00  0.00     0.041 C 
ATOM     49  H29 ASP d   1       1.046  31.779  53.571  0.00  0.00     0.076 H 
BRANCH  48  50
ATOM     50  C   ASP d   1       1.402  31.308  51.499  0.00  0.00     0.036 C 
ATOM     51  H30 ASP d   1       1.770  30.310  51.778  0.00  0.00     0.077 H 
ATOM     52  H31 ASP d   1       2.010  31.706  50.673  0.00  0.00     0.077 H 
BRANCH  50  53
ATOM     53  O   ASP d   1       0.049  31.189  51.055  0.00  0.00    -0.399 OA
ATOM     54  H32 ASP d   1       0.013  30.604  50.308  0.00  0.00     0.209 HD
ENDBRANCH  50  53
ENDBRANCH  48  50
BRANCH  48  55
ATOM     55  CB  ASP d   1       0.864  33.579  52.390  0.00  0.00     0.036 C 
ATOM     56  H33 ASP d   1       0.128  33.419  51.588  0.00  0.00     0.052 H 
ATOM     57  H34 ASP d   1       1.629  34.291  52.048  0.00  0.00     0.052 H 
BRANCH  55  58
ATOM     58  CG  ASP d   1       0.148  34.175  53.598  0.00  0.00     0.174 C 
ATOM     59  OD1 ASP d   1      -0.136  33.430  54.562  0.00  0.00    -0.648 OA
ATOM     60  OD2 ASP d   1      -0.137  35.391  53.582  0.00  0.00    -0.648 OA
ENDBRANCH  55  58
ENDBRANCH  48  55
ENDBRANCH  46  48
ENDBRANCH  33  44
ENDBRANCH   1  30
BRANCH   1  61
ATOM     61  CB  GLU d   1       4.538  33.173  58.888  0.00  0.00    -0.029 C 
ATOM     62  H17 GLU d   1       3.959  32.320  58.504  0.00  0.00     0.037 H 
ATOM     63  H18 GLU d   1       3.913  34.078  58.869  0.00  0.00     0.037 H 
BRANCH  61  64
ATOM     64  CG  GLU d   1       4.912  32.881  60.343  0.00  0.00     0.018 C 
ATOM     65  H19 GLU d   1       5.604  33.663  60.690  0.00  0.00     0.049 H 
ATOM     66  H20 GLU d   1       5.413  31.903  60.386  0.00  0.00     0.049 H 
BRANCH  64  67
ATOM     67  CD  GLU d   1       3.704  32.850  61.281  0.00  0.00     0.172 C 
ATOM     68  OE1 GLU d   1       2.734  32.115  60.986  0.00  0.00    -0.648 OA
ATOM     69  OE2 GLU d   1       3.730  33.555  62.318  0.00  0.00    -0.648 OA
ENDBRANCH  64  67
ENDBRANCH  61  64
ENDBRANCH   1  61
TORSDOF 18
