REMARK  5 active torsions:
REMARK  status: ('A' for Active; 'I' for Inactive)
REMARK    1  A    between atoms: C3_3  and  N1_18 
REMARK    2  A    between atoms: C12_12  and  C4_4 
REMARK    3  A    between atoms: N2_19  and  C11_11 
REMARK    4  A    between atoms: C13_13  and  N5_14 
REMARK    5  A    between atoms: N4_16  and  N3_17 
ROOT
ATOM      1  C1  27A d   1      -0.755   6.806  14.246  0.00  0.00    -0.081 A 
ATOM      2  C2  27A d   1      -0.040   7.999  14.332  0.00  0.00    -0.057 A 
ATOM      3  C3  27A d   1       1.328   8.047  14.644  0.00  0.00     0.042 A 
ATOM      4  C4  27A d   1       2.028   6.723  14.859  0.00  0.00     0.009 A 
ATOM      5  C5  27A d   1       1.242   5.565  14.796  0.00  0.00    -0.069 A 
ATOM      6  C6  27A d   1      -0.121   5.592  14.485  0.00  0.00    -0.082 A 
ATOM      7  H1  27A d   1      -1.809   6.825  13.992  0.00  0.00     0.083 H 
ATOM      8  H2  27A d   1      -0.563   8.931  14.150  0.00  0.00     0.086 H 
ATOM      9  H3  27A d   1       1.710   4.608  14.997  0.00  0.00     0.085 H 
ATOM     10  H4  27A d   1      -0.683   4.667  14.430  0.00  0.00     0.083 H 
ENDROOT
BRANCH   3  11
ATOM     11  N1  27A d   1       1.917   9.339  14.683  0.00  0.00    -0.377 N 
ATOM     12  C7  27A d   1       1.288  10.411  13.917  0.00  0.00     0.018 C 
ATOM     13  C8  27A d   1       1.188  11.655  14.789  0.00  0.00     0.098 C 
ATOM     14  H5  27A d   1       1.895  10.633  13.027  0.00  0.00     0.066 H 
ATOM     15  H6  27A d   1       0.281  10.098  13.605  0.00  0.00     0.066 H 
ATOM     16  N2  27A d   1       2.574  12.009  15.058  0.00  0.00    -0.072 N 
ATOM     17  H7  27A d   1       0.652  11.435  15.724  0.00  0.00     0.078 H 
ATOM     18  H8  27A d   1       0.674  12.467  14.254  0.00  0.00     0.078 H 
ATOM     19  C9  27A d   1       3.642  11.012  14.962  0.00  0.00     0.098 C 
ATOM     20  H20 27A d   1       2.445  11.776  16.030  0.00  0.00     0.279 HD
ATOM     21  C10 27A d   1       3.110   9.661  15.461  0.00  0.00     0.018 C 
ATOM     22  H9  27A d   1       3.965  10.917  13.915  0.00  0.00     0.078 H 
ATOM     23  H10 27A d   1       4.495  11.324  15.582  0.00  0.00     0.078 H 
ATOM     24  H11 27A d   1       2.854   9.730  16.528  0.00  0.00     0.066 H 
ATOM     25  H12 27A d   1       3.873   8.882  15.317  0.00  0.00     0.066 H 
BRANCH  16  26
ATOM     26  C11 27A d   1       2.900  13.379  15.421  0.00  0.00     0.066 C 
ATOM     27  H13 27A d   1       1.980  13.981  15.444  0.00  0.00     0.068 H 
ATOM     28  H14 27A d   1       3.595  13.799  14.679  0.00  0.00     0.068 H 
ATOM     29  H15 27A d   1       3.372  13.393  16.415  0.00  0.00     0.068 H 
ENDBRANCH  16  26
ENDBRANCH   3  11
BRANCH   4  30
ATOM     30  C12 27A d   1       3.450   6.484  15.267  0.00  0.00     0.034 C 
ATOM     31  N3  27A d   1       4.665   6.504  14.855  0.00  0.00    -0.184 NA
ATOM     32  H16 27A d   1       3.454   6.176  16.311  0.00  0.00     0.118 H 
BRANCH  31  33
ATOM     33  N4  27A d   1       5.387   6.788  13.867  0.00  0.00    -0.254 N 
ATOM     34  C13 27A d   1       5.154   7.226  12.637  0.00  0.00     0.185 C 
ATOM     35  S1  27A d   1       6.484   7.465  11.618  0.00  0.00    -0.040 SA
ATOM     36  H19 27A d   1       6.361   6.653  14.050  0.00  0.00     0.191 HD
BRANCH  34  37
ATOM     37  N5  27A d   1       3.926   7.469  12.211  0.00  0.00    -0.375 N 
ATOM     38  H17 27A d   1       3.147   7.324  12.821  0.00  0.00     0.158 HD
ATOM     39  H18 27A d   1       3.776   7.797  11.278  0.00  0.00     0.158 HD
ENDBRANCH  34  37
ENDBRANCH  31  33
ENDBRANCH   4  30
TORSDOF 5
