REMARK  12 active torsions:
REMARK  status: ('A' for Active; 'I' for Inactive)
REMARK    1  A    between atoms: S1_16  and  C4_3 
REMARK    2  A    between atoms: C10_9  and  C13_10 
REMARK    3  A    between atoms: C7_11  and  C10_9 
REMARK    4  A    between atoms: C7_11  and  C9_12 
REMARK    5  A    between atoms: C7_11  and  S1_16 
REMARK    6  A    between atoms: C9_12  and  O5_13 
REMARK    7  A    between atoms: O5_13  and  C15_14 
REMARK    8  A    between atoms: C15_14  and  C19_15 
REMARK    9  A    between atoms: C3_22  and  C8_24 
REMARK   10  A    between atoms: C8_24  and  O4_26 
REMARK   11  A    between atoms: O4_26  and  C14_27 
REMARK   12  A    between atoms: C14_27  and  C18_28 
ROOT
ATOM      1  N1  53A d   1       3.029 -13.526  14.882  0.00  0.00    -0.217 N 
ATOM      2  N3  53A d   1       3.942 -14.577  15.039  0.00  0.00     0.012 NA
ATOM      3  C4  53A d   1       0.825 -11.773  14.654  0.00  0.00     0.109 A 
ATOM      4  C5  53A d   1       2.210 -11.237  14.458  0.00  0.00     0.028 A 
ATOM      5  C6  53A d   1       3.345 -12.195  14.589  0.00  0.00     0.070 A 
ATOM      6  N4  53A d   1       3.145 -15.720  15.308  0.00  0.00    -0.149 NA
ATOM      7  N2  53A d   1       0.678 -13.087  14.936  0.00  0.00    -0.219 NA
ATOM      8  C11 53A d   1       2.482  -9.900  14.171  0.00  0.00    -0.068 A 
ATOM      9  C16 53A d   1       3.809  -9.483  14.008  0.00  0.00    -0.082 A 
ATOM     10  C17 53A d   1       4.872 -10.383  14.130  0.00  0.00    -0.081 A 
ATOM     11  C12 53A d   1       4.653 -11.735  14.417  0.00  0.00    -0.054 A 
ATOM     12  C3  53A d   1       1.843 -15.343  15.313  0.00  0.00     0.197 A 
ATOM     13  C1  53A d   1       1.765 -13.893  15.032  0.00  0.00     0.185 A 
ATOM     14  H10 53A d   1       1.671  -9.187  14.075  0.00  0.00     0.085 H 
ATOM     15  H11 53A d   1       4.016  -8.443  13.783  0.00  0.00     0.083 H 
ATOM     16  H12 53A d   1       5.887 -10.026  13.999  0.00  0.00     0.083 H 
ATOM     17  H13 53A d   1       5.490 -12.418  14.505  0.00  0.00     0.087 H 
ENDROOT
BRANCH   3  18
ATOM     18  S1  53A d   1      -0.564 -10.798  14.540  0.00  0.00    -0.086 SA
BRANCH  18  19
ATOM     19  C7  53A d   1      -1.881 -11.649  13.708  0.00  0.00     0.137 C 
ATOM     20  H4  53A d   1      -1.702 -11.578  12.625  0.00  0.00     0.085 H 
BRANCH  19  21
ATOM     21  C10 53A d   1      -3.213 -11.001  14.003  0.00  0.00     0.146 C 
ATOM     22  O3  53A d   1      -4.237 -11.653  13.844  0.00  0.00    -0.297 OA
BRANCH  21  23
ATOM     23  C13 53A d   1      -3.290  -9.569  14.462  0.00  0.00    -0.019 C 
ATOM     24  H1  53A d   1      -2.274  -9.156  14.546  0.00  0.00     0.037 H 
ATOM     25  H2  53A d   1      -3.786  -9.524  15.443  0.00  0.00     0.037 H 
ATOM     26  H3  53A d   1      -3.866  -8.981  13.733  0.00  0.00     0.037 H 
ENDBRANCH  21  23
ENDBRANCH  19  21
BRANCH  19  27
ATOM     27  C9  53A d   1      -1.893 -13.106  14.083  0.00  0.00     0.280 C 
ATOM     28  O2  53A d   1      -1.631 -13.960  13.247  0.00  0.00    -0.263 OA
BRANCH  27  29
ATOM     29  O5  53A d   1      -2.194 -13.505  15.456  0.00  0.00    -0.321 OA
BRANCH  29  30
ATOM     30  C15 53A d   1      -3.428 -14.134  15.816  0.00  0.00     0.025 C 
ATOM     31  H5  53A d   1      -3.276 -15.221  15.885  0.00  0.00     0.074 H 
ATOM     32  H6  53A d   1      -4.185 -13.918  15.048  0.00  0.00     0.074 H 
BRANCH  30  33
ATOM     33  C19 53A d   1      -3.907 -13.610  17.152  0.00  0.00    -0.056 C 
ATOM     34  H7  53A d   1      -4.855 -14.099  17.419  0.00  0.00     0.030 H 
ATOM     35  H8  53A d   1      -4.061 -12.523  17.085  0.00  0.00     0.030 H 
ATOM     36  H9  53A d   1      -3.153 -13.827  17.923  0.00  0.00     0.030 H 
ENDBRANCH  30  33
ENDBRANCH  29  30
ENDBRANCH  27  29
ENDBRANCH  19  27
ENDBRANCH  18  19
ENDBRANCH   3  18
BRANCH  12  37
ATOM     37  C8  53A d   1       0.561 -16.061  15.539  0.00  0.00     0.317 C 
ATOM     38  O1  53A d   1      -0.332 -15.516  16.153  0.00  0.00    -0.257 OA
BRANCH  37  39
ATOM     39  O4  53A d   1       0.371 -17.424  15.045  0.00  0.00    -0.317 OA
BRANCH  39  40
ATOM     40  C14 53A d   1      -0.891 -18.106  15.143  0.00  0.00     0.026 C 
ATOM     41  H14 53A d   1      -1.069 -18.370  16.196  0.00  0.00     0.074 H 
ATOM     42  H15 53A d   1      -0.845 -19.023  14.538  0.00  0.00     0.074 H 
BRANCH  40  43
ATOM     43  C18 53A d   1      -2.048 -17.256  14.651  0.00  0.00    -0.056 C 
ATOM     44  H16 53A d   1      -2.986 -17.822  14.747  0.00  0.00     0.030 H 
ATOM     45  H17 53A d   1      -1.886 -16.992  13.596  0.00  0.00     0.030 H 
ATOM     46  H18 53A d   1      -2.111 -16.338  15.254  0.00  0.00     0.030 H 
ENDBRANCH  40  43
ENDBRANCH  39  40
ENDBRANCH  37  39
ENDBRANCH  12  37
TORSDOF 12
