REMARK WARNING: 32 MAX_TORS EXCEEDED!!!
REMARK  43 active torsions:
REMARK  status: ('A' for Active; 'I' for Inactive)
REMARK    1  A    between atoms: N_1  and  CA_2 
REMARK    2  A    between atoms: CA_2  and  C_3 
REMARK    3  A    between atoms: CA_2  and  CB_5 
REMARK       I    between atoms: C_3  and  N_6 
REMARK    4  A    between atoms: N_6  and  CA_7 
REMARK    5  A    between atoms: CA_7  and  C_8 
REMARK    6  A    between atoms: CA_7  and  CB_10 
REMARK       I    between atoms: C_8  and  N_17 
REMARK    7  A    between atoms: CB_10  and  CG_11 
REMARK    8  A    between atoms: CG_11  and  CD_12 
REMARK    9  A    between atoms: CD_12  and  NE_13 
REMARK       I    between atoms: NE_13  and  CZ_14 
REMARK       I    between atoms: CZ_14  and  NH1_15 
REMARK       I    between atoms: CZ_14  and  NH2_16 
REMARK   10  A    between atoms: N_17  and  CA_18 
REMARK   11  A    between atoms: CA_18  and  C_19 
REMARK   12  A    between atoms: CA_18  and  CB_21 
REMARK       I    between atoms: C_19  and  N_24 
REMARK   13  A    between atoms: CB_21  and  OG1_22 
REMARK   14  A    between atoms: CB_21  and  CG2_23 
REMARK   15  A    between atoms: N_24  and  CA_25 
REMARK   16  A    between atoms: CA_25  and  CB_26 
REMARK   17  A    between atoms: CA_25  and  C_31 
REMARK   18  A    between atoms: CB_26  and  CG_27 
REMARK   19  A    between atoms: CG_27  and  CD_28 
REMARK   20  A    between atoms: CD_28  and  CE_29 
REMARK   21  A    between atoms: CE_29  and  NZ_30 
REMARK   22  A    between atoms: NZ_30  and  CM1_33 
REMARK   23  A    between atoms: NZ_30  and  CM2_34 
REMARK   24  A    between atoms: NZ_30  and  CM3_35 
REMARK       I    between atoms: C_31  and  N_36 
REMARK   25  A    between atoms: N_36  and  CA_37 
REMARK   26  A    between atoms: CA_37  and  C_38 
REMARK   27  A    between atoms: CA_37  and  CB_40 
REMARK       I    between atoms: C_38  and  N_45 
REMARK   28  A    between atoms: CB_40  and  CG_41 
REMARK   29  A    between atoms: CG_41  and  CD_42 
REMARK       I    between atoms: CD_42  and  NE2_44 
REMARK   30  A    between atoms: N_45  and  CA_46 
REMARK   31  A    between atoms: CA_46  and  C_47 
REMARK   32  A    between atoms: CA_46  and  CB_49 
REMARK       I    between atoms: C_47  and  N_52 
REMARK   33  A    between atoms: CB_49  and  OG1_50 
REMARK   34  A    between atoms: CB_49  and  CG2_51 
REMARK   35  A    between atoms: N_52  and  CA_53 
REMARK   36  A    between atoms: CA_53  and  C_54 
REMARK   37  A    between atoms: CA_53  and  CB_56 
REMARK       I    between atoms: C_54  and  N_57 
REMARK   38  A    between atoms: N_57  and  CA_58 
REMARK   39  A    between atoms: CA_58  and  C_59 
REMARK   40  A    between atoms: CA_58  and  CB_61 
REMARK   41  A    between atoms: CB_61  and  CG_62 
REMARK   42  A    between atoms: CG_62  and  CD_63 
REMARK   43  A    between atoms: CD_63  and  NE_64 
REMARK       I    between atoms: NE_64  and  CZ_65 
REMARK       I    between atoms: CZ_65  and  NH1_66 
ROOT
ATOM      1  CA  M3L d   1     -10.502 -22.621   1.043  0.00  0.00     0.089 C 
ATOM      2  H29 M3L d   1      -9.729 -23.317   1.402  0.00  0.00     0.087 H 
ENDROOT
BRANCH   1   3
ATOM      3  N   M3L d   1     -10.486 -22.593  -0.410  0.00  0.00    -0.346 N 
ATOM      4  C   THR d   1      -9.352 -22.534  -1.094  0.00  0.00     0.243 C 
ATOM      5  O   THR d   1      -8.247 -22.468  -0.559  0.00  0.00    -0.271 OA
ATOM      6  H28 M3L d   1     -11.353 -22.619  -0.907  0.00  0.00     0.163 HD
BRANCH   4   7
ATOM      7  CA  THR d   1      -9.493 -22.546  -2.609  0.00  0.00     0.113 C 
ATOM      8  H22 THR d   1     -10.242 -21.798  -2.908  0.00  0.00     0.091 H 
BRANCH   7   9
ATOM      9  N   THR d   1      -8.233 -22.220  -3.260  0.00  0.00    -0.344 N 
ATOM     10  C   ARG d   1      -8.172 -21.334  -4.248  0.00  0.00     0.241 C 
ATOM     11  O   ARG d   1      -9.161 -20.742  -4.678  0.00  0.00    -0.271 OA
ATOM     12  H21 THR d   1      -7.394 -22.673  -2.957  0.00  0.00     0.163 HD
BRANCH  10  13
ATOM     13  CA  ARG d   1      -6.794 -21.092  -4.855  0.00  0.00     0.089 C 
ATOM     14  H9  ARG d   1      -6.093 -21.853  -4.483  0.00  0.00     0.087 H 
BRANCH  13  15
ATOM     15  N   ARG d   1      -6.908 -21.203  -6.302  0.00  0.00    -0.346 N 
ATOM     16  C   ALA d   1      -7.098 -22.381  -6.888  0.00  0.00     0.248 C 
ATOM     17  O   ALA d   1      -7.163 -23.435  -6.259  0.00  0.00    -0.271 OA
ATOM     18  H8  ARG d   1      -6.842 -20.379  -6.865  0.00  0.00     0.163 HD
BRANCH  16  19
ATOM     19  CA  ALA d   1      -7.229 -22.373  -8.408  0.00  0.00     0.172 C 
ATOM     20  H4  ALA d   1      -6.420 -21.761  -8.833  0.00  0.00     0.098 H 
BRANCH  19  21
ATOM     21  N   ALA d   1      -7.119 -23.761  -8.940  0.00  0.00    -0.067 N 
ATOM     22  H1  ALA d   1      -7.207 -23.744  -9.944  0.00  0.00     0.275 HD
ATOM     23  H2  ALA d   1      -7.853 -24.330  -8.548  0.00  0.00     0.275 HD
ATOM     24  H3  ALA d   1      -6.223 -24.148  -8.688  0.00  0.00     0.275 HD
ENDBRANCH  19  21
BRANCH  19  25
ATOM     25  CB  ALA d   1      -8.577 -21.773  -8.815  0.00  0.00    -0.042 C 
ATOM     26  H5  ALA d   1      -8.656 -20.749  -8.421  0.00  0.00     0.030 H 
ATOM     27  H6  ALA d   1      -9.391 -22.388  -8.404  0.00  0.00     0.030 H 
ATOM     28  H7  ALA d   1      -8.652 -21.751  -9.912  0.00  0.00     0.030 H 
ENDBRANCH  19  25
ENDBRANCH  16  19
ENDBRANCH  13  15
BRANCH  13  29
ATOM     29  CB  ARG d   1      -6.271 -19.704  -4.474  0.00  0.00    -0.036 C 
ATOM     30  H10 ARG d   1      -6.301 -19.608  -3.379  0.00  0.00     0.036 H 
ATOM     31  H11 ARG d   1      -6.928 -18.947  -4.927  0.00  0.00     0.036 H 
BRANCH  29  32
ATOM     32  CG  ARG d   1      -4.838 -19.450  -4.946  0.00  0.00    -0.048 C 
ATOM     33  H12 ARG d   1      -4.738 -19.802  -5.983  0.00  0.00     0.035 H 
ATOM     34  H13 ARG d   1      -4.147 -20.012  -4.300  0.00  0.00     0.035 H 
BRANCH  32  35
ATOM     35  CD  ARG d   1      -4.471 -17.973  -4.891  0.00  0.00     0.009 C 
ATOM     36  H14 ARG d   1      -3.414 -17.858  -5.174  0.00  0.00     0.064 H 
ATOM     37  H15 ARG d   1      -4.617 -17.608  -3.864  0.00  0.00     0.064 H 
BRANCH  35  38
ATOM     38  NE  ARG d   1      -5.292 -17.173  -5.798  0.00  0.00    -0.227 N 
ATOM     39  CZ  ARG d   1      -5.151 -15.863  -5.977  0.00  0.00     0.665 C 
ATOM     40  NH1 ARG d   1      -4.215 -15.196  -5.313  0.00  0.00    -0.235 N 
ATOM     41  NH2 ARG d   1      -5.947 -15.217  -6.818  0.00  0.00    -0.235 N 
ATOM     42  H17 ARG d   1      -4.108 -14.181  -5.454  0.00  0.00     0.174 HD
ATOM     43  H18 ARG d   1      -3.596 -15.693  -4.657  0.00  0.00     0.174 HD
ATOM     44  H19 ARG d   1      -6.675 -15.730  -7.335  0.00  0.00     0.174 HD
ATOM     45  H20 ARG d   1      -5.838 -14.202  -6.954  0.00  0.00     0.174 HD
ATOM     46  H16 ARG d   1      -6.028 -17.656  -6.333  0.00  0.00     0.177 HD
ENDBRANCH  35  38
ENDBRANCH  32  35
ENDBRANCH  29  32
ENDBRANCH  13  29
ENDBRANCH  10  13
ENDBRANCH   7   9
BRANCH   7  47
ATOM     47  CB  THR d   1      -9.988 -23.947  -3.015  0.00  0.00     0.060 C 
ATOM     48  H23 THR d   1     -10.972 -24.127  -2.558  0.00  0.00     0.086 H 
BRANCH  47  49
ATOM     49  OG1 THR d   1      -9.059 -24.934  -2.549  0.00  0.00    -0.393 OA
ATOM     50  H24 THR d   1      -9.364 -25.798  -2.800  0.00  0.00     0.210 HD
ENDBRANCH  47  49
BRANCH  47  51
ATOM     51  CG2 THR d   1     -10.114 -24.054  -4.531  0.00  0.00    -0.050 C 
ATOM     52  H25 THR d   1     -10.468 -25.060  -4.799  0.00  0.00     0.031 H 
ATOM     53  H26 THR d   1      -9.132 -23.875  -4.994  0.00  0.00     0.031 H 
ATOM     54  H27 THR d   1     -10.832 -23.304  -4.893  0.00  0.00     0.031 H 
ENDBRANCH  47  51
ENDBRANCH   7  47
ENDBRANCH   4   7
ENDBRANCH   1   3
BRANCH   1  55
ATOM     55  CB  M3L d   1     -10.233 -21.229   1.628  0.00  0.00    -0.038 C 
ATOM     56  H30 M3L d   1      -9.306 -20.842   1.179  0.00  0.00     0.036 H 
ATOM     57  H31 M3L d   1     -10.098 -21.334   2.715  0.00  0.00     0.036 H 
BRANCH  55  58
ATOM     58  CG  M3L d   1     -11.341 -20.208   1.384  0.00  0.00    -0.061 C 
ATOM     59  H32 M3L d   1     -12.304 -20.648   1.683  0.00  0.00     0.033 H 
ATOM     60  H33 M3L d   1     -11.368 -19.960   0.313  0.00  0.00     0.033 H 
BRANCH  58  61
ATOM     61  CD  M3L d   1     -11.111 -18.926   2.185  0.00  0.00    -0.042 C 
ATOM     62  H34 M3L d   1     -10.111 -18.532   1.950  0.00  0.00     0.035 H 
ATOM     63  H35 M3L d   1     -11.170 -19.159   3.258  0.00  0.00     0.035 H 
BRANCH  61  64
ATOM     64  CE  M3L d   1     -12.156 -17.863   1.849  0.00  0.00     0.084 C 
ATOM     65  H36 M3L d   1     -13.152 -18.278   2.061  0.00  0.00     0.076 H 
ATOM     66  H37 M3L d   1     -12.078 -17.628   0.777  0.00  0.00     0.076 H 
BRANCH  64  67
ATOM     67  NZ  M3L d   1     -12.003 -16.602   2.616  0.00  0.00    -0.079 N 
BRANCH  67  68
ATOM     68  CM1 M3L d   1     -13.012 -15.641   2.144  0.00  0.00     0.067 C 
ATOM     69  H38 M3L d   1     -12.912 -14.699   2.704  0.00  0.00     0.068 H 
ATOM     70  H39 M3L d   1     -14.018 -16.057   2.304  0.00  0.00     0.068 H 
ATOM     71  H40 M3L d   1     -12.861 -15.448   1.072  0.00  0.00     0.068 H 
ENDBRANCH  67  68
BRANCH  67  72
ATOM     72  CM2 M3L d   1     -10.678 -15.988   2.426  0.00  0.00     0.067 C 
ATOM     73  H41 M3L d   1      -9.899 -16.684   2.771  0.00  0.00     0.068 H 
ATOM     74  H42 M3L d   1     -10.619 -15.055   3.006  0.00  0.00     0.068 H 
ATOM     75  H43 M3L d   1     -10.526 -15.766   1.359  0.00  0.00     0.068 H 
ENDBRANCH  67  72
BRANCH  67  76
ATOM     76  CM3 M3L d   1     -12.226 -16.762   4.057  0.00  0.00     0.067 C 
ATOM     77  H44 M3L d   1     -13.212 -17.220   4.227  0.00  0.00     0.068 H 
ATOM     78  H45 M3L d   1     -12.190 -15.777   4.545  0.00  0.00     0.068 H 
ATOM     79  H46 M3L d   1     -11.443 -17.409   4.479  0.00  0.00     0.068 H 
ENDBRANCH  67  76
ENDBRANCH  64  67
ENDBRANCH  61  64
ENDBRANCH  58  61
ENDBRANCH  55  58
ENDBRANCH   1  55
BRANCH   1  80
ATOM     80  C   M3L d   1     -11.870 -23.101   1.491  0.00  0.00     0.241 C 
ATOM     81  O   M3L d   1     -12.831 -23.091   0.717  0.00  0.00    -0.271 OA
ATOM     82  N   GLN d   1     -11.943 -23.532   2.743  0.00  0.00    -0.346 N 
ATOM     83  H47 GLN d   1     -11.114 -23.538   3.302  0.00  0.00     0.163 HD
BRANCH  82  84
ATOM     84  CA  GLN d   1     -13.189 -23.996   3.329  0.00  0.00     0.090 C 
ATOM     85  H48 GLN d   1     -14.021 -23.781   2.642  0.00  0.00     0.087 H 
BRANCH  84  86
ATOM     86  C   GLN d   1     -13.399 -23.269   4.645  0.00  0.00     0.241 C 
ATOM     87  O   GLN d   1     -12.446 -23.048   5.392  0.00  0.00    -0.271 OA
ATOM     88  N   THR d   1     -14.640 -22.882   4.914  0.00  0.00    -0.344 N 
ATOM     89  H55 THR d   1     -15.361 -23.047   4.240  0.00  0.00     0.163 HD
BRANCH  88  90
ATOM     90  CA  THR d   1     -14.975 -22.223   6.167  0.00  0.00     0.113 C 
ATOM     91  H56 THR d   1     -14.104 -22.258   6.837  0.00  0.00     0.091 H 
BRANCH  90  92
ATOM     92  C   THR d   1     -16.126 -23.011   6.788  0.00  0.00     0.243 C 
ATOM     93  O   THR d   1     -16.632 -23.956   6.184  0.00  0.00    -0.271 OA
ATOM     94  N   ALA d   1     -16.548 -22.613   7.981  0.00  0.00    -0.346 N 
ATOM     95  H62 ALA d   1     -16.137 -21.801   8.396  0.00  0.00     0.163 HD
BRANCH  94  96
ATOM     96  CA  ALA d   1     -17.597 -23.327   8.706  0.00  0.00     0.086 C 
ATOM     97  H63 ALA d   1     -17.375 -24.393   8.549  0.00  0.00     0.086 H 
BRANCH  96  98
ATOM     98  C   ALA d   1     -19.075 -23.172   8.319  0.00  0.00     0.240 C 
ATOM     99  O   ALA d   1     -19.584 -22.063   8.146  0.00  0.00    -0.271 OA
ATOM    100  N   ARG d   1     -19.735 -24.327   8.210  0.00  0.00    -0.349 N 
ATOM    101  H67 ARG d   1     -19.205 -25.164   8.343  0.00  0.00     0.163 HD
BRANCH 100 102
ATOM    102  CA  ARG d   1     -21.163 -24.487   7.914  0.00  0.00     0.062 C 
ATOM    103  H68 ARG d   1     -21.317 -25.575   7.860  0.00  0.00     0.083 H 
BRANCH 102 104
ATOM    104  C   ARG d   1     -21.774 -23.950   6.625  0.00  0.00     0.109 C 
ATOM    105  O   ARG d   1     -22.937 -23.488   6.667  0.00  0.00    -0.305 OA
ATOM    106  H69 ARG d   1     -21.213 -23.968   5.691  0.00  0.00     0.146 H 
ENDBRANCH 102 104
BRANCH 102 107
ATOM    107  CB  ARG d   1     -21.964 -23.979   9.109  0.00  0.00    -0.039 C 
ATOM    108  H70 ARG d   1     -23.012 -23.851   8.802  0.00  0.00     0.036 H 
ATOM    109  H71 ARG d   1     -21.552 -23.009   9.423  0.00  0.00     0.036 H 
BRANCH 107 110
ATOM    110  CG  ARG d   1     -21.915 -24.934  10.289  0.00  0.00    -0.048 C 
ATOM    111  H72 ARG d   1     -21.018 -25.565  10.200  0.00  0.00     0.035 H 
ATOM    112  H73 ARG d   1     -22.813 -25.569  10.271  0.00  0.00     0.035 H 
BRANCH 110 113
ATOM    113  CD  ARG d   1     -21.864 -24.193  11.607  0.00  0.00     0.009 C 
ATOM    114  H74 ARG d   1     -22.105 -24.896  12.418  0.00  0.00     0.064 H 
ATOM    115  H75 ARG d   1     -22.610 -23.385  11.588  0.00  0.00     0.064 H 
BRANCH 113 116
ATOM    116  NE  ARG d   1     -20.547 -23.612  11.864  0.00  0.00    -0.227 N 
ATOM    117  CZ  ARG d   1     -19.596 -24.199  12.585  0.00  0.00     0.665 C 
ATOM    118  NH1 ARG d   1     -19.810 -25.390  13.128  0.00  0.00    -0.235 N 
ATOM    119  NH2 ARG d   1     -18.433 -23.591  12.776  0.00  0.00    -0.235 N 
ATOM    120  H77 ARG d   1     -19.071 -25.842  13.686  0.00  0.00     0.174 HD
ATOM    121  H78 ARG d   1     -20.715 -25.863  12.992  0.00  0.00     0.174 HD
ATOM    122  H79 ARG d   1     -18.261 -22.666  12.357  0.00  0.00     0.174 HD
ATOM    123  H80 ARG d   1     -17.702 -24.044  13.343  0.00  0.00     0.174 HD
ATOM    124  H76 ARG d   1     -20.342 -22.687  11.460  0.00  0.00     0.177 HD
ENDBRANCH 113 116
ENDBRANCH 110 113
ENDBRANCH 107 110
ENDBRANCH 102 107
ENDBRANCH 100 102
ENDBRANCH  96  98
BRANCH  96 125
ATOM    125  CB  ALA d   1     -17.440 -23.047  10.187  0.00  0.00    -0.049 C 
ATOM    126  H64 ALA d   1     -18.224 -23.579  10.746  0.00  0.00     0.030 H 
ATOM    127  H65 ALA d   1     -17.531 -21.966  10.367  0.00  0.00     0.030 H 
ATOM    128  H66 ALA d   1     -16.451 -23.393  10.523  0.00  0.00     0.030 H 
ENDBRANCH  96 125
ENDBRANCH  94  96
ENDBRANCH  90  92
BRANCH  90 129
ATOM    129  CB  THR d   1     -15.373 -20.747   5.962  0.00  0.00     0.060 C 
ATOM    130  H57 THR d   1     -15.695 -20.327   6.926  0.00  0.00     0.086 H 
BRANCH 129 131
ATOM    131  OG1 THR d   1     -16.454 -20.660   5.030  0.00  0.00    -0.393 OA
ATOM    132  H58 THR d   1     -16.694 -19.749   4.909  0.00  0.00     0.210 HD
ENDBRANCH 129 131
BRANCH 129 133
ATOM    133  CG2 THR d   1     -14.179 -19.944   5.444  0.00  0.00    -0.050 C 
ATOM    134  H59 THR d   1     -14.477 -18.895   5.303  0.00  0.00     0.031 H 
ATOM    135  H60 THR d   1     -13.844 -20.363   4.484  0.00  0.00     0.031 H 
ATOM    136  H61 THR d   1     -13.357 -19.997   6.173  0.00  0.00     0.031 H 
ENDBRANCH 129 133
ENDBRANCH  90 129
ENDBRANCH  88  90
ENDBRANCH  84  86
BRANCH  84 137
ATOM    137  CB  GLN d   1     -13.138 -25.498   3.615  0.00  0.00    -0.030 C 
ATOM    138  H49 GLN d   1     -13.881 -25.721   4.395  0.00  0.00     0.037 H 
ATOM    139  H50 GLN d   1     -12.131 -25.739   3.987  0.00  0.00     0.037 H 
BRANCH 137 140
ATOM    140  CG  GLN d   1     -13.423 -26.391   2.433  0.00  0.00     0.011 C 
ATOM    141  H51 GLN d   1     -12.566 -26.355   1.745  0.00  0.00     0.047 H 
ATOM    142  H52 GLN d   1     -14.322 -26.023   1.918  0.00  0.00     0.047 H 
BRANCH 140 143
ATOM    143  CD  GLN d   1     -13.654 -27.833   2.855  0.00  0.00     0.215 C 
ATOM    144  OE1 GLN d   1     -14.185 -28.637   2.090  0.00  0.00    -0.274 OA
ATOM    145  NE2 GLN d   1     -13.250 -28.166   4.077  0.00  0.00    -0.370 N 
ATOM    146  H53 GLN d   1     -13.377 -29.101   4.408  0.00  0.00     0.159 HD
ATOM    147  H54 GLN d   1     -12.820 -27.481   4.665  0.00  0.00     0.159 HD
ENDBRANCH 140 143
ENDBRANCH 137 140
ENDBRANCH  84 137
ENDBRANCH  82  84
ENDBRANCH   1  80
TORSDOF 43
