REMARK  3 active torsions:
REMARK  status: ('A' for Active; 'I' for Inactive)
REMARK    1  A    between atoms: C5_2  and  C10_5 
REMARK    2  A    between atoms: C8_4  and  C13_6 
REMARK       I    between atoms: C10_5  and  N11_14 
REMARK    3  A    between atoms: C13_6  and  C18_18 
ROOT
ATOM      1  C4  3GN d   1      26.509  65.404   9.390  0.00  0.00     0.078 A 
ATOM      2  C5  3GN d   1      26.934  66.189  10.444  0.00  0.00     0.060 A 
ATOM      3  C6  3GN d   1      28.234  66.046  10.866  0.00  0.00    -0.065 A 
ATOM      4  C8  3GN d   1      25.430  64.435   7.821  0.00  0.00     0.141 A 
ATOM      5  C1  3GN d   1      29.090  65.144  10.274  0.00  0.00    -0.080 A 
ATOM      6  C2  3GN d   1      28.702  64.357   9.215  0.00  0.00    -0.053 A 
ATOM      7  C3  3GN d   1      27.401  64.534   8.805  0.00  0.00     0.086 A 
ATOM      8  N7  3GN d   1      26.692  63.929   7.807  0.00  0.00    -0.231 NA
ATOM      9  N9  3GN d   1      25.286  65.335   8.773  0.00  0.00    -0.340 N 
ATOM     10  H1  3GN d   1      28.595  66.658  11.685  0.00  0.00     0.085 H 
ATOM     11  H6  3GN d   1      30.101  65.052  10.655  0.00  0.00     0.083 H 
ATOM     12  H7  3GN d   1      29.372  63.650   8.739  0.00  0.00     0.087 H 
ATOM     13  H8  3GN d   1      24.438  65.871   9.004  0.00  0.00     0.167 HD
ENDROOT
BRANCH   4  14
ATOM     14  C13 3GN d   1      24.413  63.997   6.853  0.00  0.00     0.181 C 
ATOM     15  C17 3GN d   1      24.854  64.260   5.436  0.00  0.00    -0.026 C 
ATOM     16  C16 3GN d   1      24.062  65.443   4.932  0.00  0.00    -0.040 C 
ATOM     17  H4  3GN d   1      24.654  63.378   4.809  0.00  0.00     0.037 H 
ATOM     18  H5  3GN d   1      25.930  64.490   5.413  0.00  0.00     0.037 H 
ATOM     19  C15 3GN d   1      23.114  65.871   6.027  0.00  0.00     0.083 C 
ATOM     20  H13 3GN d   1      24.744  66.270   4.684  0.00  0.00     0.035 H 
ATOM     21  H14 3GN d   1      23.492  65.156   4.036  0.00  0.00     0.035 H 
ATOM     22  N14 3GN d   1      23.161  64.776   7.021  0.00  0.00    -0.059 N 
ATOM     23  H2  3GN d   1      23.446  66.818   6.478  0.00  0.00     0.075 H 
ATOM     24  H3  3GN d   1      22.095  65.991   5.631  0.00  0.00     0.075 H 
ATOM     25  H11 3GN d   1      23.132  65.166   7.950  0.00  0.00     0.278 HD
ATOM     26  H12 3GN d   1      22.368  64.168   6.887  0.00  0.00     0.278 HD
BRANCH  14  27
ATOM     27  C18 3GN d   1      24.096  62.540   7.020  0.00  0.00    -0.038 C 
ATOM     28  H15 3GN d   1      25.015  61.948   6.898  0.00  0.00     0.031 H 
ATOM     29  H16 3GN d   1      23.361  62.235   6.261  0.00  0.00     0.031 H 
ATOM     30  H17 3GN d   1      23.680  62.368   8.024  0.00  0.00     0.031 H 
ENDBRANCH  14  27
ENDBRANCH   4  14
BRANCH   2  31
ATOM     31  C10 3GN d   1      26.062  67.156  11.115  0.00  0.00     0.251 C 
ATOM     32  N11 3GN d   1      24.727  66.982  10.857  0.00  0.00    -0.366 N 
ATOM     33  H9  3GN d   1      24.054  67.595  11.271  0.00  0.00     0.159 HD
ATOM     34  H10 3GN d   1      24.426  66.242  10.255  0.00  0.00     0.159 HD
ATOM     35  O12 3GN d   1      26.550  68.035  11.808  0.00  0.00    -0.268 OA
ENDBRANCH   2  31
TORSDOF 3
