REMARK  8 active torsions:
REMARK  status: ('A' for Active; 'I' for Inactive)
REMARK    1  A    between atoms: C19_4  and  O22_5 
REMARK    2  A    between atoms: O22_5  and  C23_6 
REMARK    3  A    between atoms: C23_6  and  C24_7 
REMARK    4  A    between atoms: C16_15  and  C8_16 
REMARK       I    between atoms: N7_17  and  C30_18 
REMARK    5  A    between atoms: C30_18  and  C31_20 
REMARK    6  A    between atoms: C14_28  and  C34_29 
REMARK    7  A    between atoms: C14_28  and  C35_30 
REMARK    8  A    between atoms: C6_35  and  O33_36 
ROOT
ATOM      1  C8  XNZ d   1      27.431  46.608  96.758  0.00  0.00     0.077 C 
ATOM      2  N7  XNZ d   1      28.523  46.851  95.793  0.00  0.00    -0.302 N 
ATOM      3  C30 XNZ d   1      28.179  47.482  94.580  0.00  0.00     0.221 C 
ATOM      4  O32 XNZ d   1      27.199  47.026  94.009  0.00  0.00    -0.273 OA
ATOM      5  C4  XNZ d   1      29.854  47.050  96.300  0.00  0.00     0.068 A 
ATOM      6  C3  XNZ d   1      30.873  46.188  95.888  0.00  0.00    -0.054 A 
ATOM      7  C2  XNZ d   1      32.173  46.298  96.365  0.00  0.00    -0.078 A 
ATOM      8  C9  XNZ d   1      27.000  47.895  97.492  0.00  0.00     0.038 C 
ATOM      9  C12 XNZ d   1      25.538  48.055  97.755  0.00  0.00     0.160 C 
ATOM     10  O36 XNZ d   1      24.770  47.131  97.566  0.00  0.00    -0.293 OA
ATOM     11  C13 XNZ d   1      25.018  49.381  98.268  0.00  0.00     0.001 C 
ATOM     12  C14 XNZ d   1      25.933  49.937  99.345  0.00  0.00    -0.036 C 
ATOM     13  C15 XNZ d   1      27.323  50.065  98.743  0.00  0.00    -0.019 C 
ATOM     14  C10 XNZ d   1      27.840  48.850  97.960  0.00  0.00     0.022 C 
ATOM     15  N11 XNZ d   1      29.206  48.859  97.805  0.00  0.00    -0.355 N 
ATOM     16  C5  XNZ d   1      30.168  48.009  97.265  0.00  0.00     0.093 A 
ATOM     17  C6  XNZ d   1      31.466  48.120  97.750  0.00  0.00     0.094 A 
ATOM     18  C1  XNZ d   1      32.465  47.278  97.298  0.00  0.00    -0.049 A 
ATOM     19  H11 XNZ d   1      26.557  46.210  96.221  0.00  0.00     0.089 H 
ATOM     20  H15 XNZ d   1      30.642  45.407  95.172  0.00  0.00     0.087 H 
ATOM     21  H16 XNZ d   1      32.947  45.627  96.012  0.00  0.00     0.083 H 
ATOM     22  H17 XNZ d   1      24.012  49.236  98.689  0.00  0.00     0.046 H 
ATOM     23  H18 XNZ d   1      24.967  50.096  97.433  0.00  0.00     0.046 H 
ATOM     24  H25 XNZ d   1      28.028  50.258  99.565  0.00  0.00     0.043 H 
ATOM     25  H26 XNZ d   1      27.314  50.926  98.058  0.00  0.00     0.043 H 
ATOM     26  H27 XNZ d   1      29.627  49.717  98.188  0.00  0.00     0.166 HD
ATOM     27  H29 XNZ d   1      33.476  47.385  97.674  0.00  0.00     0.087 H 
ENDROOT
BRANCH   1  28
ATOM     28  C16 XNZ d   1      27.944  45.557  97.735  0.00  0.00    -0.008 A 
ATOM     29  C17 XNZ d   1      28.239  44.275  97.256  0.00  0.00     0.045 A 
ATOM     30 CL37 XNZ d   1      28.025  43.854  95.613  0.00  0.00    -0.084 Cl
ATOM     31  C18 XNZ d   1      28.708  43.281  98.092  0.00  0.00    -0.029 A 
ATOM     32  C19 XNZ d   1      28.908  43.552  99.427  0.00  0.00     0.070 A 
ATOM     33  H1  XNZ d   1      28.918  42.293  97.699  0.00  0.00     0.090 H 
ATOM     34  C20 XNZ d   1      28.627  44.836  99.918  0.00  0.00    -0.050 A 
ATOM     35  C21 XNZ d   1      28.151  45.826  99.081  0.00  0.00    -0.070 A 
ATOM     36  H9  XNZ d   1      28.786  45.054 100.968  0.00  0.00     0.087 H 
ATOM     37  H10 XNZ d   1      27.939  46.813  99.475  0.00  0.00     0.084 H 
BRANCH  32  38
ATOM     38  O22 XNZ d   1      29.379  42.537 100.203  0.00  0.00    -0.347 OA
BRANCH  38  39
ATOM     39  C23 XNZ d   1      29.528  42.714 101.610  0.00  0.00     0.050 C 
ATOM     40  H2  XNZ d   1      30.184  43.578 101.793  0.00  0.00     0.082 H 
ATOM     41  H3  XNZ d   1      29.986  41.809 102.036  0.00  0.00     0.082 H 
BRANCH  39  42
ATOM     42  C24 XNZ d   1      28.200  42.956 102.289  0.00  0.00    -0.034 A 
ATOM     43  C29 XNZ d   1      28.167  43.754 103.437  0.00  0.00    -0.075 A 
ATOM     44  C28 XNZ d   1      26.952  43.981 104.091  0.00  0.00    -0.082 A 
ATOM     45  H4  XNZ d   1      29.081  44.195 103.819  0.00  0.00     0.084 H 
ATOM     46  C27 XNZ d   1      25.777  43.416 103.602  0.00  0.00    -0.083 A 
ATOM     47  H5  XNZ d   1      26.925  44.599 104.981  0.00  0.00     0.083 H 
ATOM     48  C26 XNZ d   1      25.814  42.617 102.451  0.00  0.00    -0.082 A 
ATOM     49  H6  XNZ d   1      24.836  43.594 104.110  0.00  0.00     0.083 H 
ATOM     50  C25 XNZ d   1      27.022  42.385 101.787  0.00  0.00    -0.075 A 
ATOM     51  H7  XNZ d   1      24.899  42.176 102.073  0.00  0.00     0.083 H 
ATOM     52  H8  XNZ d   1      27.048  41.771 100.894  0.00  0.00     0.084 H 
ENDBRANCH  39  42
ENDBRANCH  38  39
ENDBRANCH  32  38
ENDBRANCH   1  28
BRANCH   3  53
ATOM     53  C31 XNZ d   1      28.886  48.667  93.943  0.00  0.00    -0.002 C 
ATOM     54  H12 XNZ d   1      28.383  48.931  93.001  0.00  0.00     0.040 H 
ATOM     55  H13 XNZ d   1      29.934  48.402  93.738  0.00  0.00     0.040 H 
ATOM     56  H14 XNZ d   1      28.853  49.526  94.629  0.00  0.00     0.040 H 
ENDBRANCH   3  53
BRANCH  17  57
ATOM     57  O33 XNZ d   1      31.789  49.040  98.686  0.00  0.00    -0.358 OA
ATOM     58  H28 XNZ d   1      32.713  48.968  98.893  0.00  0.00     0.217 HD
ENDBRANCH  17  57
BRANCH  12  59
ATOM     59  C34 XNZ d   1      25.408  51.330  99.741  0.00  0.00    -0.069 C 
ATOM     60  H19 XNZ d   1      26.054  51.757 100.522  0.00  0.00     0.028 H 
ATOM     61  H20 XNZ d   1      24.381  51.239 100.124  0.00  0.00     0.028 H 
ATOM     62  H21 XNZ d   1      25.414  51.988  98.860  0.00  0.00     0.028 H 
ENDBRANCH  12  59
BRANCH  12  63
ATOM     63  C35 XNZ d   1      26.001  49.009 100.580  0.00  0.00    -0.069 C 
ATOM     64  H22 XNZ d   1      26.378  48.021 100.276  0.00  0.00     0.028 H 
ATOM     65  H23 XNZ d   1      24.996  48.901 101.013  0.00  0.00     0.028 H 
ATOM     66  H24 XNZ d   1      26.678  49.445 101.329  0.00  0.00     0.028 H 
ENDBRANCH  12  63
TORSDOF 8
