REMARK  5 active torsions:
REMARK  status: ('A' for Active; 'I' for Inactive)
REMARK    1  A    between atoms: C16_8  and  C11_9 
REMARK       I    between atoms: N10_14  and  C17_15 
REMARK    2  A    between atoms: C17_15  and  C19_16 
REMARK    3  A    between atoms: C12_22  and  O30_23 
REMARK    4  A    between atoms: C2_28  and  C27_29 
REMARK    5  A    between atoms: C2_28  and  C26_30 
ROOT
ATOM      1  C11 XND d   1      25.129   7.848  30.408  0.00  0.00     0.077 C 
ATOM      2  C5  XND d   1      25.576   6.493  30.976  0.00  0.00     0.038 C 
ATOM      3  C6  XND d   1      27.025   6.311  31.184  0.00  0.00     0.160 C 
ATOM      4  O25 XND d   1      27.765   7.276  31.117  0.00  0.00    -0.293 OA
ATOM      5  C1  XND d   1      27.525   4.931  31.550  0.00  0.00     0.001 C 
ATOM      6  N10 XND d   1      24.172   7.717  29.286  0.00  0.00    -0.302 N 
ATOM      7  C17 XND d   1      24.715   7.295  28.035  0.00  0.00     0.221 C 
ATOM      8  O18 XND d   1      25.918   7.399  27.802  0.00  0.00    -0.273 OA
ATOM      9  C9  XND d   1      22.821   7.481  29.713  0.00  0.00     0.068 A 
ATOM     10  C15 XND d   1      21.819   8.346  29.286  0.00  0.00    -0.054 A 
ATOM     11  C14 XND d   1      20.510   8.179  29.678  0.00  0.00    -0.078 A 
ATOM     12  C13 XND d   1      20.175   7.140  30.525  0.00  0.00    -0.049 A 
ATOM     13  C12 XND d   1      21.159   6.277  30.981  0.00  0.00     0.094 A 
ATOM     14  C8  XND d   1      22.473   6.440  30.600  0.00  0.00     0.093 A 
ATOM     15  N7  XND d   1      23.365   5.513  31.182  0.00  0.00    -0.355 N 
ATOM     16  C4  XND d   1      24.729   5.512  31.385  0.00  0.00     0.022 C 
ATOM     17  C3  XND d   1      25.209   4.258  32.125  0.00  0.00    -0.019 C 
ATOM     18  C2  XND d   1      26.635   4.330  32.648  0.00  0.00    -0.036 C 
ATOM     19  H4  XND d   1      26.034   8.324  30.003  0.00  0.00     0.089 H 
ATOM     20  H5  XND d   1      28.559   5.003  31.917  0.00  0.00     0.046 H 
ATOM     21  H6  XND d   1      27.495   4.284  30.661  0.00  0.00     0.046 H 
ATOM     22  H10 XND d   1      22.075   9.170  28.630  0.00  0.00     0.087 H 
ATOM     23  H11 XND d   1      19.745   8.860  29.323  0.00  0.00     0.083 H 
ATOM     24  H12 XND d   1      19.145   7.000  30.832  0.00  0.00     0.087 H 
ATOM     25  H14 XND d   1      22.901   4.661  31.526  0.00  0.00     0.166 HD
ATOM     26  H15 XND d   1      25.142   3.406  31.433  0.00  0.00     0.043 H 
ATOM     27  H16 XND d   1      24.539   4.089  32.981  0.00  0.00     0.043 H 
ENDROOT
BRANCH   1  28
ATOM     28  C16 XND d   1      24.557   8.813  31.479  0.00  0.00    -0.008 A 
ATOM     29  C20 XND d   1      24.184  10.097  31.074  0.00  0.00     0.044 A 
ATOM     30  C21 XND d   1      23.664  11.015  31.971  0.00  0.00    -0.040 A 
ATOM     31 CL28 XND d   1      24.374  10.529  29.416  0.00  0.00    -0.084 Cl
ATOM     32  C22 XND d   1      23.520  10.642  33.296  0.00  0.00     0.035 A 
ATOM     33  H1  XND d   1      23.375  12.007  31.642  0.00  0.00     0.088 H 
ATOM     34 CL29 XND d   1      22.885  11.743  34.446  0.00  0.00    -0.084 Cl
ATOM     35  C23 XND d   1      23.885   9.372  33.715  0.00  0.00    -0.061 A 
ATOM     36  C24 XND d   1      24.402   8.461  32.813  0.00  0.00    -0.071 A 
ATOM     37  H2  XND d   1      23.764   9.092  34.755  0.00  0.00     0.086 H 
ATOM     38  H3  XND d   1      24.687   7.470  33.148  0.00  0.00     0.084 H 
ENDBRANCH   1  28
BRANCH   7  39
ATOM     39  C19 XND d   1      23.879   6.666  26.943  0.00  0.00    -0.002 C 
ATOM     40  H7  XND d   1      24.520   6.428  26.081  0.00  0.00     0.040 H 
ATOM     41  H8  XND d   1      23.093   7.370  26.632  0.00  0.00     0.040 H 
ATOM     42  H9  XND d   1      23.416   5.743  27.321  0.00  0.00     0.040 H 
ENDBRANCH   7  39
BRANCH  18  43
ATOM     43  C27 XND d   1      27.139   2.910  32.999  0.00  0.00    -0.069 C 
ATOM     44  H17 XND d   1      28.171   2.970  33.376  0.00  0.00     0.028 H 
ATOM     45  H18 XND d   1      27.114   2.279  32.098  0.00  0.00     0.028 H 
ATOM     46  H19 XND d   1      26.491   2.471  33.772  0.00  0.00     0.028 H 
ENDBRANCH  18  43
BRANCH  18  47
ATOM     47  C26 XND d   1      26.613   5.238  33.905  0.00  0.00    -0.069 C 
ATOM     48  H20 XND d   1      26.252   6.239  33.628  0.00  0.00     0.028 H 
ATOM     49  H21 XND d   1      27.629   5.316  34.319  0.00  0.00     0.028 H 
ATOM     50  H22 XND d   1      25.942   4.802  34.660  0.00  0.00     0.028 H 
ENDBRANCH  18  47
BRANCH  13  51
ATOM     51  O30 XND d   1      20.853   5.267  31.818  0.00  0.00    -0.358 OA
ATOM     52  H13 XND d   1      20.478   5.621  32.616  0.00  0.00     0.217 HD
ENDBRANCH  13  51
TORSDOF 5
