REMARK  9 active torsions:
REMARK  status: ('A' for Active; 'I' for Inactive)
REMARK       I    between atoms: C16_2  and  N14_3 
REMARK    1  A    between atoms: C16_2  and  C18_20 
REMARK    2  A    between atoms: N14_3  and  C11_4 
REMARK    3  A    between atoms: C8_6  and  N51_7 
REMARK    4  A    between atoms: C55_9  and  C58_10 
REMARK    5  A    between atoms: C5_15  and  C2_16 
REMARK    6  A    between atoms: C22_23  and  C27_24 
REMARK    7  A    between atoms: C21_25  and  N31_27 
REMARK    8  A    between atoms: N31_27  and  C33_28 
REMARK    9  A    between atoms: C35_32  and  C41_34 
ROOT
ATOM      1  C18 NIL d   1      19.086  60.596  25.122  0.00  0.00     0.034 A 
ATOM      2  C25 NIL d   1      18.442  60.196  26.301  0.00  0.00    -0.067 A 
ATOM      3  C23 NIL d   1      18.457  61.008  27.439  0.00  0.00    -0.074 A 
ATOM      4  C22 NIL d   1      19.155  62.224  27.416  0.00  0.00    -0.035 A 
ATOM      5  C21 NIL d   1      19.812  62.619  26.257  0.00  0.00     0.056 A 
ATOM      6  C19 NIL d   1      19.786  61.808  25.108  0.00  0.00    -0.041 A 
ATOM      7  H10 NIL d   1      17.925  59.244  26.331  0.00  0.00     0.085 H 
ATOM      8  H11 NIL d   1      17.931  60.699  28.335  0.00  0.00     0.084 H 
ATOM      9  H15 NIL d   1      20.308  62.122  24.211  0.00  0.00     0.088 H 
ENDROOT
BRANCH   1  10
ATOM     10  C16 NIL d   1      19.141  59.749  23.847  0.00  0.00     0.256 C 
ATOM     11  O17 NIL d   1      19.878  60.139  22.936  0.00  0.00    -0.267 OA
ATOM     12  N14 NIL d   1      18.368  58.615  23.753  0.00  0.00    -0.323 N 
ATOM     13  H1  NIL d   1      17.701  58.447  24.479  0.00  0.00     0.169 HD
BRANCH  12  14
ATOM     14  C11 NIL d   1      18.444  57.711  22.750  0.00  0.00     0.037 A 
ATOM     15  C9  NIL d   1      17.334  56.894  22.447  0.00  0.00    -0.031 A 
ATOM     16  C8  NIL d   1      17.395  55.932  21.460  0.00  0.00     0.042 A 
ATOM     17  H2  NIL d   1      16.412  57.025  23.002  0.00  0.00     0.090 H 
ATOM     18  C6  NIL d   1      18.608  55.720  20.755  0.00  0.00    -0.042 A 
ATOM     19  C5  NIL d   1      19.722  56.529  21.049  0.00  0.00     0.052 A 
ATOM     20  H8  NIL d   1      18.676  54.945  20.000  0.00  0.00     0.088 H 
ATOM     21  C12 NIL d   1      19.647  57.512  22.038  0.00  0.00    -0.042 A 
ATOM     22  H9  NIL d   1      20.514  58.124  22.260  0.00  0.00     0.088 H 
BRANCH  16  23
ATOM     23  N51 NIL d   1      16.311  55.150  21.240  0.00  0.00    -0.315 N 
ATOM     24  C56 NIL d   1      15.203  55.065  22.027  0.00  0.00     0.010 A 
ATOM     25  C55 NIL d   1      14.422  54.153  21.465  0.00  0.00     0.048 A 
ATOM     26  H3  NIL d   1      15.000  55.632  22.934  0.00  0.00     0.115 H 
ATOM     27  N54 NIL d   1      15.021  53.656  20.383  0.00  0.00    -0.247 NA
ATOM     28  C52 NIL d   1      16.183  54.274  20.233  0.00  0.00     0.070 A 
ATOM     29  H7  NIL d   1      16.904  54.102  19.436  0.00  0.00     0.144 H 
BRANCH  25  30
ATOM     30  C58 NIL d   1      13.055  53.710  22.006  0.00  0.00    -0.034 C 
ATOM     31  H4  NIL d   1      12.629  52.943  21.343  0.00  0.00     0.035 H 
ATOM     32  H5  NIL d   1      12.378  54.576  22.046  0.00  0.00     0.035 H 
ATOM     33  H6  NIL d   1      13.178  53.294  23.017  0.00  0.00     0.035 H 
ENDBRANCH  25  30
ENDBRANCH  16  23
BRANCH  19  34
ATOM     34  C2  NIL d   1      21.039  56.349  20.250  0.00  0.00     0.417 C 
ATOM     35  F4  NIL d   1      22.101  56.224  21.003  0.00  0.00    -0.166 F 
ATOM     36  F3  NIL d   1      20.940  55.341  19.448  0.00  0.00    -0.166 F 
ATOM     37  F1  NIL d   1      21.314  57.335  19.451  0.00  0.00    -0.166 F 
ENDBRANCH  19  34
ENDBRANCH  12  14
ENDBRANCH   1  10
BRANCH   5  38
ATOM     38  N31 NIL d   1      20.483  63.789  26.230  0.00  0.00    -0.188 N 
ATOM     39  H16 NIL d   1      21.244  63.920  26.912  0.00  0.00     0.184 HD
BRANCH  38  40
ATOM     40  C33 NIL d   1      20.229  64.798  25.374  0.00  0.00     0.727 A 
ATOM     41  N40 NIL d   1      19.050  64.928  24.724  0.00  0.00    -0.075 NA
ATOM     42  C38 NIL d   1      18.817  65.940  23.907  0.00  0.00     0.023 A 
ATOM     43  C36 NIL d   1      19.823  66.902  23.716  0.00  0.00    -0.036 A 
ATOM     44  H17 NIL d   1      17.866  66.026  23.393  0.00  0.00     0.115 H 
ATOM     45  C35 NIL d   1      21.057  66.753  24.381  0.00  0.00     0.089 A 
ATOM     46  H18 NIL d   1      19.652  67.751  23.064  0.00  0.00     0.089 H 
ATOM     47  N34 NIL d   1      21.220  65.704  25.209  0.00  0.00    -0.062 NA
BRANCH  45  48
ATOM     48  C41 NIL d   1      22.142  67.659  24.194  0.00  0.00     0.011 A 
ATOM     49  C49 NIL d   1      22.046  68.700  23.247  0.00  0.00    -0.068 A 
ATOM     50  C47 NIL d   1      23.141  69.581  23.069  0.00  0.00    -0.065 A 
ATOM     51  H19 NIL d   1      21.143  68.825  22.661  0.00  0.00     0.085 H 
ATOM     52  C45 NIL d   1      24.300  69.372  23.845  0.00  0.00     0.002 A 
ATOM     53  H20 NIL d   1      23.089  70.395  22.355  0.00  0.00     0.085 H 
ATOM     54  N44 NIL d   1      24.390  68.355  24.724  0.00  0.00    -0.272 NA
ATOM     55  H21 NIL d   1      25.140  70.047  23.731  0.00  0.00     0.114 H 
ATOM     56  C42 NIL d   1      23.347  67.504  24.926  0.00  0.00     0.014 A 
ATOM     57  H22 NIL d   1      23.438  66.703  25.651  0.00  0.00     0.116 H 
ENDBRANCH  45  48
ENDBRANCH  38  40
ENDBRANCH   5  38
BRANCH   4  58
ATOM     58  C27 NIL d   1      19.186  63.127  28.650  0.00  0.00    -0.049 C 
ATOM     59  H12 NIL d   1      18.617  62.655  29.464  0.00  0.00     0.033 H 
ATOM     60  H13 NIL d   1      18.735  64.100  28.404  0.00  0.00     0.033 H 
ATOM     61  H14 NIL d   1      20.228  63.276  28.969  0.00  0.00     0.033 H 
ENDBRANCH   4  58
TORSDOF 9
