REMARK  9 active torsions:
REMARK  status: ('A' for Active; 'I' for Inactive)
REMARK    1  A    between atoms: O1_6  and  P1_2 
REMARK    2  A    between atoms: C6_8  and  O6_5 
REMARK    3  A    between atoms: C1_7  and  O1_6 
REMARK    4  A    between atoms: C2_9  and  O2_10 
REMARK    5  A    between atoms: C3_11  and  O3_12 
REMARK    6  A    between atoms: C4_13  and  O4_14 
REMARK    7  A    between atoms: O4_14  and  P4_15 
REMARK    8  A    between atoms: C5_19  and  O5_20 
REMARK    9  A    between atoms: O5_20  and  P5_21 
ROOT
ATOM      1  C1  PT5 d   1      31.490 -23.397  19.553  0.00  0.00     0.106 C 
ATOM      2  C6  PT5 d   1      32.152 -22.181  18.915  0.00  0.00     0.091 C 
ATOM      3  C2  PT5 d   1      32.518 -24.299  20.226  0.00  0.00     0.090 C 
ATOM      4  C3  PT5 d   1      33.676 -24.616  19.286  0.00  0.00     0.091 C 
ATOM      5  C4  PT5 d   1      33.398 -24.105  17.877  0.00  0.00     0.106 C 
ATOM      6  C5  PT5 d   1      33.180 -22.596  17.869  0.00  0.00     0.106 C 
ATOM      7  H2  PT5 d   1      30.974 -23.971  18.769  0.00  0.00     0.092 H 
ATOM      8  H3  PT5 d   1      32.439 -21.381  19.613  0.00  0.00     0.091 H 
ATOM      9  H4  PT5 d   1      32.027 -25.241  20.512  0.00  0.00     0.091 H 
ATOM     10  H6  PT5 d   1      33.810 -25.707  19.246  0.00  0.00     0.091 H 
ATOM     11  H8  PT5 d   1      34.261 -24.342  17.238  0.00  0.00     0.092 H 
ATOM     12  H9  PT5 d   1      32.812 -22.299  16.876  0.00  0.00     0.092 H 
ENDROOT
BRANCH   1  13
ATOM     13  O1  PT5 d   1      30.537 -22.966  20.523  0.00  0.00    -0.272 OA
BRANCH  13  14
ATOM     14  P1  PT5 d   1      29.905 -21.488  20.450  0.00  0.00     0.422 P 
ATOM     15  O12 PT5 d   1      31.018 -20.485  20.636  0.00  0.00    -0.617 OA
ATOM     16  O13 PT5 d   1      28.694 -21.448  21.350  0.00  0.00    -0.617 OA
ATOM     17  O11 PT5 d   1      29.400 -21.399  18.926  0.00  0.00    -0.617 OA
ENDBRANCH  13  14
ENDBRANCH   1  13
BRANCH   2  18
ATOM     18  O6  PT5 d   1      31.280 -21.936  17.948  0.00  0.00    -0.390 OA
ATOM     19  H1  PT5 d   1      31.222 -22.692  17.376  0.00  0.00     0.210 HD
ENDBRANCH   2  18
BRANCH   3  20
ATOM     20  O2  PT5 d   1      33.022 -23.657  21.403  0.00  0.00    -0.390 OA
ATOM     21  H5  PT5 d   1      33.432 -22.834  21.163  0.00  0.00     0.210 HD
ENDBRANCH   3  20
BRANCH   6  22
ATOM     22  O5  PT5 d   1      34.414 -21.929  18.124  0.00  0.00    -0.272 OA
BRANCH  22  23
ATOM     23  P5  PT5 d   1      34.664 -20.440  17.564  0.00  0.00     0.422 P 
ATOM     24  O52 PT5 d   1      36.000 -20.049  18.150  0.00  0.00    -0.617 OA
ATOM     25  O51 PT5 d   1      34.668 -20.612  16.063  0.00  0.00    -0.617 OA
ATOM     26  O53 PT5 d   1      33.494 -19.647  18.097  0.00  0.00    -0.617 OA
ENDBRANCH  22  23
ENDBRANCH   6  22
BRANCH   4  27
ATOM     27  O3  PT5 d   1      34.876 -24.015  19.786  0.00  0.00    -0.390 OA
ATOM     28  H7  PT5 d   1      34.759 -23.074  19.839  0.00  0.00     0.210 HD
ENDBRANCH   4  27
BRANCH   5  29
ATOM     29  O4  PT5 d   1      32.238 -24.752  17.356  0.00  0.00    -0.272 OA
BRANCH  29  30
ATOM     30  P4  PT5 d   1      31.492 -24.162  16.056  0.00  0.00     0.422 P 
ATOM     31  O41 PT5 d   1      31.704 -22.670  16.160  0.00  0.00    -0.617 OA
ATOM     32  O42 PT5 d   1      32.210 -24.815  14.897  0.00  0.00    -0.617 OA
ATOM     33  O43 PT5 d   1      30.057 -24.602  16.226  0.00  0.00    -0.617 OA
ENDBRANCH  29  30
ENDBRANCH   5  29
TORSDOF 9
