REMARK  14 active torsions:
REMARK  status: ('A' for Active; 'I' for Inactive)
REMARK       I    between atoms: N7_9  and  C8_1 
REMARK       I    between atoms: C8_1  and  N36_10 
REMARK    1  A    between atoms: C4_4  and  C6_2 
REMARK    2  A    between atoms: C4_4  and  C5_3 
REMARK    3  A    between atoms: C3_7  and  C4_4 
REMARK    4  A    between atoms: C3_7  and  C1_6 
REMARK    5  A    between atoms: C3_7  and  N7_9 
REMARK    6  A    between atoms: N36_10  and  C11_11 
REMARK    7  A    between atoms: C11_11  and  C15_12 
REMARK    8  A    between atoms: C11_11  and  C12_32 
REMARK       I    between atoms: C15_12  and  N17_13 
REMARK    9  A    between atoms: N17_13  and  C18_14 
REMARK   10  A    between atoms: C22_24  and  C23_25 
REMARK   11  A    between atoms: C23_25  and  C25_26 
REMARK   12  A    between atoms: C23_25  and  C24_27 
REMARK   13  A    between atoms: C12_32  and  C14_33 
REMARK   14  A    between atoms: C12_32  and  C13_34 
ROOT
ATOM      1  C18 SY2 d   1      60.649-135.774  39.264  0.00  0.00     0.089 C 
ATOM      2  C34 SY2 d   1      59.580-136.820  39.698  0.00  0.00    -0.038 C 
ATOM      3  C33 SY2 d   1      59.726-138.198  38.989  0.00  0.00    -0.061 C 
ATOM      4  C32 SY2 d   1      59.164-139.372  39.862  0.00  0.00    -0.050 C 
ATOM      5  C31 SY2 d   1      60.044-139.658  41.119  0.00  0.00    -0.005 C 
ATOM      6  N30 SY2 d   1      59.616-138.872  42.273  0.00  0.00    -0.361 N 
ATOM      7  C28 SY2 d   1      60.443-138.220  43.158  0.00  0.00     0.217 C 
ATOM      8  O29 SY2 d   1      59.930-137.607  44.090  0.00  0.00    -0.274 OA
ATOM      9  C27 SY2 d   1      61.973-138.196  43.093  0.00  0.00     0.011 C 
ATOM     10  C26 SY2 d   1      62.599-136.832  43.528  0.00  0.00    -0.038 C 
ATOM     11  C22 SY2 d   1      63.054-136.013  42.284  0.00  0.00     0.015 C 
ATOM     12  N21 SY2 d   1      61.903-135.863  41.392  0.00  0.00    -0.354 N 
ATOM     13  C19 SY2 d   1      61.961-135.993  40.024  0.00  0.00     0.240 C 
ATOM     14  O20 SY2 d   1      63.006-136.254  39.387  0.00  0.00    -0.271 OA
ATOM     15  H13 SY2 d   1      60.272-134.766  39.493  0.00  0.00     0.087 H 
ATOM     16  H14 SY2 d   1      58.584-136.415  39.467  0.00  0.00     0.036 H 
ATOM     17  H15 SY2 d   1      59.669-136.977  40.783  0.00  0.00     0.036 H 
ATOM     18  H16 SY2 d   1      60.792-138.383  38.789  0.00  0.00     0.033 H 
ATOM     19  H17 SY2 d   1      59.175-138.168  38.038  0.00  0.00     0.033 H 
ATOM     20  H18 SY2 d   1      59.124-140.282  39.245  0.00  0.00     0.035 H 
ATOM     21  H19 SY2 d   1      58.149-139.109  40.195  0.00  0.00     0.035 H 
ATOM     22  H20 SY2 d   1      61.089-139.407  40.886  0.00  0.00     0.064 H 
ATOM     23  H21 SY2 d   1      59.970-140.727  41.369  0.00  0.00     0.064 H 
ATOM     24  H22 SY2 d   1      58.632-138.801  42.435  0.00  0.00     0.162 HD
ATOM     25  H23 SY2 d   1      62.280-138.404  42.057  0.00  0.00     0.047 H 
ATOM     26  H24 SY2 d   1      62.361-138.983  43.756  0.00  0.00     0.047 H 
ATOM     27  H25 SY2 d   1      63.470-137.024  44.172  0.00  0.00     0.036 H 
ATOM     28  H26 SY2 d   1      61.849-136.253  44.087  0.00  0.00     0.036 H 
ATOM     29  H27 SY2 d   1      63.841-136.574  41.759  0.00  0.00     0.073 H 
ATOM     30  H35 SY2 d   1      61.017-135.652  41.804  0.00  0.00     0.162 HD
ENDROOT
BRANCH   1  31
ATOM     31  N17 SY2 d   1      60.882-135.877  37.831  0.00  0.00    -0.346 N 
ATOM     32  C15 SY2 d   1      60.525-134.815  37.035  0.00  0.00     0.241 C 
ATOM     33  O16 SY2 d   1      60.011-133.805  37.452  0.00  0.00    -0.271 OA
ATOM     34  H12 SY2 d   1      61.291-136.699  37.436  0.00  0.00     0.163 HD
BRANCH  32  35
ATOM     35  C11 SY2 d   1      60.808-134.937  35.574  0.00  0.00     0.093 C 
ATOM     36  H11 SY2 d   1      60.834-136.005  35.311  0.00  0.00     0.088 H 
BRANCH  35  37
ATOM     37  N36 SY2 d   1      59.720-134.311  34.764  0.00  0.00    -0.330 N 
ATOM     38  C8  SY2 d   1      58.408-134.720  34.837  0.00  0.00     0.317 C 
ATOM     39  N7  SY2 d   1      57.430-134.112  34.069  0.00  0.00    -0.328 N 
ATOM     40  O9  SY2 d   1      58.078-135.631  35.582  0.00  0.00    -0.247 OA
ATOM     41  H9  SY2 d   1      57.666-133.365  33.448  0.00  0.00     0.165 HD
ATOM     42  H10 SY2 d   1      59.955-133.563  34.143  0.00  0.00     0.165 HD
BRANCH  39  43
ATOM     43  C3  SY2 d   1      56.032-134.580  34.177  0.00  0.00     0.100 C 
ATOM     44  H8  SY2 d   1      55.923-135.145  35.115  0.00  0.00     0.090 H 
BRANCH  43  45
ATOM     45  C4  SY2 d   1      55.012-133.377  34.213  0.00  0.00    -0.032 C 
ATOM     46  H7  SY2 d   1      55.127-132.805  33.281  0.00  0.00     0.042 H 
BRANCH  45  47
ATOM     47  C6  SY2 d   1      53.499-133.820  34.329  0.00  0.00    -0.071 C 
ATOM     48  H1  SY2 d   1      52.856-132.928  34.348  0.00  0.00     0.028 H 
ATOM     49  H2  SY2 d   1      53.355-134.395  35.256  0.00  0.00     0.028 H 
ATOM     50  H3  SY2 d   1      53.233-134.445  33.464  0.00  0.00     0.028 H 
ENDBRANCH  45  47
BRANCH  45  51
ATOM     51  C5  SY2 d   1      55.363-132.471  35.403  0.00  0.00    -0.071 C 
ATOM     52  H4  SY2 d   1      56.415-132.159  35.328  0.00  0.00     0.028 H 
ATOM     53  H5  SY2 d   1      55.210-133.023  36.342  0.00  0.00     0.028 H 
ATOM     54  H6  SY2 d   1      54.715-131.582  35.391  0.00  0.00     0.028 H 
ENDBRANCH  45  51
ENDBRANCH  43  45
BRANCH  43  55
ATOM     55  C1  SY2 d   1      55.749-135.525  32.999  0.00  0.00     0.197 C 
ATOM     56  O2  SY2 d   1      56.210-135.321  31.864  0.00  0.00    -0.646 OA
ATOM     57  O35 SY2 d   1      54.972-136.598  33.282  0.00  0.00    -0.646 OA
ENDBRANCH  43  55
ENDBRANCH  39  43
ENDBRANCH  35  37
BRANCH  35  58
ATOM     58  C12 SY2 d   1      62.235-134.347  35.317  0.00  0.00    -0.033 C 
ATOM     59  H36 SY2 d   1      62.962-134.887  35.942  0.00  0.00     0.042 H 
BRANCH  58  60
ATOM     60  C14 SY2 d   1      62.594-134.531  33.833  0.00  0.00    -0.071 C 
ATOM     61  H37 SY2 d   1      63.596-134.119  33.644  0.00  0.00     0.028 H 
ATOM     62  H38 SY2 d   1      61.857-134.004  33.209  0.00  0.00     0.028 H 
ATOM     63  H39 SY2 d   1      62.586-135.602  33.584  0.00  0.00     0.028 H 
ENDBRANCH  58  60
BRANCH  58  64
ATOM     64  C13 SY2 d   1      62.301-132.845  35.653  0.00  0.00    -0.071 C 
ATOM     65  H40 SY2 d   1      62.047-132.695  36.713  0.00  0.00     0.028 H 
ATOM     66  H41 SY2 d   1      61.586-132.297  35.023  0.00  0.00     0.028 H 
ATOM     67  H42 SY2 d   1      63.318-132.471  35.464  0.00  0.00     0.028 H 
ENDBRANCH  58  64
ENDBRANCH  35  58
ENDBRANCH  32  35
ENDBRANCH   1  31
BRANCH  11  68
ATOM     68  C23 SY2 d   1      63.639-134.608  42.693  0.00  0.00    -0.042 C 
ATOM     69  H28 SY2 d   1      64.257-134.765  43.589  0.00  0.00     0.042 H 
BRANCH  68  70
ATOM     70  C25 SY2 d   1      64.551-133.997  41.579  0.00  0.00    -0.071 C 
ATOM     71  H29 SY2 d   1      64.933-133.021  41.912  0.00  0.00     0.028 H 
ATOM     72  H30 SY2 d   1      63.966-133.867  40.657  0.00  0.00     0.028 H 
ATOM     73  H31 SY2 d   1      65.396-134.674  41.385  0.00  0.00     0.028 H 
ENDBRANCH  68  70
BRANCH  68  74
ATOM     74  C24 SY2 d   1      62.515-133.543  43.059  0.00  0.00    -0.071 C 
ATOM     75  H32 SY2 d   1      61.861-133.954  43.843  0.00  0.00     0.028 H 
ATOM     76  H33 SY2 d   1      61.917-133.318  42.163  0.00  0.00     0.028 H 
ATOM     77  H34 SY2 d   1      62.989-132.620  43.424  0.00  0.00     0.028 H 
ENDBRANCH  68  74
ENDBRANCH  11  68
TORSDOF 14
