REMARK  14 active torsions:
REMARK  status: ('A' for Active; 'I' for Inactive)
REMARK    1  A    between atoms: C1'_11  and  N9_10 
REMARK    2  A    between atoms: C2'_12  and  O2'_13 
REMARK    3  A    between atoms: C3'_14  and  O3'_15 
REMARK    4  A    between atoms: C5'_18  and  C4'_17 
REMARK    5  A    between atoms: O5'_19  and  C5'_18 
REMARK    6  A    between atoms: PA_20  and  O5'_19 
REMARK    7  A    between atoms: O3A_23  and  PA_20 
REMARK    8  A    between atoms: PB_24  and  O3A_23 
REMARK    9  A    between atoms: O5D_27  and  PB_24 
REMARK   10  A    between atoms: C5D_28  and  O5D_27 
REMARK   11  A    between atoms: C4D_36  and  C5D_28 
REMARK   12  A    between atoms: C1D_31  and  O1D_30 
REMARK   13  A    between atoms: C2D_33  and  O2D_32 
REMARK   14  A    between atoms: C3D_35  and  O3D_34 
ROOT
ATOM      1  C5' APR d   1      11.345  45.851 -12.061  0.00  0.00     0.058 C 
ATOM      2  H11 APR d   1      10.773  46.771 -11.871  0.00  0.00     0.079 H 
ATOM      3  H12 APR d   1      10.897  45.018 -11.499  0.00  0.00     0.079 H 
ENDROOT
BRANCH   1   4
ATOM      4  C4' APR d   1      12.791  46.048 -11.616  0.00  0.00     0.089 C 
ATOM      5  C3' APR d   1      13.695  46.550 -12.731  0.00  0.00     0.091 C 
ATOM      6  C2' APR d   1      14.495  45.322 -13.146  0.00  0.00     0.105 C 
ATOM      7  H8  APR d   1      13.119  46.963 -13.572  0.00  0.00     0.091 H 
ATOM      8  C1' APR d   1      14.588  44.509 -11.862  0.00  0.00     0.139 C 
ATOM      9  H6  APR d   1      13.955  44.754 -13.918  0.00  0.00     0.093 H 
ATOM     10  O4' APR d   1      13.368  44.800 -11.153  0.00  0.00    -0.353 OA
ATOM     11  H5  APR d   1      15.484  44.798 -11.293  0.00  0.00     0.122 H 
ATOM     12  H10 APR d   1      12.797  46.779 -10.795  0.00  0.00     0.090 H 
BRANCH   5  13
ATOM     13  O3' APR d   1      14.582  47.541 -12.182  0.00  0.00    -0.390 OA
ATOM     14  H9  APR d   1      14.080  48.305 -11.924  0.00  0.00     0.210 HD
ENDBRANCH   5  13
BRANCH   6  15
ATOM     15  O2' APR d   1      15.782  45.685 -13.660  0.00  0.00    -0.388 OA
ATOM     16  H7  APR d   1      16.243  46.208 -13.015  0.00  0.00     0.210 HD
ENDBRANCH   6  15
BRANCH   8  17
ATOM     17  N9  APR d   1      14.549  43.033 -12.054  0.00  0.00    -0.294 N 
ATOM     18  C4  APR d   1      14.793  42.180 -11.066  0.00  0.00     0.167 A 
ATOM     19  N3  APR d   1      15.158  42.321  -9.770  0.00  0.00    -0.222 NA
ATOM     20  C5  APR d   1      14.614  40.830 -11.625  0.00  0.00     0.149 A 
ATOM     21  C2  APR d   1      15.364  41.245  -8.987  0.00  0.00     0.091 A 
ATOM     22  N1  APR d   1      15.207  39.984  -9.425  0.00  0.00    -0.222 NA
ATOM     23  H1  APR d   1      15.670  41.403  -7.959  0.00  0.00     0.146 H 
ATOM     24  C6  APR d   1      14.849  39.698 -10.701  0.00  0.00     0.155 A 
ATOM     25  N6  APR d   1      14.702  38.415 -11.111  0.00  0.00    -0.382 N 
ATOM     26  H2  APR d   1      14.430  38.213 -12.084  0.00  0.00     0.157 HD
ATOM     27  H3  APR d   1      14.863  37.642 -10.450  0.00  0.00     0.157 HD
ATOM     28  N7  APR d   1      14.243  40.988 -12.910  0.00  0.00    -0.236 NA
ATOM     29  C8  APR d   1      14.212  42.326 -13.160  0.00  0.00     0.071 A 
ATOM     30  H4  APR d   1      13.951  42.769 -14.120  0.00  0.00     0.144 H 
ENDBRANCH   8  17
ENDBRANCH   1   4
BRANCH   1  31
ATOM     31  O5' APR d   1      11.322  45.552 -13.461  0.00  0.00    -0.287 OA
BRANCH  31  32
ATOM     32  PA  APR d   1      10.189  44.634 -14.119  0.00  0.00     0.417 P 
ATOM     33  O1A APR d   1      10.225  43.280 -13.452  0.00  0.00    -0.624 OA
ATOM     34  O2A APR d   1      10.303  44.718 -15.614  0.00  0.00    -0.624 OA
BRANCH  32  35
ATOM     35  O3A APR d   1       8.766  45.266 -13.657  0.00  0.00    -0.180 OA
BRANCH  35  36
ATOM     36  PB  APR d   1       7.937  46.511 -14.284  0.00  0.00     0.417 P 
ATOM     37  O1B APR d   1       6.911  46.839 -13.192  0.00  0.00    -0.624 OA
ATOM     38  O2B APR d   1       8.915  47.549 -14.753  0.00  0.00    -0.624 OA
BRANCH  36  39
ATOM     39  O5D APR d   1       7.129  45.859 -15.490  0.00  0.00    -0.287 OA
BRANCH  39  40
ATOM     40  C5D APR d   1       6.189  44.818 -15.236  0.00  0.00     0.058 C 
ATOM     41  H13 APR d   1       5.239  45.244 -14.882  0.00  0.00     0.079 H 
ATOM     42  H14 APR d   1       6.586  44.126 -14.478  0.00  0.00     0.079 H 
BRANCH  40  43
ATOM     43  C4D APR d   1       5.977  44.088 -16.550  0.00  0.00     0.090 C 
ATOM     44  O4D APR d   1       7.162  43.343 -16.841  0.00  0.00    -0.349 OA
ATOM     45  C1D APR d   1       6.712  42.025 -17.199  0.00  0.00     0.156 C 
ATOM     46  C2D APR d   1       5.540  41.771 -16.270  0.00  0.00     0.110 C 
ATOM     47  H16 APR d   1       6.375  41.993 -18.245  0.00  0.00     0.133 H 
ATOM     48  C3D APR d   1       4.841  43.087 -16.510  0.00  0.00     0.092 C 
ATOM     49  H18 APR d   1       5.869  41.630 -15.230  0.00  0.00     0.094 H 
ATOM     50  H20 APR d   1       4.101  43.326 -15.732  0.00  0.00     0.091 H 
ATOM     51  H21 APR d   1       5.784  44.826 -17.342  0.00  0.00     0.090 H 
BRANCH  45  52
ATOM     52  O1D APR d   1       7.782  41.123 -17.033  0.00  0.00    -0.369 OA
ATOM     53  H15 APR d   1       8.065  41.133 -16.126  0.00  0.00     0.212 HD
ENDBRANCH  45  52
BRANCH  46  54
ATOM     54  O2D APR d   1       4.636  40.715 -16.635  0.00  0.00    -0.388 OA
ATOM     55  H17 APR d   1       4.254  40.906 -17.483  0.00  0.00     0.210 HD
ENDBRANCH  46  54
BRANCH  48  56
ATOM     56  O3D APR d   1       4.234  43.003 -17.815  0.00  0.00    -0.390 OA
ATOM     57  H19 APR d   1       3.781  43.816 -18.005  0.00  0.00     0.210 HD
ENDBRANCH  48  56
ENDBRANCH  40  43
ENDBRANCH  39  40
ENDBRANCH  36  39
ENDBRANCH  35  36
ENDBRANCH  32  35
ENDBRANCH  31  32
ENDBRANCH   1  31
TORSDOF 14
