REMARK  2 active torsions:
REMARK  status: ('A' for Active; 'I' for Inactive)
REMARK    1  A    between atoms: C12_2  and  C10_4 
REMARK    2  A    between atoms: C7_7  and  C6_9 
ROOT
ATOM      1  C6  G14 d   1     -33.259 -23.426  11.396  0.00  0.00     0.010 A 
ATOM      2  C1  G14 d   1     -33.647 -22.703  10.273  0.00  0.00    -0.069 A 
ATOM      3  C2  G14 d   1     -34.513 -21.619  10.380  0.00  0.00    -0.082 A 
ATOM      4  C3  G14 d   1     -35.027 -21.268  11.617  0.00  0.00    -0.083 A 
ATOM      5  C4  G14 d   1     -34.651 -22.006  12.751  0.00  0.00    -0.082 A 
ATOM      6  C5  G14 d   1     -33.765 -23.080  12.640  0.00  0.00    -0.069 A 
ATOM      7  H3  G14 d   1     -33.269 -22.989   9.298  0.00  0.00     0.085 H 
ATOM      8  H4  G14 d   1     -34.785 -21.051   9.498  0.00  0.00     0.083 H 
ATOM      9  H5  G14 d   1     -35.712 -20.433  11.709  0.00  0.00     0.083 H 
ATOM     10  H6  G14 d   1     -35.052 -21.739  13.722  0.00  0.00     0.083 H 
ATOM     11  H7  G14 d   1     -33.474 -23.640  13.521  0.00  0.00     0.085 H 
ENDROOT
BRANCH   1  12
ATOM     12  C7  G14 d   1     -32.315 -24.587  11.253  0.00  0.00     0.138 A 
ATOM     13  N8  G14 d   1     -31.063 -24.300  10.800  0.00  0.00    -0.240 NA
ATOM     14  C9  G14 d   1     -30.385 -25.513  10.729  0.00  0.00     0.037 A 
ATOM     15  C10 G14 d   1     -31.283 -26.504  11.172  0.00  0.00     0.129 A 
ATOM     16  H1  G14 d   1     -29.360 -25.666  10.396  0.00  0.00     0.118 H 
ATOM     17  N11 G14 d   1     -32.479 -25.928  11.504  0.00  0.00    -0.334 N 
ATOM     18  H2  G14 d   1     -33.321 -26.399  11.865  0.00  0.00     0.168 HD
BRANCH  15  19
ATOM     19  C12 G14 d   1     -31.055 -27.964  11.290  0.00  0.00     0.228 C 
ATOM     20  O14 G14 d   1     -31.721 -28.547  12.212  0.00  0.00    -0.643 OA
ATOM     21  O13 G14 d   1     -30.249 -28.562  10.478  0.00  0.00    -0.643 OA
ENDBRANCH  15  19
ENDBRANCH   1  12
TORSDOF 2
