REMARK  7 active torsions:
REMARK  status: ('A' for Active; 'I' for Inactive)
REMARK    1  A    between atoms: CAA_1  and  OAL_2 
REMARK    2  A    between atoms: OAL_2  and  CAP_3 
REMARK    3  A    between atoms: CAO_8  and  CAD_9 
REMARK    4  A    between atoms: NAK_10  and  OAM_11 
REMARK    5  A    between atoms: OAM_11  and  CAI_12 
REMARK    6  A    between atoms: CAI_12  and  CAJ_13 
REMARK    7  A    between atoms: CAJ_13  and  CAN_14 
ROOT
ATOM      1  CAP 8BD d   1      21.076  41.680   9.319  0.00  0.00     0.080 A 
ATOM      2  CAH 8BD d   1      21.032  42.578  10.431  0.00  0.00    -0.050 A 
ATOM      3  CAF 8BD d   1      21.077  43.965  10.240  0.00  0.00    -0.080 A 
ATOM      4  CAE 8BD d   1      21.168  44.469   8.952  0.00  0.00    -0.082 A 
ATOM      5  CAG 8BD d   1      21.216  43.590   7.848  0.00  0.00    -0.069 A 
ATOM      6  CAO 8BD d   1      21.168  42.189   8.023  0.00  0.00     0.017 A 
ATOM      7  H4  8BD d   1      20.963  42.179  11.437  0.00  0.00     0.087 H 
ATOM      8  H5  8BD d   1      21.041  44.637  11.090  0.00  0.00     0.083 H 
ATOM      9  H6  8BD d   1      21.202  45.541   8.792  0.00  0.00     0.083 H 
ATOM     10  H7  8BD d   1      21.291  43.998   6.847  0.00  0.00     0.085 H 
ENDROOT
BRANCH   6  11
ATOM     11  CAD 8BD d   1      21.218  41.278   6.938  0.00  0.00     0.041 C 
ATOM     12  NAK 8BD d   1      21.385  41.470   5.650  0.00  0.00    -0.146 NA
ATOM     13  H8  8BD d   1      21.096  40.234   7.223  0.00  0.00     0.119 H 
BRANCH  12  14
ATOM     14  OAM 8BD d   1      21.563  42.670   5.066  0.00  0.00    -0.256 OA
BRANCH  14  15
ATOM     15  CAI 8BD d   1      21.763  42.432   3.681  0.00  0.00     0.057 C 
ATOM     16  H9  8BD d   1      22.286  41.475   3.538  0.00  0.00     0.079 H 
ATOM     17  H10 8BD d   1      22.361  43.245   3.244  0.00  0.00     0.079 H 
BRANCH  15  18
ATOM     18  CAJ 8BD d   1      20.406  42.380   3.019  0.00  0.00     0.038 C 
ATOM     19  H11 8BD d   1      19.897  43.346   3.155  0.00  0.00     0.052 H 
ATOM     20  H12 8BD d   1      19.806  41.581   3.479  0.00  0.00     0.052 H 
BRANCH  18  21
ATOM     21  CAN 8BD d   1      20.563  42.101   1.548  0.00  0.00     0.174 C 
ATOM     22  OAC 8BD d   1      19.726  41.349   0.969  0.00  0.00    -0.648 OA
ATOM     23  OAB 8BD d   1      21.518  42.655   1.007  0.00  0.00    -0.648 OA
ENDBRANCH  18  21
ENDBRANCH  15  18
ENDBRANCH  14  15
ENDBRANCH  12  14
ENDBRANCH   6  11
BRANCH   1  24
ATOM     24  OAL 8BD d   1      21.075  40.302   9.467  0.00  0.00    -0.355 OA
BRANCH  24  25
ATOM     25  CAA 8BD d   1      20.985  39.480   8.319  0.00  0.00     0.010 C 
ATOM     26  H1  8BD d   1      20.998  38.423   8.623  0.00  0.00     0.066 H 
ATOM     27  H2  8BD d   1      21.839  39.681   7.656  0.00  0.00     0.066 H 
ATOM     28  H3  8BD d   1      20.048  39.697   7.785  0.00  0.00     0.066 H 
ENDBRANCH  24  25
ENDBRANCH   1  24
TORSDOF 7
