REMARK  3 active torsions:
REMARK  status: ('A' for Active; 'I' for Inactive)
REMARK    1  A    between atoms: N8_3  and  C12_4 
REMARK    2  A    between atoms: C12_4  and  C14_5 
REMARK    3  A    between atoms: C12_4  and  C13_8 
ROOT
ATOM      1  O10 GF1 d   1     -37.277   6.143  15.990  0.00  0.00    -0.272 OA
ATOM      2  C7  GF1 d   1     -36.321   5.856  15.292  0.00  0.00     0.232 C 
ATOM      3  N8  GF1 d   1     -35.009   5.845  15.643  0.00  0.00    -0.273 N 
ATOM      4  C2  GF1 d   1     -36.431   5.417  13.831  0.00  0.00     0.040 C 
ATOM      5  C3  GF1 d   1     -35.041   5.750  13.418  0.00  0.00     0.040 C 
ATOM      6  C9  GF1 d   1     -34.316   6.286  14.616  0.00  0.00     0.232 C 
ATOM      7  O11 GF1 d   1     -33.281   6.948  14.610  0.00  0.00    -0.272 OA
ATOM      8  C1  GF1 d   1     -37.151   6.087  12.639  0.00  0.00    -0.041 C 
ATOM      9  C6  GF1 d   1     -36.724   5.272  11.382  0.00  0.00    -0.060 C 
ATOM     10  C5  GF1 d   1     -35.182   5.538  11.137  0.00  0.00    -0.060 C 
ATOM     11  C17 GF1 d   1     -36.330   7.324  12.299  0.00  0.00    -0.057 C 
ATOM     12  C4  GF1 d   1     -34.981   6.625  12.196  0.00  0.00    -0.041 C 
ATOM     13  H5  GF1 d   1     -36.678   4.345  13.818  0.00  0.00     0.056 H 
ATOM     14  H6  GF1 d   1     -34.547   4.807  13.140  0.00  0.00     0.056 H 
ATOM     15  H7  GF1 d   1     -38.231   6.238  12.785  0.00  0.00     0.041 H 
ATOM     16  H8  GF1 d   1     -37.304   5.601  10.507  0.00  0.00     0.033 H 
ATOM     17  H9  GF1 d   1     -36.896   4.199  11.555  0.00  0.00     0.033 H 
ATOM     18  H10 GF1 d   1     -34.979   5.905  10.120  0.00  0.00     0.033 H 
ATOM     19  H11 GF1 d   1     -34.569   4.646  11.334  0.00  0.00     0.033 H 
ATOM     20  H12 GF1 d   1     -36.354   8.078  13.099  0.00  0.00     0.034 H 
ATOM     21  H13 GF1 d   1     -36.638   7.787  11.350  0.00  0.00     0.034 H 
ATOM     22  H14 GF1 d   1     -34.103   7.276  12.075  0.00  0.00     0.041 H 
ENDROOT
BRANCH   3  23
ATOM     23  C12 GF1 d   1     -34.235   5.229  16.758  0.00  0.00     0.102 C 
ATOM     24  H1  GF1 d   1     -33.193   5.513  16.549  0.00  0.00     0.090 H 
BRANCH  23  25
ATOM     25  C14 GF1 d   1     -34.400   5.467  18.243  0.00  0.00     0.197 C 
ATOM     26  O16 GF1 d   1     -33.378   5.576  18.975  0.00  0.00    -0.646 OA
ATOM     27  O15 GF1 d   1     -35.532   5.450  18.730  0.00  0.00    -0.646 OA
ENDBRANCH  23  25
BRANCH  23  28
ATOM     28  C13 GF1 d   1     -34.373   3.732  16.600  0.00  0.00    -0.047 C 
ATOM     29  H2  GF1 d   1     -33.817   3.226  17.403  0.00  0.00     0.030 H 
ATOM     30  H3  GF1 d   1     -33.967   3.427  15.624  0.00  0.00     0.030 H 
ATOM     31  H4  GF1 d   1     -35.436   3.454  16.658  0.00  0.00     0.030 H 
ENDBRANCH  23  28
ENDBRANCH   3  23
TORSDOF 3
