REMARK  21 active torsions:
REMARK  status: ('A' for Active; 'I' for Inactive)
REMARK    1  A    between atoms: CA1_15  and  C1_1 
REMARK    2  A    between atoms: CA1_15  and  N1_2 
REMARK    3  A    between atoms: S1_3  and  CE6_34 
REMARK    4  A    between atoms: CF4_35  and  S1_3 
REMARK    5  A    between atoms: CA2_17  and  C2_4 
REMARK    6  A    between atoms: CA2_17  and  N2_5 
REMARK    7  A    between atoms: CA3_19  and  C3_7 
REMARK    8  A    between atoms: N3_8  and  CA3_19 
REMARK    9  A    between atoms: CB1_25  and  CA1_15 
REMARK   10  A    between atoms: CB2_26  and  CA2_17 
REMARK   11  A    between atoms: CF7_38  and  NA4_22 
REMARK   12  A    between atoms: CE1_28  and  OA5_24 
REMARK   13  A    between atoms: CG1_39  and  CB1_25 
REMARK   14  A    between atoms: SG2_40  and  CB2_26 
REMARK   15  A    between atoms: CD1_27  and  CG1_39 
REMARK   16  A    between atoms: CE2_30  and  CE1_28 
REMARK   17  A    between atoms: CE3_31  and  CE2_30 
REMARK   18  A    between atoms: CE4_32  and  CE3_31 
REMARK   19  A    between atoms: CE5_33  and  CE4_32 
REMARK   20  A    between atoms: CE6_34  and  CE5_33 
REMARK   21  A    between atoms: CF4_35  and  SG2_40 
ROOT
ATOM      1  CI  BYG d   1       4.747  -4.962  14.587  0.00  0.00     0.126 A 
ATOM      2  CL  BYG d   1       5.494  -6.249  14.596  0.00  0.00     0.126 A 
ATOM      3  NA1 BYG d   1       4.699  -4.558  15.859  0.00  0.00    -0.105 NA
ATOM      4  OA2 BYG d   1       5.326  -5.543  16.641  0.00  0.00    -0.106 OA
ATOM      5  NA3 BYG d   1       5.808  -6.608  15.847  0.00  0.00    -0.105 NA
ATOM      6  CF4 BYG d   1       5.836  -7.076  13.381  0.00  0.00     0.122 A 
ATOM      7  CF5 BYG d   1       5.255  -6.413  12.231  0.00  0.00    -0.071 A 
ATOM      8  CF6 BYG d   1       4.604  -5.175  12.240  0.00  0.00    -0.071 A 
ATOM      9  CF7 BYG d   1       4.296  -4.392  13.294  0.00  0.00     0.136 A 
ATOM     10  H   BYG d   1       5.332  -6.925  11.272  0.00  0.00     0.080 H 
ATOM     11  H   BYG d   1       4.306  -4.792  11.264  0.00  0.00     0.080 H 
ATOM     12  H   BYG d   1       3.989  -3.758  14.126  0.00  0.00     0.099 H 
ENDROOT
BRANCH   6  13
ATOM     13  S1  BYG d   1       5.123  -8.628  13.710  0.00  0.00    -0.137 SA
BRANCH  13  14
ATOM     14  CE6 BYG d   1       5.545  -9.024  15.371  0.00  0.00    -0.021 C 
ATOM     15  H   BYG d   1       4.843  -9.780  15.722  0.00  0.00     0.049 H 
ATOM     16  H   BYG d   1       5.503  -8.104  15.954  0.00  0.00     0.049 H 
BRANCH  14  17
ATOM     17  CE5 BYG d   1       6.959  -9.600  15.505  0.00  0.00    -0.057 C 
ATOM     18  H   BYG d   1       7.425  -9.529  14.522  0.00  0.00     0.034 H 
ATOM     19  H   BYG d   1       7.460  -9.032  16.289  0.00  0.00     0.034 H 
BRANCH  17  20
ATOM     20  CE4 BYG d   1       7.013 -11.071  15.918  0.00  0.00    -0.064 C 
ATOM     21  H   BYG d   1       6.186 -11.274  16.598  0.00  0.00     0.033 H 
ATOM     22  H   BYG d   1       6.942 -11.689  15.023  0.00  0.00     0.033 H 
BRANCH  20  23
ATOM     23  CE3 BYG d   1       8.305 -11.386  16.621  0.00  0.00    -0.063 C 
ATOM     24  H   BYG d   1       8.171 -12.215  17.315  0.00  0.00     0.033 H 
ATOM     25  H   BYG d   1       9.069 -11.685  15.903  0.00  0.00     0.033 H 
BRANCH  23  26
ATOM     26  CE2 BYG d   1       8.731 -10.134  17.362  0.00  0.00    -0.045 C 
ATOM     27  H   BYG d   1       7.817  -9.683  17.750  0.00  0.00     0.036 H 
ATOM     28  H   BYG d   1       9.462 -10.453  18.105  0.00  0.00     0.036 H 
BRANCH  26  29
ATOM     29  CE1 BYG d   1       9.418  -9.054  16.521  0.00  0.00     0.017 C 
ATOM     30  H   BYG d   1       9.421  -9.356  15.474  0.00  0.00     0.073 H 
ATOM     31  H   BYG d   1       8.878  -8.113  16.627  0.00  0.00     0.073 H 
BRANCH  29  32
ATOM     32  OA5 BYG d   1      10.766  -8.884  16.972  0.00  0.00    -0.401 OA
ATOM     33  H   BYG d   1      11.196  -8.207  16.444  0.00  0.00     0.209 HD
ENDBRANCH  29  32
ENDBRANCH  26  29
ENDBRANCH  23  26
ENDBRANCH  20  23
ENDBRANCH  17  20
ENDBRANCH  14  17
ENDBRANCH  13  14
ENDBRANCH   6  13
BRANCH   6  34
ATOM     34  SG2 BYG d   1       7.443  -6.893  12.905  0.00  0.00    -0.135 SA
BRANCH  34  35
ATOM     35  CB2 BYG d   1       8.594  -8.222  12.514  0.00  0.00     0.005 C 
ATOM     36  H   BYG d   1       8.062  -9.160  12.674  0.00  0.00     0.052 H 
ATOM     37  H   BYG d   1       8.931  -8.059  11.491  0.00  0.00     0.052 H 
BRANCH  35  38
ATOM     38  CA2 BYG d   1       9.840  -8.264  13.390  0.00  0.00     0.084 C 
ATOM     39  H   BYG d   1       9.569  -8.077  14.429  0.00  0.00     0.086 H 
BRANCH  38  40
ATOM     40  C2  BYG d   1      10.464  -9.626  13.306  0.00  0.00     0.175 C 
ATOM     41  O2  BYG d   1       9.659 -10.775  13.172  0.00  0.00    -0.175 OA
ATOM     42  N3  BYG d   1      11.792  -9.674  13.365  0.00  0.00    -0.360 N 
ATOM     43  H   BYG d   1      12.308  -8.844  13.657  0.00  0.00     0.162 HD
BRANCH  42  44
ATOM     44  CA3 BYG d   1      12.522 -10.879  13.023  0.00  0.00     0.074 C 
ATOM     45  H   BYG d   1      11.809 -11.624  12.668  0.00  0.00     0.080 H 
ATOM     46  H   BYG d   1      13.258 -10.630  12.258  0.00  0.00     0.080 H 
BRANCH  44  47
ATOM     47  C3  BYG d   1      13.250 -11.447  14.217  0.00  0.00     0.191 C 
ATOM     48  O31 BYG d   1      13.112 -10.933  15.348  0.00  0.00    -0.647 OA
ATOM     49  O32 BYG d   1      14.001 -12.439  14.091  0.00  0.00    -0.647 OA
ENDBRANCH  44  47
ENDBRANCH  42  44
ENDBRANCH  38  40
BRANCH  38  50
ATOM     50  N2  BYG d   1      10.767  -7.226  12.983  0.00  0.00    -0.359 N 
ATOM     51  CD1 BYG d   1      10.877  -6.088  13.663  0.00  0.00     0.152 C 
ATOM     52  OE1 BYG d   1      10.933  -6.036  15.071  0.00  0.00    -0.177 OA
ATOM     53  H   BYG d   1      11.348  -7.372  12.157  0.00  0.00     0.162 HD
BRANCH  51  54
ATOM     54  CG1 BYG d   1      10.941  -4.819  12.846  0.00  0.00    -0.001 C 
ATOM     55  H   BYG d   1      10.460  -4.983  11.882  0.00  0.00     0.045 H 
ATOM     56  H   BYG d   1      10.426  -4.018  13.377  0.00  0.00     0.045 H 
BRANCH  54  57
ATOM     57  CB1 BYG d   1      12.398  -4.429  12.628  0.00  0.00    -0.022 C 
ATOM     58  H   BYG d   1      12.967  -4.690  13.520  0.00  0.00     0.037 H 
ATOM     59  H   BYG d   1      12.775  -4.960  11.754  0.00  0.00     0.037 H 
BRANCH  57  60
ATOM     60  CA1 BYG d   1      12.532  -2.930  12.384  0.00  0.00     0.183 C 
ATOM     61  H   BYG d   1      13.578  -2.637  12.481  0.00  0.00     0.101 H 
BRANCH  60  62
ATOM     62  C1  BYG d   1      12.048  -2.604  11.002  0.00  0.00     0.204 C 
ATOM     63  O11 BYG d   1      11.561  -1.482  10.745  0.00  0.00    -0.646 OA
ATOM     64  O12 BYG d   1      12.128  -3.456  10.091  0.00  0.00    -0.646 OA
ENDBRANCH  60  62
BRANCH  60  65
ATOM     65  N1  BYG d   1      11.736  -2.209  13.358  0.00  0.00    -0.065 N 
ATOM     66  H   BYG d   1      11.826  -1.206  13.194  0.00  0.00     0.275 HD
ATOM     67  H   BYG d   1      10.758  -2.483  13.266  0.00  0.00     0.275 HD
ATOM     68  H   BYG d   1      12.066  -2.432  14.297  0.00  0.00     0.275 HD
ENDBRANCH  60  65
ENDBRANCH  57  60
ENDBRANCH  54  57
ENDBRANCH  51  54
ENDBRANCH  38  50
ENDBRANCH  35  38
ENDBRANCH  34  35
ENDBRANCH   6  34
BRANCH   9  69
ATOM     69  NA4 BYG d   1       3.643  -3.229  12.953  0.00  0.00    -0.141 N 
ATOM     70  OA3 BYG d   1       3.315  -2.943  11.671  0.00  0.00    -0.536 OA
ATOM     71  OA4 BYG d   1       3.218  -2.253  13.804  0.00  0.00    -0.536 OA
ENDBRANCH   9  69
TORSDOF 21
