REMARK  9 active torsions:
REMARK  status: ('A' for Active; 'I' for Inactive)
REMARK    1  A    between atoms: OA5_1  and  CE1_2 
REMARK    2  A    between atoms: CE1_2  and  CE2_3 
REMARK    3  A    between atoms: CE2_3  and  CE3_4 
REMARK    4  A    between atoms: CE3_4  and  CE4_5 
REMARK    5  A    between atoms: CE4_5  and  CE5_6 
REMARK    6  A    between atoms: CE5_6  and  CE6_7 
REMARK    7  A    between atoms: CE6_7  and  S1_8 
REMARK    8  A    between atoms: S1_8  and  CF4_9 
REMARK    9  A    between atoms: CF7_17  and  NA4_18 
ROOT
ATOM      1  CE6 N11 d   1       6.303   1.595  30.208  0.00  0.00    -0.019 C 
ATOM      2  H12 N11 d   1       5.303   1.484  29.763  0.00  0.00     0.049 H 
ATOM      3  H13 N11 d   1       6.346   1.038  31.156  0.00  0.00     0.049 H 
ENDROOT
BRANCH   1   4
ATOM      4  CE5 N11 d   1       6.565   3.072  30.485  0.00  0.00    -0.057 C 
ATOM      5  H10 N11 d   1       7.569   3.182  30.922  0.00  0.00     0.034 H 
ATOM      6  H11 N11 d   1       6.514   3.629  29.538  0.00  0.00     0.034 H 
BRANCH   4   7
ATOM      7  CE4 N11 d   1       5.537   3.644  31.453  0.00  0.00    -0.064 C 
ATOM      8  H8  N11 d   1       4.986   2.816  31.923  0.00  0.00     0.033 H 
ATOM      9  H9  N11 d   1       6.058   4.224  32.229  0.00  0.00     0.033 H 
BRANCH   7  10
ATOM     10  CE3 N11 d   1       4.551   4.552  30.729  0.00  0.00    -0.063 C 
ATOM     11  H6  N11 d   1       5.081   5.103  29.939  0.00  0.00     0.033 H 
ATOM     12  H7  N11 d   1       3.758   3.937  30.279  0.00  0.00     0.033 H 
BRANCH  10  13
ATOM     13  CE2 N11 d   1       3.923   5.547  31.697  0.00  0.00    -0.045 C 
ATOM     14  H4  N11 d   1       4.511   5.563  32.627  0.00  0.00     0.036 H 
ATOM     15  H5  N11 d   1       3.933   6.547  31.240  0.00  0.00     0.036 H 
BRANCH  13  16
ATOM     16  CE1 N11 d   1       2.484   5.166  32.026  0.00  0.00     0.017 C 
ATOM     17  H2  N11 d   1       1.897   5.110  31.097  0.00  0.00     0.073 H 
ATOM     18  H3  N11 d   1       2.469   4.188  32.529  0.00  0.00     0.073 H 
BRANCH  16  19
ATOM     19  OA5 N11 d   1       1.918   6.158  32.891  0.00  0.00    -0.401 OA
ATOM     20  H1  N11 d   1       1.933   7.002  32.455  0.00  0.00     0.209 HD
ENDBRANCH  16  19
ENDBRANCH  13  16
ENDBRANCH  10  13
ENDBRANCH   7  10
ENDBRANCH   4   7
ENDBRANCH   1   4
BRANCH   1  21
ATOM     21  S1  N11 d   1       7.506   0.937  29.096  0.00  0.00    -0.127 SA
BRANCH  21  22
ATOM     22  CF4 N11 d   1       7.696   1.890  27.703  0.00  0.00     0.034 A 
ATOM     23  CL  N11 d   1       6.556   2.666  27.126  0.00  0.00     0.136 A 
ATOM     24  NA3 N11 d   1       5.258   2.815  27.483  0.00  0.00    -0.101 NA
ATOM     25  CI  N11 d   1       6.815   3.489  25.903  0.00  0.00     0.151 A 
ATOM     26  OA2 N11 d   1       4.719   3.706  26.502  0.00  0.00    -0.106 OA
ATOM     27  NA1 N11 d   1       5.677   4.120  25.527  0.00  0.00    -0.100 NA
ATOM     28  CF7 N11 d   1       8.185   3.467  25.327  0.00  0.00     0.136 A 
ATOM     29  CF6 N11 d   1       9.177   2.695  25.939  0.00  0.00    -0.047 A 
ATOM     30  CF5 N11 d   1       8.947   1.938  27.091  0.00  0.00    -0.062 A 
ATOM     31  H15 N11 d   1      10.168   2.683  25.501  0.00  0.00     0.087 H 
ATOM     32  H14 N11 d   1       9.765   1.372  27.521  0.00  0.00     0.085 H 
BRANCH  28  33
ATOM     33  NA4 N11 d   1       8.467   4.228  24.182  0.00  0.00    -0.113 N 
ATOM     34  OA4 N11 d   1       7.485   5.059  23.639  0.00  0.00    -0.532 OA
ATOM     35  OA3 N11 d   1       9.730   4.172  23.595  0.00  0.00    -0.532 OA
ENDBRANCH  28  33
ENDBRANCH  21  22
ENDBRANCH   1  21
TORSDOF 9
