REMARK  7 active torsions:
REMARK  status: ('A' for Active; 'I' for Inactive)
REMARK    1  A    between atoms: C1_2  and  C2_4 
REMARK    2  A    between atoms: C2_4  and  O3_5 
REMARK    3  A    between atoms: C2_4  and  C3_6 
REMARK    4  A    between atoms: C3_6  and  C4_7 
REMARK    5  A    between atoms: C3_6  and  C5_8 
REMARK    6  A    between atoms: C3_6  and  C6_9 
REMARK    7  A    between atoms: C6_9  and  O4_10 
ROOT
ATOM      1  C3  PAF d   1      10.781 -13.124  -2.929  0.00  0.00     0.009 C 
ENDROOT
BRANCH   1   2
ATOM      2  C2  PAF d   1      11.063 -11.932  -1.996  0.00  0.00     0.127 C 
ATOM      3  H1  PAF d   1      12.116 -12.012  -1.690  0.00  0.00     0.101 H 
BRANCH   2   4
ATOM      4  C1  PAF d   1      10.221 -11.900  -0.723  0.00  0.00     0.203 C 
ATOM      5  O1  PAF d   1      10.797 -12.262   0.324  0.00  0.00    -0.646 OA
ATOM      6  O2  PAF d   1       9.058 -11.429  -0.809  0.00  0.00    -0.646 OA
ENDBRANCH   2   4
BRANCH   2   7
ATOM      7  O3  PAF d   1      10.893 -10.678  -2.685  0.00  0.00    -0.384 OA
ATOM      8  H2  PAF d   1      11.179  -9.968  -2.123  0.00  0.00     0.210 HD
ENDBRANCH   2   7
ENDBRANCH   1   2
BRANCH   1   9
ATOM      9  C4  PAF d   1      11.014 -14.447  -2.154  0.00  0.00    -0.065 C 
ATOM     10  H3  PAF d   1      10.813 -15.301  -2.818  0.00  0.00     0.028 H 
ATOM     11  H4  PAF d   1      10.337 -14.489  -1.288  0.00  0.00     0.028 H 
ATOM     12  H5  PAF d   1      12.057 -14.490  -1.807  0.00  0.00     0.028 H 
ENDBRANCH   1   9
BRANCH   1  13
ATOM     13  C5  PAF d   1       9.314 -13.057  -3.509  0.00  0.00    -0.065 C 
ATOM     14  H6  PAF d   1       9.177 -12.110  -4.052  0.00  0.00     0.028 H 
ATOM     15  H7  PAF d   1       8.590 -13.113  -2.683  0.00  0.00     0.028 H 
ATOM     16  H8  PAF d   1       9.152 -13.901  -4.196  0.00  0.00     0.028 H 
ENDBRANCH   1  13
BRANCH   1  17
ATOM     17  C6  PAF d   1      11.724 -13.027  -4.161  0.00  0.00     0.026 C 
ATOM     18  H9  PAF d   1      11.462 -12.124  -4.731  0.00  0.00     0.075 H 
ATOM     19  H10 PAF d   1      11.569 -13.916  -4.790  0.00  0.00     0.075 H 
BRANCH  17  20
ATOM     20  O4  PAF d   1      13.143 -12.954  -3.801  0.00  0.00    -0.400 OA
ATOM     21  H11 PAF d   1      13.386 -13.733  -3.315  0.00  0.00     0.209 HD
ENDBRANCH  17  20
ENDBRANCH   1  17
TORSDOF 7
