REMARK  15 active torsions:
REMARK  status: ('A' for Active; 'I' for Inactive)
REMARK    1  A    between atoms: C1_1  and  O2_2 
REMARK    2  A    between atoms: C1_1  and  C3_3 
REMARK    3  A    between atoms: C1_1  and  C15_9 
REMARK    4  A    between atoms: C48_31  and  C1_1 
REMARK    5  A    between atoms: C15_9  and  C18_10 
REMARK    6  A    between atoms: C18_10  and  C21_11 
REMARK    7  A    between atoms: C21_11  and  C24_12 
REMARK    8  A    between atoms: C24_12  and  O27_13 
REMARK    9  A    between atoms: O27_13  and  C28_14 
REMARK   10  A    between atoms: C32_15  and  C33_16 
REMARK   11  A    between atoms: C32_15  and  C34_17 
REMARK   12  A    between atoms: N42_25  and  C32_15 
REMARK   13  A    between atoms: C33_16  and  N35_18 
REMARK   14  A    between atoms: C34_17  and  C36_19 
REMARK   15  A    between atoms: N35_18  and  C51_34 
REMARK       I    between atoms: C43_26  and  N42_25 
REMARK       I    between atoms: N45_28  and  C43_26 
ROOT
ATOM      1  N42 72X d   1      26.535  -9.028 -10.622  0.00  0.00    -0.337 N 
ATOM      2  C43 72X d   1      26.258 -10.177 -11.342  0.00  0.00     0.318 C 
ATOM      3  O44 72X d   1      25.953 -11.234 -10.790  0.00  0.00    -0.247 OA
ATOM      4  N45 72X d   1      26.365 -10.015 -12.732  0.00  0.00    -0.334 N 
ATOM      5  C46 72X d   1      27.606 -11.560 -14.003  0.00  0.00    -0.050 C 
ATOM      6  C47 72X d   1      28.323 -10.347 -14.687  0.00  0.00    -0.056 C 
ATOM      7  C48 72X d   1      28.317  -8.962 -13.823  0.00  0.00    -0.004 C 
ATOM      8  C49 72X d   1      26.754  -8.717 -13.446  0.00  0.00     0.006 C 
ATOM      9  C50 72X d   1      26.126 -11.100 -13.655  0.00  0.00    -0.001 C 
ATOM     10  H35 72X d   1      26.772  -8.225 -11.168  0.00  0.00     0.164 HD
ATOM     11  H36 72X d   1      28.139 -11.842 -13.083  0.00  0.00     0.035 H 
ATOM     12  H37 72X d   1      27.581 -12.419 -14.690  0.00  0.00     0.035 H 
ATOM     13  H38 72X d   1      27.822 -10.152 -15.647  0.00  0.00     0.033 H 
ATOM     14  H39 72X d   1      29.370 -10.630 -14.871  0.00  0.00     0.033 H 
ATOM     15  H40 72X d   1      28.872  -9.129 -12.888  0.00  0.00     0.047 H 
ATOM     16  H41 72X d   1      26.639  -7.849 -12.780  0.00  0.00     0.065 H 
ATOM     17  H42 72X d   1      26.148  -8.567 -14.351  0.00  0.00     0.065 H 
ATOM     18  H43 72X d   1      25.593 -10.753 -14.552  0.00  0.00     0.064 H 
ATOM     19  H44 72X d   1      25.555 -11.912 -13.180  0.00  0.00     0.064 H 
ENDROOT
BRANCH   1  20
ATOM     20  C32 72X d   1      26.530  -8.826  -9.182  0.00  0.00     0.037 C 
ATOM     21  H17 72X d   1      26.753  -9.778  -8.679  0.00  0.00     0.075 H 
BRANCH  20  22
ATOM     22  C33 72X d   1      25.114  -8.355  -8.723  0.00  0.00     0.100 C 
ATOM     23  H18 72X d   1      24.381  -9.127  -8.999  0.00  0.00     0.078 H 
ATOM     24  H19 72X d   1      24.871  -7.416  -9.242  0.00  0.00     0.078 H 
BRANCH  22  25
ATOM     25  N35 72X d   1      25.030  -8.125  -7.270  0.00  0.00    -0.077 N 
ATOM     26  H22 72X d   1      24.131  -7.715  -7.069  0.00  0.00     0.276 HD
ATOM     27  H23 72X d   1      25.759  -7.479  -7.013  0.00  0.00     0.276 HD
BRANCH  25  28
ATOM     28  C51 72X d   1      25.176  -9.329  -6.443  0.00  0.00     0.065 C 
ATOM     29  H45 72X d   1      25.099  -9.055  -5.380  0.00  0.00     0.067 H 
ATOM     30  H46 72X d   1      26.157  -9.788  -6.633  0.00  0.00     0.067 H 
ATOM     31  H47 72X d   1      24.381 -10.046  -6.695  0.00  0.00     0.067 H 
ENDBRANCH  25  28
ENDBRANCH  22  25
ENDBRANCH  20  22
BRANCH  20  32
ATOM     32  C34 72X d   1      27.664  -7.816  -8.854  0.00  0.00    -0.041 C 
ATOM     33  H20 72X d   1      27.651  -7.646  -7.767  0.00  0.00     0.036 H 
ATOM     34  H21 72X d   1      27.430  -6.876  -9.375  0.00  0.00     0.036 H 
BRANCH  32  35
ATOM     35  C36 72X d   1      29.108  -8.216  -9.244  0.00  0.00    -0.052 C 
ATOM     36  C37 72X d   1      30.119  -7.105  -8.861  0.00  0.00    -0.062 C 
ATOM     37  C38 72X d   1      31.595  -7.457  -9.234  0.00  0.00    -0.065 C 
ATOM     38  H25 72X d   1      30.063  -6.941  -7.775  0.00  0.00     0.033 H 
ATOM     39  H26 72X d   1      29.837  -6.180  -9.386  0.00  0.00     0.033 H 
ATOM     40  C39 72X d   1      32.076  -8.839  -8.688  0.00  0.00    -0.065 C 
ATOM     41  H27 72X d   1      32.251  -6.676  -8.823  0.00  0.00     0.033 H 
ATOM     42  H28 72X d   1      31.681  -7.469 -10.331  0.00  0.00     0.033 H 
ATOM     43  C41 72X d   1      31.028 -10.035  -8.872  0.00  0.00    -0.065 C 
ATOM     44  H29 72X d   1      32.284  -8.729  -7.614  0.00  0.00     0.033 H 
ATOM     45  H30 72X d   1      33.002  -9.112  -9.215  0.00  0.00     0.033 H 
ATOM     46  C40 72X d   1      29.556  -9.588  -8.512  0.00  0.00    -0.062 C 
ATOM     47  H33 72X d   1      31.318 -10.867  -8.213  0.00  0.00     0.033 H 
ATOM     48  H34 72X d   1      31.052 -10.371  -9.919  0.00  0.00     0.033 H 
ATOM     49  H31 72X d   1      28.864 -10.388  -8.815  0.00  0.00     0.033 H 
ATOM     50  H32 72X d   1      29.492  -9.441  -7.424  0.00  0.00     0.033 H 
ATOM     51  H24 72X d   1      29.142  -8.367 -10.333  0.00  0.00     0.040 H 
ENDBRANCH  32  35
ENDBRANCH  20  32
ENDBRANCH   1  20
BRANCH   7  52
ATOM     52  C1  72X d   1      29.052  -7.736 -14.580  0.00  0.00     0.090 C 
BRANCH  52  53
ATOM     53  O2  72X d   1      28.338  -7.442 -15.802  0.00  0.00    -0.385 OA
ATOM     54  H1  72X d   1      27.433  -7.240 -15.598  0.00  0.00     0.211 HD
ENDBRANCH  52  53
BRANCH  52  55
ATOM     55  C3  72X d   1      30.557  -8.072 -14.920  0.00  0.00    -0.022 A 
ATOM     56  C4  72X d   1      31.201  -8.081 -16.228  0.00  0.00    -0.074 A 
ATOM     57  C6  72X d   1      32.622  -8.420 -16.331  0.00  0.00    -0.081 A 
ATOM     58  H2  72X d   1      30.632  -7.838 -17.118  0.00  0.00     0.084 H 
ATOM     59  C8  72X d   1      33.400  -8.753 -15.141  0.00  0.00    -0.062 A 
ATOM     60  H4  72X d   1      33.102  -8.424 -17.303  0.00  0.00     0.083 H 
ATOM     61  C7  72X d   1      32.777  -8.752 -13.813  0.00  0.00     0.034 A 
ATOM     62  H5  72X d   1      34.450  -9.004 -15.240  0.00  0.00     0.086 H 
ATOM     63  C5  72X d   1      31.383  -8.421 -13.660  0.00  0.00    -0.053 A 
ATOM     64 CL1  72X d   1      33.692  -9.144 -12.446  0.00  0.00    -0.084 Cl
ATOM     65  H3  72X d   1      30.922  -8.417 -12.679  0.00  0.00     0.087 H 
ENDBRANCH  52  55
BRANCH  52  66
ATOM     66  C15 72X d   1      28.981  -6.449 -13.672  0.00  0.00    -0.032 C 
ATOM     67  H6  72X d   1      29.470  -6.706 -12.721  0.00  0.00     0.037 H 
ATOM     68  H7  72X d   1      27.915  -6.247 -13.493  0.00  0.00     0.037 H 
BRANCH  66  69
ATOM     69  C18 72X d   1      29.615  -5.111 -14.153  0.00  0.00    -0.060 C 
ATOM     70  H8  72X d   1      29.118  -4.825 -15.092  0.00  0.00     0.033 H 
ATOM     71  H9  72X d   1      30.682  -5.297 -14.345  0.00  0.00     0.033 H 
BRANCH  69  72
ATOM     72  C21 72X d   1      29.515  -3.907 -13.182  0.00  0.00    -0.045 C 
ATOM     73  H10 72X d   1      30.027  -3.051 -13.645  0.00  0.00     0.036 H 
ATOM     74  H11 72X d   1      30.027  -4.178 -12.247  0.00  0.00     0.036 H 
BRANCH  72  75
ATOM     75  C24 72X d   1      28.077  -3.473 -12.832  0.00  0.00     0.019 C 
ATOM     76  H12 72X d   1      28.111  -2.573 -12.201  0.00  0.00     0.074 H 
ATOM     77  H13 72X d   1      27.574  -4.285 -12.286  0.00  0.00     0.074 H 
BRANCH  75  78
ATOM     78  O27 72X d   1      27.365  -3.191 -14.005  0.00  0.00    -0.396 OA
BRANCH  78  79
ATOM     79  C28 72X d   1      26.034  -2.806 -13.751  0.00  0.00     0.004 C 
ATOM     80  H14 72X d   1      25.524  -2.598 -14.703  0.00  0.00     0.066 H 
ATOM     81  H15 72X d   1      26.027  -1.901 -13.126  0.00  0.00     0.066 H 
ATOM     82  H16 72X d   1      25.511  -3.619 -13.226  0.00  0.00     0.066 H 
ENDBRANCH  78  79
ENDBRANCH  75  78
ENDBRANCH  72  75
ENDBRANCH  69  72
ENDBRANCH  66  69
ENDBRANCH  52  66
ENDBRANCH   7  52
TORSDOF 15
