REMARK  7 active torsions:
REMARK  status: ('A' for Active; 'I' for Inactive)
REMARK    1  A    between atoms: C1_1  and  C13_13 
REMARK    2  A    between atoms: O2_21  and  C2_2 
REMARK    3  A    between atoms: C7_7  and  O2_21 
REMARK    4  A    between atoms: C8_8  and  O1_20 
REMARK    5  A    between atoms: C13_13  and  C15_14 
REMARK    6  A    between atoms: C15_14  and  C17_15 
REMARK    7  A    between atoms: C15_14  and  N1_19 
ROOT
ATOM      1  C1   T3 d   1       6.754  20.830  27.533  0.00  0.00    -0.053 A 
ATOM      2  C3   T3 d   1       7.014  20.406  28.932  0.00  0.00    -0.058 A 
ATOM      3  C5   T3 d   1       6.292  19.390  29.482  0.00  0.00     0.042 A 
ATOM      4  C7   T3 d   1       5.290  18.757  28.718  0.00  0.00     0.109 A 
ATOM      5  C9   T3 d   1       5.045  19.158  27.362  0.00  0.00     0.042 A 
ATOM      6  C11  T3 d   1       5.793  20.209  26.787  0.00  0.00    -0.058 A 
ATOM      7  I1   T3 d   1       6.677  18.782  31.469  0.00  0.00    -0.042 I 
ATOM      8  I3   T3 d   1       3.568  18.157  26.235  0.00  0.00    -0.042 I 
ATOM      9  H1   T3 d   1       7.779  20.905  29.516  0.00  0.00     0.086 H 
ATOM     10  H4   T3 d   1       5.607  20.519  25.765  0.00  0.00     0.086 H 
ENDROOT
BRANCH   4  11
ATOM     11  O2   T3 d   1       4.566  17.689  29.245  0.00  0.00    -0.308 OA
BRANCH  11  12
ATOM     12  C2   T3 d   1       3.470  18.060  30.034  0.00  0.00     0.077 A 
ATOM     13  C4   T3 d   1       3.084  17.185  31.101  0.00  0.00    -0.032 A 
ATOM     14  C6   T3 d   1       1.957  17.476  31.888  0.00  0.00     0.042 A 
ATOM     15  H2   T3 d   1       3.665  16.293  31.302  0.00  0.00     0.089 H 
ATOM     16  C8   T3 d   1       1.219  18.598  31.629  0.00  0.00     0.082 A 
ATOM     17  I2   T3 d   1       1.459  16.147  33.457  0.00  0.00    -0.042 I 
ATOM     18  C10  T3 d   1       1.614  19.497  30.522  0.00  0.00    -0.047 A 
ATOM     19  C12  T3 d   1       2.707  19.215  29.758  0.00  0.00    -0.048 A 
ATOM     20  H3   T3 d   1       1.030  20.387  30.317  0.00  0.00     0.087 H 
ATOM     21  H5   T3 d   1       2.988  19.873  28.944  0.00  0.00     0.087 H 
BRANCH  16  22
ATOM     22  O1   T3 d   1       0.079  18.897  32.388  0.00  0.00    -0.359 OA
ATOM     23  H12  T3 d   1      -0.682  18.918  31.820  0.00  0.00     0.217 HD
ENDBRANCH  16  22
ENDBRANCH  11  12
ENDBRANCH   4  11
BRANCH   1  24
ATOM     24  C13  T3 d   1       7.575  21.956  26.916  0.00  0.00    -0.005 C 
ATOM     25  H6   T3 d   1       8.362  22.229  27.634  0.00  0.00     0.044 H 
ATOM     26  H7   T3 d   1       6.904  22.814  26.763  0.00  0.00     0.044 H 
BRANCH  24  27
ATOM     27  C15  T3 d   1       8.251  21.650  25.579  0.00  0.00     0.186 C 
ATOM     28  H8   T3 d   1       7.457  21.737  24.823  0.00  0.00     0.101 H 
BRANCH  27  29
ATOM     29  C17  T3 d   1       9.290  22.691  25.204  0.00  0.00     0.204 C 
ATOM     30  O3   T3 d   1      10.235  22.377  24.564  0.00  0.00    -0.646 OA
ATOM     31  O4   T3 d   1       9.092  24.014  25.611  0.00  0.00    -0.646 OA
ENDBRANCH  27  29
BRANCH  27  32
ATOM     32  N1   T3 d   1       8.746  20.294  25.459  0.00  0.00    -0.065 N 
ATOM     33  H9   T3 d   1       9.175  20.172  24.555  0.00  0.00     0.275 HD
ATOM     34  H10  T3 d   1       7.980  19.647  25.557  0.00  0.00     0.275 HD
ATOM     35  H11  T3 d   1       9.428  20.120  26.181  0.00  0.00     0.275 HD
ENDBRANCH  27  32
ENDBRANCH  24  27
ENDBRANCH   1  24
TORSDOF 7
