REMARK  11 active torsions:
REMARK  status: ('A' for Active; 'I' for Inactive)
REMARK       I    between atoms: C26_2  and  N4_3 
REMARK    1  A    between atoms: C26_2  and  C8_4 
REMARK    2  A    between atoms: C14_10  and  S_11 
REMARK    3  A    between atoms: S_11  and  C17_13 
REMARK    4  A    between atoms: C21_15  and  C23_16 
REMARK       I    between atoms: C23_16  and  N3_17 
REMARK    5  A    between atoms: N3_17  and  C25_18 
REMARK    6  A    between atoms: N3_17  and  C24_19 
REMARK    7  A    between atoms: C11_26  and  C12_27 
REMARK    8  A    between atoms: C7_28  and  N1_29 
REMARK    9  A    between atoms: N1_29  and  C6_30 
REMARK   10  A    between atoms: C2_35  and  O1_36 
REMARK   11  A    between atoms: O1_36  and  C1_37 
ROOT
ATOM      1  C8  066 d   1      44.450  46.253  63.985  0.00  0.00     0.076 A 
ATOM      2  C9  066 d   1      43.835  46.294  65.234  0.00  0.00     0.020 A 
ATOM      3  N2  066 d   1      44.470  46.712  66.352  0.00  0.00    -0.259 NA
ATOM      4  C10 066 d   1      45.738  47.139  66.263  0.00  0.00     0.075 A 
ATOM      5  C16 066 d   1      46.413  47.163  65.042  0.00  0.00     0.022 A 
ATOM      6  C15 066 d   1      47.736  47.617  64.982  0.00  0.00    -0.047 A 
ATOM      7  C14 066 d   1      48.375  48.054  66.146  0.00  0.00     0.065 A 
ATOM      8  C13 066 d   1      47.686  48.029  67.359  0.00  0.00    -0.054 A 
ATOM      9  C11 066 d   1      46.372  47.572  67.423  0.00  0.00    -0.031 A 
ATOM     10  C7  066 d   1      45.765  46.721  63.878  0.00  0.00     0.062 A 
ATOM     11  H3  066 d   1      42.801  45.977  65.313  0.00  0.00     0.116 H 
ATOM     12  H4  066 d   1      48.264  47.630  64.035  0.00  0.00     0.087 H 
ATOM     13  H15 066 d   1      48.179  48.369  68.262  0.00  0.00     0.086 H 
ENDROOT
BRANCH   7  14
ATOM     14  S   066 d   1      50.030  48.684  66.044  0.00  0.00     0.206 S 
ATOM     15  O3  066 d   1      50.400  48.662  64.655  0.00  0.00    -0.217 OA
ATOM     16  O2  066 d   1      50.092  49.953  66.722  0.00  0.00    -0.217 OA
BRANCH  14  17
ATOM     17  C17 066 d   1      51.111  47.643  66.922  0.00  0.00     0.065 A 
ATOM     18  C22 066 d   1      51.452  46.477  66.315  0.00  0.00    -0.046 A 
ATOM     19  C21 066 d   1      52.309  45.614  66.936  0.00  0.00     0.033 A 
ATOM     20  H5  066 d   1      51.045  46.232  65.341  0.00  0.00     0.087 H 
ATOM     21  C20 066 d   1      52.834  45.901  68.191  0.00  0.00    -0.068 A 
ATOM     22  C19 066 d   1      52.497  47.102  68.811  0.00  0.00    -0.081 A 
ATOM     23  H12 066 d   1      53.498  45.198  68.681  0.00  0.00     0.085 H 
ATOM     24  C18 066 d   1      51.629  47.983  68.169  0.00  0.00    -0.062 A 
ATOM     25  H13 066 d   1      52.906  47.349  69.784  0.00  0.00     0.083 H 
ATOM     26  H14 066 d   1      51.360  48.924  68.636  0.00  0.00     0.085 H 
BRANCH  19  27
ATOM     27  C23 066 d   1      52.596  44.378  66.169  0.00  0.00     0.253 C 
ATOM     28  N3  066 d   1      52.968  44.512  64.888  0.00  0.00    -0.357 N 
ATOM     29  O4  066 d   1      52.441  43.310  66.730  0.00  0.00    -0.267 OA
BRANCH  28  30
ATOM     30  C25 066 d   1      53.416  43.394  64.104  0.00  0.00    -0.016 C 
ATOM     31  H6  066 d   1      53.668  43.735  63.089  0.00  0.00     0.056 H 
ATOM     32  H7  066 d   1      52.617  42.640  64.050  0.00  0.00     0.056 H 
ATOM     33  H8  066 d   1      54.307  42.951  64.573  0.00  0.00     0.056 H 
ENDBRANCH  28  30
BRANCH  28  34
ATOM     34  C24 066 d   1      52.962  45.778  64.152  0.00  0.00    -0.016 C 
ATOM     35  H9  066 d   1      52.610  46.584  64.812  0.00  0.00     0.056 H 
ATOM     36  H10 066 d   1      52.291  45.695  63.285  0.00  0.00     0.056 H 
ATOM     37  H11 066 d   1      53.981  46.006  63.806  0.00  0.00     0.056 H 
ENDBRANCH  28  34
ENDBRANCH  19  27
ENDBRANCH  14  17
ENDBRANCH   7  14
BRANCH   9  38
ATOM     38  C12 066 d   1      45.621  47.538  68.724  0.00  0.00    -0.049 C 
ATOM     39  H16 066 d   1      44.608  47.146  68.552  0.00  0.00     0.033 H 
ATOM     40  H17 066 d   1      45.555  48.556  69.136  0.00  0.00     0.033 H 
ATOM     41  H18 066 d   1      46.150  46.888  69.436  0.00  0.00     0.033 H 
ENDBRANCH   9  38
BRANCH  10  42
ATOM     42  N1  066 d   1      46.454  46.716  62.699  0.00  0.00    -0.355 N 
ATOM     43  H19 066 d   1      46.121  47.245  61.880  0.00  0.00     0.166 HD
BRANCH  42  44
ATOM     44  C6  066 d   1      47.614  45.973  62.652  0.00  0.00     0.035 A 
ATOM     45  C27 066 d   1      48.485  46.074  61.580  0.00  0.00    -0.025 A 
ATOM     46  C2  066 d   1      49.663  45.323  61.515  0.00  0.00     0.070 A 
ATOM     47  H20 066 d   1      48.247  46.753  60.770  0.00  0.00     0.091 H 
ATOM     48  C3  066 d   1      50.024  44.432  62.528  0.00  0.00    -0.051 A 
ATOM     49  C4  066 d   1      49.154  44.306  63.606  0.00  0.00    -0.078 A 
ATOM     50  H23 066 d   1      50.944  43.862  62.476  0.00  0.00     0.087 H 
ATOM     51  C5  066 d   1      47.969  45.081  63.668  0.00  0.00    -0.057 A 
ATOM     52  H22 066 d   1      49.384  43.610  64.404  0.00  0.00     0.083 H 
ATOM     53  H21 066 d   1      47.319  44.979  64.529  0.00  0.00     0.086 H 
BRANCH  46  54
ATOM     54  O1  066 d   1      50.477  45.485  60.431  0.00  0.00    -0.356 OA
BRANCH  54  55
ATOM     55  C1  066 d   1      50.080  46.311  59.347  0.00  0.00     0.010 C 
ATOM     56  H24 066 d   1      50.867  46.311  58.578  0.00  0.00     0.066 H 
ATOM     57  H25 066 d   1      49.920  47.338  59.708  0.00  0.00     0.066 H 
ATOM     58  H26 066 d   1      49.145  45.925  58.915  0.00  0.00     0.066 H 
ENDBRANCH  54  55
ENDBRANCH  46  54
ENDBRANCH  42  44
ENDBRANCH  10  42
BRANCH   1  59
ATOM     59  C26 066 d   1      43.622  45.836  62.781  0.00  0.00     0.253 C 
ATOM     60  O5  066 d   1      44.053  46.063  61.662  0.00  0.00    -0.268 OA
ATOM     61  N4  066 d   1      42.421  45.278  62.969  0.00  0.00    -0.366 N 
ATOM     62  H1  066 d   1      42.091  45.102  63.897  0.00  0.00     0.159 HD
ATOM     63  H2  066 d   1      41.853  45.036  62.182  0.00  0.00     0.159 HD
ENDBRANCH   1  59
TORSDOF 11
