REMARK  3 active torsions:
REMARK  status: ('A' for Active; 'I' for Inactive)
REMARK    1  A    between atoms: C13_7  and  C4_9 
REMARK    2  A    between atoms: C1_16  and  N11_17 
REMARK    3  A    between atoms: N11_17  and  C12_18 
ROOT
ATOM      1  C4  SRE d   1      26.249  21.036  23.512  0.00  0.00    -0.002 C 
ATOM      2  C5  SRE d   1      27.052  20.286  24.529  0.00  0.00    -0.041 A 
ATOM      3  C6  SRE d   1      28.418  20.089  24.298  0.00  0.00    -0.076 A 
ATOM      4  C7  SRE d   1      29.206  19.381  25.202  0.00  0.00    -0.082 A 
ATOM      5  C8  SRE d   1      28.632  18.866  26.358  0.00  0.00    -0.082 A 
ATOM      6  C9  SRE d   1      27.272  19.052  26.597  0.00  0.00    -0.074 A 
ATOM      7  C10 SRE d   1      26.474  19.755  25.693  0.00  0.00    -0.021 A 
ATOM      8  C1  SRE d   1      25.026  19.911  26.019  0.00  0.00     0.127 C 
ATOM      9  C2  SRE d   1      24.226  20.316  24.780  0.00  0.00    -0.034 C 
ATOM     10  C3  SRE d   1      24.897  21.484  24.070  0.00  0.00    -0.052 C 
ATOM     11  H4  SRE d   1      26.047  20.335  22.689  0.00  0.00     0.054 H 
ATOM     12  H5  SRE d   1      28.870  20.494  23.400  0.00  0.00     0.084 H 
ATOM     13  H6  SRE d   1      30.262  19.232  25.005  0.00  0.00     0.083 H 
ATOM     14  H7  SRE d   1      29.240  18.322  27.071  0.00  0.00     0.083 H 
ATOM     15  H8  SRE d   1      26.827  18.645  27.498  0.00  0.00     0.084 H 
ATOM     16  H9  SRE d   1      24.645  18.940  26.368  0.00  0.00     0.091 H 
ATOM     17  H15 SRE d   1      23.212  20.612  25.085  0.00  0.00     0.036 H 
ATOM     18  H16 SRE d   1      24.166  19.460  24.092  0.00  0.00     0.036 H 
ATOM     19  H17 SRE d   1      24.256  21.828  23.245  0.00  0.00     0.034 H 
ATOM     20  H18 SRE d   1      25.050  22.307  24.783  0.00  0.00     0.034 H 
ENDROOT
BRANCH   1  21
ATOM     21  C13 SRE d   1      26.976  22.197  22.928  0.00  0.00    -0.048 A 
ATOM     22  C18 SRE d   1      27.377  23.294  23.704  0.00  0.00    -0.074 A 
ATOM     23  C17 SRE d   1      28.054  24.368  23.121  0.00  0.00    -0.060 A 
ATOM     24  H2  SRE d   1      27.160  23.309  24.766  0.00  0.00     0.084 H 
ATOM     25  C16 SRE d   1      28.321  24.337  21.752  0.00  0.00     0.055 A 
ATOM     26  H1  SRE d   1      28.367  25.213  23.723  0.00  0.00     0.086 H 
ATOM     27 CL19 SRE d   1      29.185  25.667  20.919  0.00  0.00    -0.083 Cl
ATOM     28  C15 SRE d   1      27.921  23.260  20.991  0.00  0.00     0.056 A 
ATOM     29 CL20 SRE d   1      28.303  23.290  19.248  0.00  0.00    -0.083 Cl
ATOM     30  C14 SRE d   1      27.247  22.183  21.563  0.00  0.00    -0.053 A 
ATOM     31  H3  SRE d   1      26.937  21.343  20.951  0.00  0.00     0.087 H 
ENDBRANCH   1  21
BRANCH   8  32
ATOM     32  N11 SRE d   1      24.854  20.881  27.095  0.00  0.00    -0.071 N 
ATOM     33  H10 SRE d   1      25.195  21.763  26.745  0.00  0.00     0.277 HD
ATOM     34  H11 SRE d   1      25.438  20.573  27.857  0.00  0.00     0.277 HD
BRANCH  32  35
ATOM     35  C12 SRE d   1      23.536  21.137  27.658  0.00  0.00     0.065 C 
ATOM     36  H12 SRE d   1      23.617  21.895  28.451  0.00  0.00     0.067 H 
ATOM     37  H13 SRE d   1      23.131  20.206  28.081  0.00  0.00     0.067 H 
ATOM     38  H14 SRE d   1      22.865  21.504  26.868  0.00  0.00     0.067 H 
ENDBRANCH  32  35
ENDBRANCH   8  32
TORSDOF 3
