REMARK  8 active torsions:
REMARK  status: ('A' for Active; 'I' for Inactive)
REMARK    1  A    between atoms: C12_2  and  C9_5 
REMARK    2  A    between atoms: C6_8  and  O5_11 
REMARK    3  A    between atoms: O5_11  and  C3_12 
REMARK    4  A    between atoms: C3_12  and  C2_13 
REMARK    5  A    between atoms: C3_12  and  C16_17 
REMARK    6  A    between atoms: C2_13  and  C1_14 
REMARK    7  A    between atoms: C1_14  and  N4_15 
REMARK    8  A    between atoms: N4_15  and  C22_16 
ROOT
ATOM      1  C3  RFX d   1      26.309  20.234  24.443  0.00  0.00     0.072 C 
ATOM      2  H5  RFX d   1      25.942  19.919  23.455  0.00  0.00     0.091 H 
ENDROOT
BRANCH   1   3
ATOM      3  O5  RFX d   1      26.588  21.638  24.421  0.00  0.00    -0.341 OA
BRANCH   3   4
ATOM      4  C6  RFX d   1      26.995  22.352  23.313  0.00  0.00     0.069 A 
ATOM      5  C11 RFX d   1      27.817  23.462  23.513  0.00  0.00    -0.050 A 
ATOM      6  C10 RFX d   1      28.245  24.233  22.432  0.00  0.00    -0.066 A 
ATOM      7  H2  RFX d   1      28.126  23.727  24.518  0.00  0.00     0.087 H 
ATOM      8  C9  RFX d   1      27.853  23.903  21.134  0.00  0.00     0.048 A 
ATOM      9  H1  RFX d   1      28.885  25.092  22.601  0.00  0.00     0.084 H 
ATOM     10  C8  RFX d   1      27.028  22.794  20.927  0.00  0.00    -0.066 A 
ATOM     11  C7  RFX d   1      26.594  22.022  22.012  0.00  0.00    -0.050 A 
ATOM     12  H4  RFX d   1      26.722  22.530  19.921  0.00  0.00     0.084 H 
ATOM     13  H3  RFX d   1      25.947  21.168  21.845  0.00  0.00     0.087 H 
BRANCH   8  14
ATOM     14  C12 RFX d   1      28.321  24.739  19.970  0.00  0.00     0.417 C 
ATOM     15  F14 RFX d   1      27.285  25.157  19.272  0.00  0.00    -0.166 F 
ATOM     16  F15 RFX d   1      28.974  25.803  20.392  0.00  0.00    -0.166 F 
ATOM     17  F13 RFX d   1      29.113  24.021  19.200  0.00  0.00    -0.166 F 
ENDBRANCH   8  14
ENDBRANCH   3   4
ENDBRANCH   1   3
BRANCH   1  18
ATOM     18  C2  RFX d   1      25.239  19.949  25.494  0.00  0.00    -0.014 C 
ATOM     19  H6  RFX d   1      25.086  20.852  26.104  0.00  0.00     0.039 H 
ATOM     20  H7  RFX d   1      25.580  19.125  26.138  0.00  0.00     0.039 H 
BRANCH  18  21
ATOM     21  C1  RFX d   1      23.916  19.558  24.845  0.00  0.00     0.084 C 
ATOM     22  H8  RFX d   1      23.495  18.699  25.388  0.00  0.00     0.075 H 
ATOM     23  H9  RFX d   1      24.104  19.274  23.799  0.00  0.00     0.075 H 
BRANCH  21  24
ATOM     24  N4  RFX d   1      22.953  20.644  24.869  0.00  0.00    -0.079 N 
ATOM     25  H10 RFX d   1      22.608  20.748  23.928  0.00  0.00     0.276 HD
ATOM     26  H11 RFX d   1      23.458  21.475  25.136  0.00  0.00     0.276 HD
BRANCH  24  27
ATOM     27  C22 RFX d   1      21.790  20.564  25.735  0.00  0.00     0.065 C 
ATOM     28  H12 RFX d   1      21.181  21.473  25.616  0.00  0.00     0.067 H 
ATOM     29  H13 RFX d   1      22.117  20.476  26.781  0.00  0.00     0.067 H 
ATOM     30  H14 RFX d   1      21.190  19.683  25.463  0.00  0.00     0.067 H 
ENDBRANCH  24  27
ENDBRANCH  21  24
ENDBRANCH  18  21
ENDBRANCH   1  18
BRANCH   1  31
ATOM     31  C16 RFX d   1      27.545  19.484  24.768  0.00  0.00    -0.029 A 
ATOM     32  C21 RFX d   1      27.680  18.159  24.359  0.00  0.00    -0.074 A 
ATOM     33  C20 RFX d   1      28.835  17.437  24.645  0.00  0.00    -0.082 A 
ATOM     34  H15 RFX d   1      26.875  17.684  23.811  0.00  0.00     0.084 H 
ATOM     35  C19 RFX d   1      29.865  18.047  25.351  0.00  0.00    -0.083 A 
ATOM     36  H16 RFX d   1      28.930  16.407  24.320  0.00  0.00     0.083 H 
ATOM     37  C18 RFX d   1      29.733  19.372  25.764  0.00  0.00    -0.082 A 
ATOM     38  H17 RFX d   1      30.769  17.494  25.580  0.00  0.00     0.083 H 
ATOM     39  C17 RFX d   1      28.579  20.095  25.476  0.00  0.00    -0.074 A 
ATOM     40  H18 RFX d   1      30.538  19.844  26.316  0.00  0.00     0.083 H 
ATOM     41  H19 RFX d   1      28.485  21.125  25.800  0.00  0.00     0.084 H 
ENDBRANCH   1  31
TORSDOF 8
