REMARK  8 active torsions:
REMARK  status: ('A' for Active; 'I' for Inactive)
REMARK    1  A    between atoms: C12_2  and  C9_5 
REMARK    2  A    between atoms: C6_8  and  O5_11 
REMARK    3  A    between atoms: O5_11  and  C3_12 
REMARK    4  A    between atoms: C3_12  and  C2_13 
REMARK    5  A    between atoms: C3_12  and  C16_17 
REMARK    6  A    between atoms: C2_13  and  C1_14 
REMARK    7  A    between atoms: C1_14  and  N4_15 
REMARK    8  A    between atoms: N4_15  and  C22_16 
ROOT
ATOM      1  C3  SFX d   1      26.058  19.377  23.877  0.00  0.00     0.072 C 
ATOM      2  H5  SFX d   1      26.320  18.957  22.895  0.00  0.00     0.091 H 
ENDROOT
BRANCH   1   3
ATOM      3  O5  SFX d   1      26.826  20.566  24.084  0.00  0.00    -0.341 OA
BRANCH   3   4
ATOM      4  C6  SFX d   1      27.050  21.507  23.109  0.00  0.00     0.069 A 
ATOM      5  C7  SFX d   1      27.711  22.679  23.471  0.00  0.00    -0.050 A 
ATOM      6  C8  SFX d   1      27.958  23.664  22.517  0.00  0.00    -0.066 A 
ATOM      7  H2  SFX d   1      28.033  22.825  24.496  0.00  0.00     0.087 H 
ATOM      8  C9  SFX d   1      27.544  23.478  21.197  0.00  0.00     0.048 A 
ATOM      9  H1  SFX d   1      28.472  24.575  22.800  0.00  0.00     0.084 H 
ATOM     10  C10 SFX d   1      26.884  22.302  20.829  0.00  0.00    -0.066 A 
ATOM     11  C11 SFX d   1      26.637  21.317  21.784  0.00  0.00    -0.050 A 
ATOM     12  H4  SFX d   1      26.565  22.156  19.803  0.00  0.00     0.084 H 
ATOM     13  H3  SFX d   1      26.125  20.404  21.501  0.00  0.00     0.087 H 
BRANCH   8  14
ATOM     14  C12 SFX d   1      27.813  24.538  20.168  0.00  0.00     0.417 C 
ATOM     15  F15 SFX d   1      28.631  24.047  19.259  0.00  0.00    -0.166 F 
ATOM     16  F13 SFX d   1      26.679  24.903  19.596  0.00  0.00    -0.166 F 
ATOM     17  F14 SFX d   1      28.376  25.593  20.727  0.00  0.00    -0.166 F 
ENDBRANCH   8  14
ENDBRANCH   3   4
ENDBRANCH   1   3
BRANCH   1  18
ATOM     18  C2  SFX d   1      26.432  18.354  24.952  0.00  0.00    -0.014 C 
ATOM     19  H6  SFX d   1      25.988  17.381  24.697  0.00  0.00     0.039 H 
ATOM     20  H7  SFX d   1      26.044  18.691  25.925  0.00  0.00     0.039 H 
BRANCH  18  21
ATOM     21  C1  SFX d   1      27.953  18.208  25.038  0.00  0.00     0.084 C 
ATOM     22  H8  SFX d   1      28.318  18.858  25.847  0.00  0.00     0.075 H 
ATOM     23  H9  SFX d   1      28.387  18.534  24.081  0.00  0.00     0.075 H 
BRANCH  21  24
ATOM     24  N4  SFX d   1      28.401  16.852  25.304  0.00  0.00    -0.079 N 
ATOM     25  H10 SFX d   1      27.613  16.358  25.693  0.00  0.00     0.276 HD
ATOM     26  H11 SFX d   1      29.130  16.919  25.997  0.00  0.00     0.276 HD
BRANCH  24  27
ATOM     27  C22 SFX d   1      28.922  16.025  24.229  0.00  0.00     0.065 C 
ATOM     28  H12 SFX d   1      29.206  15.040  24.629  0.00  0.00     0.067 H 
ATOM     29  H13 SFX d   1      29.805  16.510  23.788  0.00  0.00     0.067 H 
ATOM     30  H14 SFX d   1      28.149  15.898  23.456  0.00  0.00     0.067 H 
ENDBRANCH  24  27
ENDBRANCH  21  24
ENDBRANCH  18  21
ENDBRANCH   1  18
BRANCH   1  31
ATOM     31  C16 SFX d   1      24.598  19.685  23.868  0.00  0.00    -0.029 A 
ATOM     32  C17 SFX d   1      23.796  19.164  22.849  0.00  0.00    -0.074 A 
ATOM     33  C18 SFX d   1      22.428  19.441  22.816  0.00  0.00    -0.082 A 
ATOM     34  H15 SFX d   1      24.238  18.541  22.080  0.00  0.00     0.084 H 
ATOM     35  C19 SFX d   1      21.854  20.248  23.799  0.00  0.00    -0.083 A 
ATOM     36  H16 SFX d   1      21.811  19.029  22.026  0.00  0.00     0.083 H 
ATOM     37  C20 SFX d   1      22.651  20.774  24.816  0.00  0.00    -0.082 A 
ATOM     38  H17 SFX d   1      20.792  20.465  23.773  0.00  0.00     0.083 H 
ATOM     39  C21 SFX d   1      24.019  20.498  24.850  0.00  0.00    -0.074 A 
ATOM     40  H18 SFX d   1      22.207  21.399  25.582  0.00  0.00     0.083 H 
ATOM     41  H19 SFX d   1      24.635  20.914  25.639  0.00  0.00     0.084 H 
ENDBRANCH   1  31
TORSDOF 8
