REMARK  14 active torsions:
REMARK  status: ('A' for Active; 'I' for Inactive)
REMARK    1  A    between atoms: C1_1  and  C2_4 
REMARK    2  A    between atoms: C2_4  and  C3_5 
REMARK    3  A    between atoms: C3_5  and  C4_6 
REMARK    4  A    between atoms: C4_6  and  C5_7 
REMARK    5  A    between atoms: C6_8  and  C7_9 
REMARK    6  A    between atoms: C7_9  and  C8_10 
REMARK    7  A    between atoms: C9_11  and  C10_12 
REMARK    8  A    between atoms: C10_12  and  C11_13 
REMARK    9  A    between atoms: C12_14  and  C13_15 
REMARK   10  A    between atoms: C13_15  and  C14_16 
REMARK   11  A    between atoms: C15_17  and  C16_18 
REMARK   12  A    between atoms: C16_18  and  C17_19 
REMARK   13  A    between atoms: C18_20  and  C19_21 
REMARK   14  A    between atoms: C19_21  and  C20_22 
ROOT
ATOM      1  C10 EPA d   1      30.059   7.601  59.992  0.00  0.00    -0.035 C 
ATOM      2  H13 EPA d   1      30.897   7.931  60.623  0.00  0.00     0.044 H 
ATOM      3  H14 EPA d   1      29.507   6.800  60.505  0.00  0.00     0.044 H 
ENDROOT
BRANCH   1   4
ATOM      4  C9  EPA d   1      30.587   7.090  58.668  0.00  0.00    -0.103 C 
ATOM      5  C8  EPA d   1      31.896   6.906  58.460  0.00  0.00    -0.103 C 
ATOM      6  H11 EPA d   1      32.260   6.539  57.502  0.00  0.00     0.076 H 
ATOM      7  H12 EPA d   1      29.885   6.867  57.866  0.00  0.00     0.076 H 
BRANCH   5   8
ATOM      8  C7  EPA d   1      32.857   7.217  59.578  0.00  0.00    -0.035 C 
ATOM      9  H9  EPA d   1      32.870   8.305  59.743  0.00  0.00     0.044 H 
ATOM     10  H10 EPA d   1      32.514   6.711  60.492  0.00  0.00     0.044 H 
BRANCH   8  11
ATOM     11  C6  EPA d   1      34.224   6.767  59.271  0.00  0.00    -0.103 C 
ATOM     12  C5  EPA d   1      35.222   7.651  59.120  0.00  0.00    -0.106 C 
ATOM     13  H7  EPA d   1      36.222   7.271  58.915  0.00  0.00     0.076 H 
ATOM     14  H8  EPA d   1      34.428   5.703  59.165  0.00  0.00     0.076 H 
BRANCH  12  15
ATOM     15  C4  EPA d   1      35.024   9.190  59.223  0.00  0.00    -0.050 C 
ATOM     16  H5  EPA d   1      35.728   9.669  58.527  0.00  0.00     0.038 H 
ATOM     17  H6  EPA d   1      33.992   9.420  58.918  0.00  0.00     0.038 H 
BRANCH  15  18
ATOM     18  C3  EPA d   1      35.253   9.800  60.627  0.00  0.00    -0.053 C 
ATOM     19  H3  EPA d   1      34.519   9.405  61.345  0.00  0.00     0.034 H 
ATOM     20  H4  EPA d   1      36.270   9.579  60.983  0.00  0.00     0.034 H 
BRANCH  18  21
ATOM     21  C2  EPA d   1      35.062  11.324  60.438  0.00  0.00     0.016 C 
ATOM     22  H1  EPA d   1      35.784  11.675  59.686  0.00  0.00     0.049 H 
ATOM     23  H2  EPA d   1      34.039  11.505  60.077  0.00  0.00     0.049 H 
BRANCH  21  24
ATOM     24  C1  EPA d   1      35.273  12.136  61.735  0.00  0.00     0.172 C 
ATOM     25  OB  EPA d   1      36.231  11.862  62.524  0.00  0.00    -0.648 OA
ATOM     26  OA  EPA d   1      34.485  13.075  61.977  0.00  0.00    -0.648 OA
ENDBRANCH  21  24
ENDBRANCH  18  21
ENDBRANCH  15  18
ENDBRANCH  12  15
ENDBRANCH   8  11
ENDBRANCH   5   8
ENDBRANCH   1   4
BRANCH   1  27
ATOM     27  C11 EPA d   1      29.135   8.764  59.724  0.00  0.00    -0.103 C 
ATOM     28  C12 EPA d   1      27.858   8.780  60.185  0.00  0.00    -0.103 C 
ATOM     29  H16 EPA d   1      27.255   9.659  59.964  0.00  0.00     0.076 H 
ATOM     30  H15 EPA d   1      29.502   9.611  59.147  0.00  0.00     0.076 H 
BRANCH  28  31
ATOM     31  C13 EPA d   1      27.202   7.662  60.989  0.00  0.00    -0.035 C 
ATOM     32  H17 EPA d   1      27.976   6.980  61.371  0.00  0.00     0.044 H 
ATOM     33  H18 EPA d   1      26.507   7.104  60.345  0.00  0.00     0.044 H 
BRANCH  31  34
ATOM     34  C14 EPA d   1      26.450   8.261  62.138  0.00  0.00    -0.103 C 
ATOM     35  C15 EPA d   1      25.197   8.090  62.549  0.00  0.00    -0.103 C 
ATOM     36  H20 EPA d   1      24.920   8.646  63.444  0.00  0.00     0.076 H 
ATOM     37  H19 EPA d   1      27.030   8.957  62.741  0.00  0.00     0.076 H 
BRANCH  35  38
ATOM     38  C16 EPA d   1      24.094   7.229  61.949  0.00  0.00    -0.035 C 
ATOM     39  H21 EPA d   1      23.980   6.327  62.568  0.00  0.00     0.044 H 
ATOM     40  H22 EPA d   1      24.392   6.940  60.930  0.00  0.00     0.044 H 
BRANCH  38  41
ATOM     41  C17 EPA d   1      22.755   7.933  61.876  0.00  0.00    -0.103 C 
ATOM     42  C18 EPA d   1      22.413   9.039  61.160  0.00  0.00    -0.107 C 
ATOM     43  H24 EPA d   1      21.374   9.350  61.258  0.00  0.00     0.076 H 
ATOM     44  H23 EPA d   1      21.959   7.496  62.477  0.00  0.00     0.076 H 
BRANCH  42  45
ATOM     45  C19 EPA d   1      23.255   9.901  60.250  0.00  0.00    -0.053 C 
ATOM     46  H25 EPA d   1      24.326   9.759  60.458  0.00  0.00     0.038 H 
ATOM     47  H26 EPA d   1      22.996  10.963  60.369  0.00  0.00     0.038 H 
BRANCH  45  48
ATOM     48  C20 EPA d   1      22.911   9.419  58.864  0.00  0.00    -0.073 C 
ATOM     49  H27 EPA d   1      23.483   9.996  58.123  0.00  0.00     0.027 H 
ATOM     50  H28 EPA d   1      21.835   9.557  58.684  0.00  0.00     0.027 H 
ATOM     51  H29 EPA d   1      23.164   8.352  58.773  0.00  0.00     0.027 H 
ENDBRANCH  45  48
ENDBRANCH  42  45
ENDBRANCH  38  41
ENDBRANCH  35  38
ENDBRANCH  31  34
ENDBRANCH  28  31
ENDBRANCH   1  27
TORSDOF 14
