REMARK  4 active torsions:
REMARK  status: ('A' for Active; 'I' for Inactive)
REMARK    1  A    between atoms: C1_1  and  C2_2 
REMARK    2  A    between atoms: C6_6  and  C8_8 
REMARK    3  A    between atoms: C10_10  and  N11_11 
REMARK    4  A    between atoms: N11_11  and  C12_12 
ROOT
ATOM      1  C8  QIG d   1      15.001  65.255   6.744  0.00  0.00     0.181 A 
ATOM      2  N9  QIG d   1      16.045  65.952   6.237  0.00  0.00    -0.208 NA
ATOM      3  C10 QIG d   1      16.869  66.641   7.080  0.00  0.00     0.143 A 
ATOM      4  C22 QIG d   1      16.665  66.653   8.491  0.00  0.00     0.039 A 
ATOM      5  C23 QIG d   1      17.471  67.344   9.469  0.00  0.00    -0.067 A 
ATOM      6  C24 QIG d   1      17.159  67.272  10.845  0.00  0.00    -0.082 A 
ATOM      7  C25 QIG d   1      16.044  66.510  11.269  0.00  0.00    -0.081 A 
ATOM      8  C26 QIG d   1      15.234  65.814  10.302  0.00  0.00    -0.054 A 
ATOM      9  C27 QIG d   1      15.526  65.876   8.928  0.00  0.00     0.073 A 
ATOM     10  N28 QIG d   1      14.714  65.194   8.075  0.00  0.00    -0.226 NA
ATOM     11  H13 QIG d   1      18.326  67.925   9.144  0.00  0.00     0.085 H 
ATOM     12  H14 QIG d   1      17.769  67.797  11.571  0.00  0.00     0.083 H 
ATOM     13  H15 QIG d   1      15.799  66.450  12.323  0.00  0.00     0.083 H 
ATOM     14  H16 QIG d   1      14.384  65.232  10.640  0.00  0.00     0.087 H 
ENDROOT
BRANCH   3  15
ATOM     15  N11 QIG d   1      17.937  67.334   6.462  0.00  0.00    -0.340 N 
ATOM     16  H7  QIG d   1      18.699  67.563   7.116  0.00  0.00     0.167 HD
BRANCH  15  17
ATOM     17  C12 QIG d   1      18.189  67.783   5.139  0.00  0.00     0.034 A 
ATOM     18  C13 QIG d   1      19.515  68.203   4.792  0.00  0.00    -0.055 A 
ATOM     19  C14 QIG d   1      19.842  68.676   3.487  0.00  0.00    -0.051 A 
ATOM     20  H8  QIG d   1      20.293  68.160   5.545  0.00  0.00     0.087 H 
ATOM     21  C15 QIG d   1      18.784  68.714   2.530  0.00  0.00     0.088 A 
ATOM     22  H9  QIG d   1      20.848  68.992   3.234  0.00  0.00     0.087 H 
ATOM     23  N16 QIG d   1      18.754  69.108   1.215  0.00  0.00    -0.175 NA
ATOM     24  C20 QIG d   1      17.462  68.306   2.825  0.00  0.00     0.013 A 
ATOM     25  N18 QIG d   1      17.526  68.989   0.634  0.00  0.00    -0.288 N 
ATOM     26  C19 QIG d   1      16.749  68.501   1.619  0.00  0.00     0.008 A 
ATOM     27  H10 QIG d   1      17.256  69.219  -0.333  0.00  0.00     0.188 HD
ATOM     28  H11 QIG d   1      15.689  68.281   1.500  0.00  0.00     0.115 H 
ATOM     29  C21 QIG d   1      17.159  67.835   4.146  0.00  0.00    -0.044 A 
ATOM     30  H12 QIG d   1      16.152  67.519   4.392  0.00  0.00     0.088 H 
ENDBRANCH  15  17
ENDBRANCH   3  15
BRANCH   1  31
ATOM     31  C6  QIG d   1      14.139  64.522   5.788  0.00  0.00     0.104 A 
ATOM     32  C5  QIG d   1      14.640  64.049   4.551  0.00  0.00    -0.051 A 
ATOM     33  C4  QIG d   1      13.774  63.359   3.687  0.00  0.00    -0.079 A 
ATOM     34  H6  QIG d   1      15.675  64.217   4.275  0.00  0.00     0.087 H 
ATOM     35  C3  QIG d   1      12.423  63.137   4.041  0.00  0.00    -0.059 A 
ATOM     36  H5  QIG d   1      14.146  62.992   2.737  0.00  0.00     0.083 H 
ATOM     37  C2  QIG d   1      11.971  63.630   5.289  0.00  0.00     0.031 A 
ATOM     38  H4  QIG d   1      11.753  62.605   3.376  0.00  0.00     0.086 H 
ATOM     39  N7  QIG d   1      12.813  64.314   6.156  0.00  0.00    -0.250 NA
BRANCH  37  40
ATOM     40  C1  QIG d   1      10.543  63.427   5.716  0.00  0.00    -0.035 C 
ATOM     41  H1  QIG d   1      10.002  62.874   4.934  0.00  0.00     0.035 H 
ATOM     42  H2  QIG d   1      10.064  64.405   5.872  0.00  0.00     0.035 H 
ATOM     43  H3  QIG d   1      10.519  62.853   6.654  0.00  0.00     0.035 H 
ENDBRANCH  37  40
ENDBRANCH   1  31
TORSDOF 4
