REMARK  5 active torsions:
REMARK  status: ('A' for Active; 'I' for Inactive)
REMARK    1  A    between atoms: C2_2  and  O2_3 
REMARK    2  A    between atoms: C3_4  and  O3_5 
REMARK    3  A    between atoms: C4_6  and  O4_7 
REMARK    4  A    between atoms: C5_8  and  C6_10 
REMARK    5  A    between atoms: C6_10  and  O6_11 
ROOT
ATOM      1  C1  NOJ d   1     -17.167  61.343 105.691  0.00  0.00     0.108 C 
ATOM      2  C2  NOJ d   1     -16.551  60.228 106.558  0.00  0.00     0.086 C 
ATOM      3  C3  NOJ d   1     -16.572  58.934 105.721  0.00  0.00     0.088 C 
ATOM      4  C4  NOJ d   1     -18.054  58.606 105.775  0.00  0.00     0.092 C 
ATOM      5  C5  NOJ d   1     -18.692  59.629 104.838  0.00  0.00     0.149 C 
ATOM      6  N5  NOJ d   1     -18.555  60.997 105.372  0.00  0.00    -0.064 N 
ATOM      7  H1  NOJ d   1     -16.590  61.445 104.760  0.00  0.00     0.079 H 
ATOM      8  H2  NOJ d   1     -17.143  62.294 106.243  0.00  0.00     0.079 H 
ATOM      9  H3  NOJ d   1     -17.209  60.072 107.425  0.00  0.00     0.089 H 
ATOM     10  H5  NOJ d   1     -16.266  59.155 104.688  0.00  0.00     0.091 H 
ATOM     11  H7  NOJ d   1     -18.439  58.743 106.796  0.00  0.00     0.090 H 
ATOM     12  H9  NOJ d   1     -18.184  59.567 103.864  0.00  0.00     0.091 H 
ATOM     13  H10 NOJ d   1     -18.900  61.648 104.684  0.00  0.00     0.277 HD
ATOM     14  H11 NOJ d   1     -19.107  61.072 106.212  0.00  0.00     0.277 HD
ENDROOT
BRANCH   5  15
ATOM     15  C6  NOJ d   1     -20.152  59.386 104.642  0.00  0.00     0.046 C 
ATOM     16  H12 NOJ d   1     -20.688  59.467 105.599  0.00  0.00     0.077 H 
ATOM     17  H13 NOJ d   1     -20.322  58.389 104.210  0.00  0.00     0.077 H 
BRANCH  15  18
ATOM     18  O6  NOJ d   1     -20.586  60.398 103.742  0.00  0.00    -0.399 OA
ATOM     19  H14 NOJ d   1     -21.516  60.296 103.577  0.00  0.00     0.209 HD
ENDBRANCH  15  18
ENDBRANCH   5  15
BRANCH   4  20
ATOM     20  O4  NOJ d   1     -18.293  57.270 105.380  0.00  0.00    -0.391 OA
ATOM     21  H8  NOJ d   1     -19.225  57.090 105.422  0.00  0.00     0.210 HD
ENDBRANCH   4  20
BRANCH   3  22
ATOM     22  O3  NOJ d   1     -15.734  57.855 106.194  0.00  0.00    -0.390 OA
ATOM     23  H6  NOJ d   1     -15.820  57.110 105.611  0.00  0.00     0.210 HD
ENDBRANCH   3  22
BRANCH   2  24
ATOM     24  O2  NOJ d   1     -15.257  60.580 107.086  0.00  0.00    -0.391 OA
ATOM     25  H4  NOJ d   1     -14.659  60.753 106.368  0.00  0.00     0.210 HD
ENDBRANCH   2  24
TORSDOF 5
