REMARK  23 active torsions:
REMARK  status: ('A' for Active; 'I' for Inactive)
REMARK    1  A    between atoms: C3'_1  and  C4'_2 
REMARK    2  A    between atoms: C2'_5  and  C3'_1 
REMARK    3  A    between atoms: C4'_2  and  C5'_3 
REMARK    4  A    between atoms: C1'_4  and  C2'_5 
REMARK    5  A    between atoms: O1_16  and  C1'_4 
REMARK    6  A    between atoms: C2_6  and  O2_7 
REMARK    7  A    between atoms: C3_8  and  O3_9 
REMARK    8  A    between atoms: O3_9  and  C1_18 
REMARK    9  A    between atoms: C4_10  and  O4_11 
REMARK   10  A    between atoms: C5_12  and  C6_14 
REMARK   11  A    between atoms: C6_14  and  O6_15 
REMARK   12  A    between atoms: O1_16  and  C1_17 
REMARK   13  A    between atoms: C2_19  and  O2_24 
REMARK   14  A    between atoms: C3_20  and  O3_25 
REMARK   15  A    between atoms: C4_21  and  O4_26 
REMARK   16  A    between atoms: C5_22  and  C6_23 
REMARK   17  A    between atoms: C6_23  and  O6_28 
REMARK   18  A    between atoms: O2_24  and  C1_29 
REMARK   19  A    between atoms: C2_30  and  O2_35 
REMARK   20  A    between atoms: C3_31  and  O3_36 
REMARK   21  A    between atoms: C4_32  and  O4_37 
REMARK   22  A    between atoms: C5_33  and  C6_34 
REMARK   23  A    between atoms: C6_34  and  O6_39 
ROOT
ATOM      1  H22 OPM d   1      22.928  55.762 133.233  0.00  0.00     0.133 H 
ATOM      2  H23 OPM d   1      21.686  53.759 133.082  0.00  0.00     0.095 H 
ATOM      3  H24 OPM d   1      21.797  53.131 135.496  0.00  0.00     0.091 H 
ATOM      4  H25 OPM d   1      24.775  52.643 134.992  0.00  0.00     0.091 H 
ATOM      5  H26 OPM d   1      23.459  54.813 136.676  0.00  0.00     0.090 H 
ATOM      6  C1  MAN d   1      22.769  55.275 134.206  0.00  0.00     0.159 C 
ATOM      7  C2  MAN d   1      22.615  53.868 133.660  0.00  0.00     0.116 C 
ATOM      8  C3  MAN d   1      22.642  52.897 134.832  0.00  0.00     0.092 C 
ATOM      9  C4  MAN d   1      23.946  53.035 135.600  0.00  0.00     0.090 C 
ATOM     10  C5  MAN d   1      24.195  54.498 135.922  0.00  0.00     0.089 C 
ATOM     11  O5  MAN d   1      24.057  55.348 134.786  0.00  0.00    -0.348 OA
ENDROOT
BRANCH   6  12
ATOM     12  O3  OPM d   1      22.001  56.236 134.710  0.00  0.00    -0.348 OA
BRANCH  12  13
ATOM     13  C3  OPM d   1      21.881  57.614 135.104  0.00  0.00     0.098 C 
ATOM     14  C2  OPM d   1      21.764  57.763 136.624  0.00  0.00     0.110 C 
ATOM     15  C1  OPM d   1      21.465  59.214 137.033  0.00  0.00     0.158 C 
ATOM     16  H12 OPM d   1      22.738  57.493 137.057  0.00  0.00     0.094 H 
ATOM     17  O5  OPM d   1      21.307  60.094 135.907  0.00  0.00    -0.348 OA
ATOM     18  H21 OPM d   1      22.340  59.570 137.596  0.00  0.00     0.133 H 
ATOM     19  C5  OPM d   1      20.415  59.674 134.858  0.00  0.00     0.089 C 
ATOM     20  C4  OPM d   1      20.696  58.246 134.380  0.00  0.00     0.090 C 
ATOM     21  H17 OPM d   1      20.590  60.341 134.001  0.00  0.00     0.090 H 
ATOM     22  H15 OPM d   1      19.799  57.632 134.548  0.00  0.00     0.091 H 
ATOM     23  H14 OPM d   1      22.794  58.140 134.788  0.00  0.00     0.091 H 
BRANCH  14  24
ATOM     24  O2  OPM d   1      20.783  56.857 137.164  0.00  0.00    -0.388 OA
ATOM     25  H13 OPM d   1      20.732  56.971 138.106  0.00  0.00     0.210 HD
ENDBRANCH  14  24
BRANCH  15  26
ATOM     26  O1  OPM d   1      20.334  59.303 137.911  0.00  0.00    -0.359 OA
BRANCH  26  27
ATOM     27  C1' OPM d   1      20.662  58.837 139.238  0.00  0.00     0.023 C 
ATOM     28  H8  OPM d   1      19.842  58.204 139.610  0.00  0.00     0.074 H 
ATOM     29  H9  OPM d   1      21.589  58.247 139.193  0.00  0.00     0.074 H 
BRANCH  27  30
ATOM     30  C2' OPM d   1      20.863  60.013 140.200  0.00  0.00    -0.045 C 
ATOM     31  H10 OPM d   1      20.177  60.822 139.909  0.00  0.00     0.036 H 
ATOM     32  H11 OPM d   1      20.620  59.675 141.218  0.00  0.00     0.036 H 
BRANCH  30  33
ATOM     33  C3' OPM d   1      22.295  60.566 140.200  0.00  0.00    -0.064 C 
ATOM     34  H1  OPM d   1      22.947  59.867 140.745  0.00  0.00     0.033 H 
ATOM     35  H2  OPM d   1      22.642  60.656 139.160  0.00  0.00     0.033 H 
BRANCH  33  36
ATOM     36  C4' OPM d   1      22.372  61.947 140.872  0.00  0.00    -0.068 C 
ATOM     37  H3  OPM d   1      21.364  62.218 141.221  0.00  0.00     0.032 H 
ATOM     38  H4  OPM d   1      22.709  62.677 140.122  0.00  0.00     0.032 H 
BRANCH  36  39
ATOM     39  C5' OPM d   1      23.323  62.011 142.062  0.00  0.00    -0.077 C 
ATOM     40  H5  OPM d   1      23.318  63.028 142.481  0.00  0.00     0.027 H 
ATOM     41  H6  OPM d   1      24.341  61.756 141.732  0.00  0.00     0.027 H 
ATOM     42  H7  OPM d   1      22.997  61.296 142.831  0.00  0.00     0.027 H 
ENDBRANCH  36  39
ENDBRANCH  33  36
ENDBRANCH  30  33
ENDBRANCH  27  30
ENDBRANCH  26  27
ENDBRANCH  15  26
BRANCH  19  43
ATOM     43  C6  OPM d   1      18.955  59.841 135.273  0.00  0.00     0.043 C 
ATOM     44  H18 OPM d   1      18.887  60.542 136.118  0.00  0.00     0.078 H 
ATOM     45  H19 OPM d   1      18.540  58.867 135.571  0.00  0.00     0.078 H 
BRANCH  43  46
ATOM     46  O6  OPM d   1      18.221  60.359 134.152  0.00  0.00    -0.398 OA
ATOM     47  H20 OPM d   1      17.309  60.468 134.395  0.00  0.00     0.209 HD
ENDBRANCH  43  46
ENDBRANCH  19  43
BRANCH  20  48
ATOM     48  O4  OPM d   1      21.013  58.270 132.990  0.00  0.00    -0.390 OA
ATOM     49  H16 OPM d   1      21.157  57.382 132.684  0.00  0.00     0.210 HD
ENDBRANCH  20  48
ENDBRANCH  12  13
ENDBRANCH   6  12
BRANCH   7  50
ATOM     50  O2  MAN d   1      23.750  53.643 132.856  0.00  0.00    -0.346 OA
BRANCH  50  51
ATOM     51  C1  MAN d   1      23.622  54.214 131.537  0.00  0.00     0.159 C 
ATOM     52  C2  MAN d   1      24.283  53.308 130.511  0.00  0.00     0.110 C 
ATOM     53  C3  MAN d   1      25.800  53.336 130.613  0.00  0.00     0.092 C 
ATOM     54  H33 OPM d   1      23.904  52.279 130.601  0.00  0.00     0.094 H 
ATOM     55  C4  MAN d   1      26.313  54.740 130.323  0.00  0.00     0.090 C 
ATOM     56  H34 OPM d   1      26.111  53.026 131.621  0.00  0.00     0.091 H 
ATOM     57  C5  MAN d   1      25.495  55.774 131.100  0.00  0.00     0.089 C 
ATOM     58  H35 OPM d   1      26.239  54.935 129.243  0.00  0.00     0.091 H 
ATOM     59  O5  MAN d   1      24.112  55.539 131.367  0.00  0.00    -0.348 OA
ATOM     60  H36 OPM d   1      25.985  55.864 132.081  0.00  0.00     0.090 H 
ATOM     61  H32 OPM d   1      22.545  54.246 131.316  0.00  0.00     0.133 H 
BRANCH  52  62
ATOM     62  O2  MAN d   1      23.996  53.869 129.260  0.00  0.00    -0.388 OA
ATOM     63  H39 OPM d   1      24.404  53.347 128.579  0.00  0.00     0.210 HD
ENDBRANCH  52  62
BRANCH  53  64
ATOM     64  O3  MAN d   1      26.328  52.465 129.660  0.00  0.00    -0.390 OA
ATOM     65  H40 OPM d   1      26.051  52.739 128.794  0.00  0.00     0.210 HD
ENDBRANCH  53  64
BRANCH  55  66
ATOM     66  O4  MAN d   1      27.654  54.886 130.748  0.00  0.00    -0.390 OA
ATOM     67  H41 OPM d   1      28.201  54.260 130.288  0.00  0.00     0.210 HD
ENDBRANCH  55  66
BRANCH  57  68
ATOM     68  C6  MAN d   1      25.579  57.100 130.407  0.00  0.00     0.043 C 
ATOM     69  H37 OPM d   1      24.727  57.272 129.733  0.00  0.00     0.078 H 
ATOM     70  H38 OPM d   1      26.518  57.218 129.847  0.00  0.00     0.078 H 
BRANCH  68  71
ATOM     71  O6  MAN d   1      25.532  57.917 131.537  0.00  0.00    -0.398 OA
ATOM     72  H42 OPM d   1      24.720  57.762 132.005  0.00  0.00     0.209 HD
ENDBRANCH  68  71
ENDBRANCH  57  68
ENDBRANCH  50  51
ENDBRANCH   7  50
BRANCH   8  73
ATOM     73  O3  MAN d   1      22.552  51.561 134.432  0.00  0.00    -0.390 OA
ATOM     74  H29 OPM d   1      23.295  51.346 133.880  0.00  0.00     0.210 HD
ENDBRANCH   8  73
BRANCH  10  75
ATOM     75  C6  MAN d   1      25.590  54.650 136.503  0.00  0.00     0.043 C 
ATOM     76  H27 OPM d   1      26.327  54.146 135.861  0.00  0.00     0.078 H 
ATOM     77  H28 OPM d   1      25.630  54.221 137.515  0.00  0.00     0.078 H 
BRANCH  75  78
ATOM     78  O6  MAN d   1      25.849  56.038 136.549  0.00  0.00    -0.398 OA
ATOM     79  H31 OPM d   1      25.803  56.397 135.671  0.00  0.00     0.209 HD
ENDBRANCH  75  78
ENDBRANCH  10  75
BRANCH   9  80
ATOM     80  O4  MAN d   1      23.858  52.311 136.811  0.00  0.00    -0.390 OA
ATOM     81  H30 OPM d   1      23.141  52.653 137.332  0.00  0.00     0.210 HD
ENDBRANCH   9  80
TORSDOF 23
