REMARK WARNING: 32 MAX_TORS EXCEEDED!!!
REMARK  62 active torsions:
REMARK  status: ('A' for Active; 'I' for Inactive)
REMARK    1  A    between atoms: C1_1  and  O1_10 
REMARK    2  A    between atoms: C2_2  and  N2_9 
REMARK    3  A    between atoms: C3_3  and  O3_11 
REMARK    4  A    between atoms: O4_12  and  C4_4 
REMARK    5  A    between atoms: C5_5  and  C6_6 
REMARK    6  A    between atoms: C6_6  and  O6_14 
REMARK    7  A    between atoms: C7_7  and  C8_8 
REMARK       I    between atoms: N2_9  and  C7_7 
REMARK    8  A    between atoms: C1_16  and  O4_12 
REMARK    9  A    between atoms: N2_24  and  C2_17 
REMARK   10  A    between atoms: C3_18  and  O3_25 
REMARK   11  A    between atoms: C4_19  and  O4_26 
REMARK   12  A    between atoms: C5_20  and  C6_21 
REMARK   13  A    between atoms: C6_21  and  O6_28 
REMARK   14  A    between atoms: C7_22  and  C8_23 
REMARK       I    between atoms: C7_22  and  N2_24 
REMARK   15  A    between atoms: O4_26  and  C1_30 
REMARK   16  A    between atoms: C2_31  and  O2_36 
REMARK   17  A    between atoms: C3_32  and  O3_37 
REMARK   18  A    between atoms: C4_33  and  O4_38 
REMARK   19  A    between atoms: C5_34  and  C6_35 
REMARK   20  A    between atoms: C6_35  and  O6_40 
REMARK   21  A    between atoms: O3_37  and  C1_41 
REMARK   22  A    between atoms: O6_40  and  C1_74 
REMARK   23  A    between atoms: C2_42  and  O2_47 
REMARK   24  A    between atoms: C3_43  and  O3_48 
REMARK   25  A    between atoms: C4_44  and  O4_49 
REMARK   26  A    between atoms: C5_45  and  C6_46 
REMARK   27  A    between atoms: C6_46  and  O6_51 
REMARK   28  A    between atoms: O2_47  and  C1_52 
REMARK   29  A    between atoms: C2_53  and  O2_58 
REMARK   30  A    between atoms: C3_54  and  O3_59 
REMARK   31  A    between atoms: C4_55  and  O4_60 
REMARK   32  A    between atoms: C5_56  and  C6_57 
REMARK   33  A    between atoms: C6_57  and  O6_62 
REMARK   34  A    between atoms: O2_58  and  C1_63 
REMARK   35  A    between atoms: C2_64  and  O2_69 
REMARK   36  A    between atoms: C3_65  and  O3_70 
REMARK   37  A    between atoms: C4_66  and  O4_71 
REMARK   38  A    between atoms: C5_67  and  C6_68 
REMARK   39  A    between atoms: C6_68  and  O6_73 
REMARK   40  A    between atoms: C2_75  and  O2_80 
REMARK   41  A    between atoms: C3_76  and  O3_81 
REMARK   42  A    between atoms: C4_77  and  O4_82 
REMARK   43  A    between atoms: C5_78  and  C6_79 
REMARK   44  A    between atoms: C6_79  and  O6_84 
REMARK   45  A    between atoms: O3_81  and  C1_85 
REMARK   46  A    between atoms: O6_84  and  C1_96 
REMARK   47  A    between atoms: C2_86  and  O2_91 
REMARK   48  A    between atoms: C3_87  and  O3_92 
REMARK   49  A    between atoms: C4_88  and  O4_93 
REMARK   50  A    between atoms: C5_89  and  C6_90 
REMARK   51  A    between atoms: C6_90  and  O6_95 
REMARK   52  A    between atoms: C2_97  and  O2_102 
REMARK   53  A    between atoms: C3_98  and  O3_103 
REMARK   54  A    between atoms: C4_99  and  O4_104 
REMARK   55  A    between atoms: C5_100  and  C6_101 
REMARK   56  A    between atoms: C6_101  and  O6_106 
REMARK   57  A    between atoms: O2_102  and  C1_107 
REMARK   58  A    between atoms: C2_108  and  O2_113 
REMARK   59  A    between atoms: C3_109  and  O3_114 
REMARK   60  A    between atoms: C4_110  and  O4_115 
REMARK   61  A    between atoms: C5_111  and  C6_112 
REMARK   62  A    between atoms: C6_112  and  O6_117 
ROOT
ATOM      1  C1  NON d   1      21.517  60.387 135.571  0.00  0.00     0.159 C 
ATOM      2  C2  NON d   1      21.359  58.891 135.962  0.00  0.00     0.110 C 
ATOM      3  C3  NON d   1      21.859  58.057 134.761  0.00  0.00     0.098 C 
ATOM      4  C4  NON d   1      20.972  58.355 133.543  0.00  0.00     0.090 C 
ATOM      5  C5  NON d   1      20.328  59.771 133.510  0.00  0.00     0.089 C 
ATOM      6  O5  NON d   1      20.953  60.763 134.310  0.00  0.00    -0.348 OA
ATOM      7  H   NON d   1      22.595  60.444 135.361  0.00  0.00     0.133 H 
ATOM      8  H   NON d   1      22.022  58.694 136.817  0.00  0.00     0.094 H 
ATOM      9  H   NON d   1      22.866  58.428 134.522  0.00  0.00     0.091 H 
ATOM     10  H   NON d   1      20.156  57.618 133.529  0.00  0.00     0.091 H 
ATOM     11  H   NON d   1      20.431  60.101 132.466  0.00  0.00     0.090 H 
ENDROOT
BRANCH   5  12
ATOM     12  C6  NON d   1      18.838  59.826 133.841  0.00  0.00     0.049 C 
ATOM     13  H   NON d   1      18.414  60.804 133.570  0.00  0.00     0.078 H 
ATOM     14  H   NON d   1      18.669  59.636 134.911  0.00  0.00     0.078 H 
BRANCH  12  15
ATOM     15  O6  NON d   1      18.276  58.808 133.061  0.00  0.00    -0.356 OA
BRANCH  15  16
ATOM     16  C1  NON d   1      17.128  59.252 132.320  0.00  0.00     0.158 C 
ATOM     17  C2  NON d   1      16.148  58.083 132.421  0.00  0.00     0.110 C 
ATOM     18  C3  NON d   1      16.802  56.871 131.754  0.00  0.00     0.098 C 
ATOM     19  H   NON d   1      15.983  57.855 133.484  0.00  0.00     0.094 H 
ATOM     20  C4  NON d   1      17.047  57.228 130.288  0.00  0.00     0.090 C 
ATOM     21  H   NON d   1      17.782  56.710 132.227  0.00  0.00     0.091 H 
ATOM     22  C5  NON d   1      17.965  58.449 130.226  0.00  0.00     0.089 C 
ATOM     23  H   NON d   1      16.086  57.471 129.812  0.00  0.00     0.091 H 
ATOM     24  O5  NON d   1      17.450  59.548 130.970  0.00  0.00    -0.348 OA
ATOM     25  H   NON d   1      18.945  58.172 130.642  0.00  0.00     0.090 H 
ATOM     26  H   NON d   1      16.699  60.151 132.786  0.00  0.00     0.133 H 
BRANCH  17  27
ATOM     27  O2  NON d   1      14.892  58.379 131.842  0.00  0.00    -0.388 OA
ATOM     28  H   NON d   1      14.514  59.134 132.277  0.00  0.00     0.210 HD
ENDBRANCH  17  27
BRANCH  18  29
ATOM     29  O3  NON d   1      16.056  55.681 131.946  0.00  0.00    -0.348 OA
BRANCH  29  30
ATOM     30  C1  NON d   1      16.044  55.390 133.359  0.00  0.00     0.159 C 
ATOM     31  C2  NON d   1      16.129  53.890 133.536  0.00  0.00     0.110 C 
ATOM     32  C3  NON d   1      14.808  53.336 133.028  0.00  0.00     0.092 C 
ATOM     33  H   NON d   1      16.959  53.482 132.941  0.00  0.00     0.094 H 
ATOM     34  C4  NON d   1      13.684  53.759 133.972  0.00  0.00     0.090 C 
ATOM     35  H   NON d   1      14.606  53.772 132.038  0.00  0.00     0.091 H 
ATOM     36  C5  NON d   1      13.925  55.126 134.642  0.00  0.00     0.089 C 
ATOM     37  H   NON d   1      13.600  53.001 134.764  0.00  0.00     0.091 H 
ATOM     38  O5  NON d   1      14.904  55.950 134.005  0.00  0.00    -0.348 OA
ATOM     39  H   NON d   1      12.972  55.668 134.547  0.00  0.00     0.090 H 
ATOM     40  H   NON d   1      16.938  55.842 133.814  0.00  0.00     0.133 H 
BRANCH  31  41
ATOM     41  O2  NON d   1      16.339  53.580 134.897  0.00  0.00    -0.388 OA
ATOM     42  H   NON d   1      15.638  53.954 135.418  0.00  0.00     0.210 HD
ENDBRANCH  31  41
BRANCH  32  43
ATOM     43  O3  NON d   1      14.876  51.932 132.878  0.00  0.00    -0.390 OA
ATOM     44  H   NON d   1      15.034  51.531 133.725  0.00  0.00     0.210 HD
ENDBRANCH  32  43
BRANCH  34  45
ATOM     45  O4  NON d   1      12.469  53.806 133.251  0.00  0.00    -0.390 OA
ATOM     46  H   NON d   1      12.316  52.965 132.836  0.00  0.00     0.210 HD
ENDBRANCH  34  45
BRANCH  36  47
ATOM     47  C6  NON d   1      14.204  55.014 136.145  0.00  0.00     0.043 C 
ATOM     48  H   NON d   1      15.238  54.673 136.301  0.00  0.00     0.078 H 
ATOM     49  H   NON d   1      13.508  54.290 136.594  0.00  0.00     0.078 H 
BRANCH  47  50
ATOM     50  O6  NON d   1      14.028  56.276 136.755  0.00  0.00    -0.398 OA
ATOM     51  H   NON d   1      13.135  56.570 136.620  0.00  0.00     0.209 HD
ENDBRANCH  47  50
ENDBRANCH  36  47
ENDBRANCH  29  30
ENDBRANCH  18  29
BRANCH  20  52
ATOM     52  O4  NON d   1      17.637  56.149 129.598  0.00  0.00    -0.390 OA
ATOM     53  H   NON d   1      18.471  55.936 130.000  0.00  0.00     0.210 HD
ENDBRANCH  20  52
BRANCH  22  54
ATOM     54  C6  NON d   1      18.138  58.867 128.778  0.00  0.00     0.049 C 
ATOM     55  H   NON d   1      17.170  59.191 128.368  0.00  0.00     0.078 H 
ATOM     56  H   NON d   1      18.520  58.019 128.191  0.00  0.00     0.078 H 
BRANCH  54  57
ATOM     57  O6  NON d   1      19.055  59.932 128.724  0.00  0.00    -0.356 OA
BRANCH  57  58
ATOM     58  C1  NON d   1      19.135  60.363 127.349  0.00  0.00     0.159 C 
ATOM     59  C2  NON d   1      20.510  60.092 126.719  0.00  0.00     0.116 C 
ATOM     60  C3  NON d   1      21.500  61.222 127.069  0.00  0.00     0.092 C 
ATOM     61  H   NON d   1      20.902  59.162 127.157  0.00  0.00     0.095 H 
ATOM     62  C4  NON d   1      20.981  62.243 128.106  0.00  0.00     0.090 C 
ATOM     63  H   NON d   1      22.382  60.737 127.513  0.00  0.00     0.091 H 
ATOM     64  C5  NON d   1      19.478  62.554 128.083  0.00  0.00     0.089 C 
ATOM     65  H   NON d   1      21.505  63.188 127.900  0.00  0.00     0.091 H 
ATOM     66  O5  NON d   1      18.789  61.717 127.183  0.00  0.00    -0.348 OA
ATOM     67  H   NON d   1      19.081  62.386 129.095  0.00  0.00     0.090 H 
ATOM     68  H   NON d   1      18.398  59.768 126.789  0.00  0.00     0.133 H 
BRANCH  59  69
ATOM     69  O2  NON d   1      20.395  59.885 125.302  0.00  0.00    -0.346 OA
BRANCH  69  70
ATOM     70  C1  NON d   1      20.211  58.478 124.918  0.00  0.00     0.159 C 
ATOM     71  C2  NON d   1      20.724  58.208 123.481  0.00  0.00     0.110 C 
ATOM     72  C3  NON d   1      20.120  56.995 122.745  0.00  0.00     0.092 C 
ATOM     73  H   NON d   1      20.471  59.099 122.888  0.00  0.00     0.094 H 
ATOM     74  C4  NON d   1      18.633  56.782 123.053  0.00  0.00     0.090 C 
ATOM     75  H   NON d   1      20.189  57.215 121.669  0.00  0.00     0.091 H 
ATOM     76  C5  NON d   1      18.072  57.862 123.975  0.00  0.00     0.089 C 
ATOM     77  H   NON d   1      18.520  55.808 123.552  0.00  0.00     0.091 H 
ATOM     78  O5  NON d   1      18.892  57.975 125.127  0.00  0.00    -0.348 OA
ATOM     79  H   NON d   1      18.062  58.824 123.441  0.00  0.00     0.090 H 
ATOM     80  H   NON d   1      20.860  57.897 125.590  0.00  0.00     0.133 H 
BRANCH  71  81
ATOM     81  O2  NON d   1      22.135  58.063 123.479  0.00  0.00    -0.388 OA
ATOM     82  H   NON d   1      22.370  57.258 123.925  0.00  0.00     0.210 HD
ENDBRANCH  71  81
BRANCH  72  83
ATOM     83  O3  NON d   1      20.878  55.810 122.975  0.00  0.00    -0.390 OA
ATOM     84  H   NON d   1      21.792  55.976 122.775  0.00  0.00     0.210 HD
ENDBRANCH  72  83
BRANCH  74  85
ATOM     85  O4  NON d   1      17.894  56.765 121.847  0.00  0.00    -0.390 OA
ATOM     86  H   NON d   1      18.242  56.093 121.273  0.00  0.00     0.210 HD
ENDBRANCH  74  85
BRANCH  76  87
ATOM     87  C6  NON d   1      16.642  57.504 124.394  0.00  0.00     0.043 C 
ATOM     88  H   NON d   1      16.641  57.207 125.453  0.00  0.00     0.078 H 
ATOM     89  H   NON d   1      16.286  56.666 123.778  0.00  0.00     0.078 H 
BRANCH  87  90
ATOM     90  O6  NON d   1      15.774  58.606 124.222  0.00  0.00    -0.398 OA
ATOM     91  H   NON d   1      14.896  58.360 124.488  0.00  0.00     0.209 HD
ENDBRANCH  87  90
ENDBRANCH  76  87
ENDBRANCH  69  70
ENDBRANCH  59  69
BRANCH  60  92
ATOM     92  O3  NON d   1      21.928  61.908 125.910  0.00  0.00    -0.390 OA
ATOM     93  H   NON d   1      22.247  61.281 125.272  0.00  0.00     0.210 HD
ENDBRANCH  60  92
BRANCH  62  94
ATOM     94  O4  NON d   1      21.317  61.828 129.417  0.00  0.00    -0.390 OA
ATOM     95  H   NON d   1      20.816  61.053 129.641  0.00  0.00     0.210 HD
ENDBRANCH  62  94
BRANCH  64  96
ATOM     96  C6  NON d   1      19.205  64.008 127.684  0.00  0.00     0.043 C 
ATOM     97  H   NON d   1      19.747  64.249 126.758  0.00  0.00     0.078 H 
ATOM     98  H   NON d   1      19.533  64.684 128.488  0.00  0.00     0.078 H 
BRANCH  96  99
ATOM     99  O6  NON d   1      17.814  64.149 127.476  0.00  0.00    -0.398 OA
ATOM    100  H   NON d   1      17.537  63.560 126.784  0.00  0.00     0.209 HD
ENDBRANCH  96  99
ENDBRANCH  64  96
ENDBRANCH  57  58
ENDBRANCH  54  57
ENDBRANCH  22  54
ENDBRANCH  15  16
ENDBRANCH  12  15
ENDBRANCH   5  12
BRANCH   4 101
ATOM    101  O4  NON d   1      21.773  58.185 132.394  0.00  0.00    -0.390 OA
ATOM    102  H   NON d   1      22.168  57.321 132.410  0.00  0.00     0.210 HD
ENDBRANCH   4 101
BRANCH   3 103
ATOM    103  O3  NON d   1      22.012  56.655 135.008  0.00  0.00    -0.348 OA
BRANCH 103 104
ATOM    104  C1  NON d   1      23.114  56.076 134.234  0.00  0.00     0.159 C 
ATOM    105  C2  NON d   1      22.863  54.665 133.673  0.00  0.00     0.116 C 
ATOM    106  C3  NON d   1      22.752  53.682 134.836  0.00  0.00     0.092 C 
ATOM    107  H   NON d   1      21.957  54.651 133.049  0.00  0.00     0.095 H 
ATOM    108  C4  NON d   1      24.128  53.643 135.472  0.00  0.00     0.090 C 
ATOM    109  H   NON d   1      22.005  54.052 135.554  0.00  0.00     0.091 H 
ATOM    110  C5  NON d   1      24.549  55.047 135.895  0.00  0.00     0.089 C 
ATOM    111  H   NON d   1      24.846  53.279 134.722  0.00  0.00     0.091 H 
ATOM    112  O5  NON d   1      24.361  56.057 134.904  0.00  0.00    -0.348 OA
ATOM    113  H   NON d   1      23.957  55.328 136.778  0.00  0.00     0.090 H 
ATOM    114  H   NON d   1      23.234  56.740 133.365  0.00  0.00     0.133 H 
BRANCH 105 115
ATOM    115  O2  NON d   1      24.005  54.253 132.937  0.00  0.00    -0.346 OA
BRANCH 115 116
ATOM    116  C1  NON d   1      24.012  54.560 131.524  0.00  0.00     0.160 C 
ATOM    117  C2  NON d   1      24.743  53.452 130.752  0.00  0.00     0.116 C 
ATOM    118  C3  NON d   1      26.268  53.534 130.870  0.00  0.00     0.092 C 
ATOM    119  H   NON d   1      24.409  52.487 131.160  0.00  0.00     0.095 H 
ATOM    120  C4  NON d   1      26.742  54.934 130.520  0.00  0.00     0.090 C 
ATOM    121  H   NON d   1      26.563  53.290 131.901  0.00  0.00     0.091 H 
ATOM    122  C5  NON d   1      25.991  55.925 131.391  0.00  0.00     0.089 C 
ATOM    123  H   NON d   1      26.519  55.138 129.462  0.00  0.00     0.091 H 
ATOM    124  O5  NON d   1      24.588  55.820 131.208  0.00  0.00    -0.348 OA
ATOM    125  H   NON d   1      26.226  55.721 132.446  0.00  0.00     0.090 H 
ATOM    126  H   NON d   1      22.965  54.582 131.187  0.00  0.00     0.133 H 
BRANCH 117 127
ATOM    127  O2  NON d   1      24.450  53.493 129.368  0.00  0.00    -0.346 OA
BRANCH 127 128
ATOM    128  C1  NON d   1      23.060  53.774 129.108  0.00  0.00     0.159 C 
ATOM    129  C2  NON d   1      22.862  53.544 127.609  0.00  0.00     0.110 C 
ATOM    130  C3  NON d   1      23.039  54.852 126.859  0.00  0.00     0.092 C 
ATOM    131  H   NON d   1      23.625  52.833 127.259  0.00  0.00     0.094 H 
ATOM    132  C4  NON d   1      21.946  55.810 127.304  0.00  0.00     0.090 C 
ATOM    133  H   NON d   1      24.021  55.280 127.108  0.00  0.00     0.091 H 
ATOM    134  C5  NON d   1      21.791  55.865 128.827  0.00  0.00     0.089 C 
ATOM    135  H   NON d   1      20.988  55.500 126.861  0.00  0.00     0.091 H 
ATOM    136  O5  NON d   1      22.729  55.085 129.552  0.00  0.00    -0.348 OA
ATOM    137  H   NON d   1      21.997  56.912 129.096  0.00  0.00     0.090 H 
ATOM    138  H   NON d   1      22.430  53.062 129.661  0.00  0.00     0.133 H 
BRANCH 129 139
ATOM    139  O2  NON d   1      21.587  52.991 127.356  0.00  0.00    -0.388 OA
ATOM    140  H   NON d   1      21.494  52.827 126.425  0.00  0.00     0.210 HD
ENDBRANCH 129 139
BRANCH 130 141
ATOM    141  O3  NON d   1      22.972  54.649 125.463  0.00  0.00    -0.390 OA
ATOM    142  H   NON d   1      22.125  54.282 125.238  0.00  0.00     0.210 HD
ENDBRANCH 130 141
BRANCH 132 143
ATOM    143  O4  NON d   1      22.306  57.082 126.831  0.00  0.00    -0.390 OA
ATOM    144  H   NON d   1      22.403  57.052 125.886  0.00  0.00     0.210 HD
ENDBRANCH 132 143
BRANCH 134 145
ATOM    145  C6  NON d   1      20.385  55.570 129.333  0.00  0.00     0.043 C 
ATOM    146  H   NON d   1      19.986  54.684 128.817  0.00  0.00     0.078 H 
ATOM    147  H   NON d   1      19.733  56.434 129.135  0.00  0.00     0.078 H 
BRANCH 145 148
ATOM    148  O6  NON d   1      20.437  55.324 130.728  0.00  0.00    -0.398 OA
ATOM    149  H   NON d   1      21.001  54.578 130.896  0.00  0.00     0.209 HD
ENDBRANCH 145 148
ENDBRANCH 134 145
ENDBRANCH 127 128
ENDBRANCH 117 127
BRANCH 118 150
ATOM    150  O3  NON d   1      26.887  52.638 129.979  0.00  0.00    -0.390 OA
ATOM    151  H   NON d   1      26.640  52.858 129.088  0.00  0.00     0.210 HD
ENDBRANCH 118 150
BRANCH 120 152
ATOM    152  O4  NON d   1      28.141  55.056 130.724  0.00  0.00    -0.390 OA
ATOM    153  H   NON d   1      28.596  54.430 130.173  0.00  0.00     0.210 HD
ENDBRANCH 120 152
BRANCH 122 154
ATOM    154  C6  NON d   1      26.446  57.330 131.039  0.00  0.00     0.043 C 
ATOM    155  H   NON d   1      26.326  57.508 129.960  0.00  0.00     0.078 H 
ATOM    156  H   NON d   1      27.501  57.468 131.318  0.00  0.00     0.078 H 
BRANCH 154 157
ATOM    157  O6  NON d   1      25.629  58.219 131.772  0.00  0.00    -0.398 OA
ATOM    158  H   NON d   1      24.721  58.087 131.528  0.00  0.00     0.209 HD
ENDBRANCH 154 157
ENDBRANCH 122 154
ENDBRANCH 115 116
ENDBRANCH 105 115
BRANCH 106 159
ATOM    159  O3  NON d   1      22.408  52.366 134.458  0.00  0.00    -0.390 OA
ATOM    160  H   NON d   1      23.048  52.039 133.837  0.00  0.00     0.210 HD
ENDBRANCH 106 159
BRANCH 108 161
ATOM    161  O4  NON d   1      24.149  52.749 136.571  0.00  0.00    -0.390 OA
ATOM    162  H   NON d   1      25.029  52.708 136.928  0.00  0.00     0.210 HD
ENDBRANCH 108 161
BRANCH 110 163
ATOM    163  C6  NON d   1      26.023  54.994 136.274  0.00  0.00     0.043 C 
ATOM    164  H   NON d   1      26.629  54.751 135.388  0.00  0.00     0.078 H 
ATOM    165  H   NON d   1      26.183  54.230 137.049  0.00  0.00     0.078 H 
BRANCH 163 166
ATOM    166  O6  NON d   1      26.385  56.260 136.769  0.00  0.00    -0.398 OA
ATOM    167  H   NON d   1      27.303  56.253 137.013  0.00  0.00     0.209 HD
ENDBRANCH 163 166
ENDBRANCH 110 163
ENDBRANCH 103 104
ENDBRANCH   3 103
BRANCH   1 168
ATOM    168  O4  NON d   1      21.374  61.388 136.646  0.00  0.00    -0.348 OA
BRANCH 168 169
ATOM    169  C4  NON d   1      20.116  62.028 136.990  0.00  0.00     0.095 C 
ATOM    170  C3  NON d   1      19.515  63.161 136.103  0.00  0.00     0.087 C 
ATOM    171  C2  NON d   1      18.521  63.964 136.984  0.00  0.00     0.087 C 
ATOM    172  H   NON d   1      18.946  62.673 135.298  0.00  0.00     0.090 H 
ATOM    173  C1  NON d   1      17.505  62.990 137.647  0.00  0.00     0.154 C 
ATOM    174  H   NON d   1      19.099  64.456 137.780  0.00  0.00     0.084 H 
ATOM    175  O5  NON d   1      18.179  61.899 138.289  0.00  0.00    -0.349 OA
ATOM    176  H   NON d   1      17.037  62.511 136.774  0.00  0.00     0.132 H 
ATOM    177  C5  NON d   1      18.934  61.125 137.358  0.00  0.00     0.089 C 
ATOM    178  H   NON d   1      18.334  60.927 136.458  0.00  0.00     0.090 H 
ATOM    179  H   NON d   1      20.377  62.539 137.929  0.00  0.00     0.091 H 
BRANCH 170 180
ATOM    180  O3  NON d   1      20.441  64.034 135.469  0.00  0.00    -0.391 OA
ATOM    181  H   NON d   1      19.967  64.680 134.959  0.00  0.00     0.210 HD
ENDBRANCH 170 180
BRANCH 171 182
ATOM    182  N2  NON d   1      17.806  65.012 136.238  0.00  0.00    -0.349 N 
ATOM    183  C7  NON d   1      17.750  65.165 134.895  0.00  0.00     0.214 C 
ATOM    184  O7  NON d   1      17.096  66.091 134.386  0.00  0.00    -0.274 OA
ATOM    185  H   NON d   1      17.307  65.685 136.784  0.00  0.00     0.163 HD
BRANCH 183 186
ATOM    186  C8  NON d   1      18.505  64.197 134.005  0.00  0.00    -0.003 C 
ATOM    187  H   NON d   1      18.348  64.469 132.951  0.00  0.00     0.040 H 
ATOM    188  H   NON d   1      18.136  63.175 134.178  0.00  0.00     0.040 H 
ATOM    189  H   NON d   1      19.579  64.244 134.240  0.00  0.00     0.040 H 
ENDBRANCH 183 186
ENDBRANCH 171 182
BRANCH 173 190
ATOM    190  O4  NON d   1      16.317  63.534 138.352  0.00  0.00    -0.348 OA
BRANCH 190 191
ATOM    191  C4  NON d   1      16.390  64.563 139.370  0.00  0.00     0.095 C 
ATOM    192  C3  NON d   1      14.918  64.904 139.726  0.00  0.00     0.087 C 
ATOM    193  C2  NON d   1      14.383  64.289 141.036  0.00  0.00     0.086 C 
ATOM    194  H   NON d   1      14.303  64.501 138.908  0.00  0.00     0.090 H 
ATOM    195  C1  NON d   1      15.361  64.496 142.225  0.00  0.00     0.151 C 
ATOM    196  H   NON d   1      13.474  64.851 141.295  0.00  0.00     0.084 H 
ATOM    197  O5  NON d   1      16.698  64.844 141.829  0.00  0.00    -0.349 OA
ATOM    198  H   NON d   1      15.415  63.548 142.781  0.00  0.00     0.132 H 
ATOM    199  C5  NON d   1      17.219  64.236 140.643  0.00  0.00     0.089 C 
ATOM    200  H   NON d   1      17.214  63.144 140.775  0.00  0.00     0.090 H 
ATOM    201  H   NON d   1      16.856  65.448 138.913  0.00  0.00     0.091 H 
BRANCH 192 202
ATOM    202  O3  NON d   1      14.702  66.300 139.780  0.00  0.00    -0.391 OA
ATOM    203  H   NON d   1      13.794  66.471 140.000  0.00  0.00     0.210 HD
ENDBRANCH 192 202
BRANCH 193 204
ATOM    204  N2  NON d   1      13.951  62.885 140.832  0.00  0.00    -0.349 N 
ATOM    205  C7  NON d   1      13.291  62.159 141.750  0.00  0.00     0.214 C 
ATOM    206  O7  NON d   1      13.007  62.654 142.847  0.00  0.00    -0.274 OA
ATOM    207  H   NON d   1      14.164  62.452 139.956  0.00  0.00     0.163 HD
BRANCH 205 208
ATOM    208  C8  NON d   1      12.906  60.728 141.429  0.00  0.00    -0.003 C 
ATOM    209  H   NON d   1      12.377  60.289 142.288  0.00  0.00     0.040 H 
ATOM    210  H   NON d   1      13.813  60.142 141.220  0.00  0.00     0.040 H 
ATOM    211  H   NON d   1      12.249  60.714 140.547  0.00  0.00     0.040 H 
ENDBRANCH 205 208
ENDBRANCH 193 204
BRANCH 195 212
ATOM    212  O1  NON d   1      14.842  65.503 143.095  0.00  0.00    -0.369 OA
ATOM    213  H   NON d   1      14.830  66.337 142.641  0.00  0.00     0.212 HD
ENDBRANCH 195 212
BRANCH 199 214
ATOM    214  C6  NON d   1      18.667  64.717 140.507  0.00  0.00     0.043 C 
ATOM    215  H   NON d   1      19.020  65.113 141.471  0.00  0.00     0.078 H 
ATOM    216  H   NON d   1      18.727  65.505 139.743  0.00  0.00     0.078 H 
BRANCH 214 217
ATOM    217  O6  NON d   1      19.464  63.613 140.121  0.00  0.00    -0.398 OA
ATOM    218  H   NON d   1      19.152  63.274 139.290  0.00  0.00     0.209 HD
ENDBRANCH 214 217
ENDBRANCH 199 214
ENDBRANCH 190 191
ENDBRANCH 173 190
BRANCH 177 219
ATOM    219  C6  NON d   1      19.334  59.776 137.969  0.00  0.00     0.043 C 
ATOM    220  H   NON d   1      18.937  58.958 137.350  0.00  0.00     0.078 H 
ATOM    221  H   NON d   1      18.927  59.696 138.988  0.00  0.00     0.078 H 
BRANCH 219 222
ATOM    222  O6  NON d   1      20.741  59.697 138.014  0.00  0.00    -0.398 OA
ATOM    223  H   NON d   1      21.089  59.768 137.133  0.00  0.00     0.209 HD
ENDBRANCH 219 222
ENDBRANCH 177 219
ENDBRANCH 168 169
ENDBRANCH   1 168
BRANCH   2 224
ATOM    224  O2  NON d   1      20.043  58.525 136.369  0.00  0.00    -0.388 OA
ATOM    225  H   NON d   1      19.780  59.062 137.107  0.00  0.00     0.210 HD
ENDBRANCH   2 224
TORSDOF 62
