REMARK  12 active torsions:
REMARK  status: ('A' for Active; 'I' for Inactive)
REMARK    1  A    between atoms: S36_2  and  C21_4 
REMARK    2  A    between atoms: S36_2  and  N28_5 
REMARK    3  A    between atoms: N28_5  and  C5_6 
REMARK    4  A    between atoms: C9_14  and  C7_18 
REMARK    5  A    between atoms: N27_21  and  C16_22 
REMARK    6  A    between atoms: C17_28  and  C18_29 
REMARK    7  A    between atoms: C17_28  and  C22_32 
REMARK    8  A    between atoms: C8_30  and  O34_31 
REMARK    9  A    between atoms: C22_32  and  C23_33 
REMARK   10  A    between atoms: C23_33  and  C24_34 
REMARK   11  A    between atoms: C24_34  and  C20_35 
REMARK   12  A    between atoms: C24_34  and  C19_36 
ROOT
ATOM      1  C7  B42 d   1      96.549   8.645  55.473  0.00  0.00     0.108 C 
ATOM      2  C10 B42 d   1      97.159   7.646  54.512  0.00  0.00     0.260 C 
ATOM      3  O29 B42 d   1      97.021   6.435  54.710  0.00  0.00    -0.267 OA
ATOM      4  N27 B42 d   1      97.845   8.193  53.426  0.00  0.00    -0.342 N 
ATOM      5  C15 B42 d   1      97.863   9.643  53.189  0.00  0.00     0.011 C 
ATOM      6  C17 B42 d   1      96.553  10.341  53.606  0.00  0.00     0.022 C 
ATOM      7  C8  B42 d   1      96.198   9.869  55.018  0.00  0.00     0.072 C 
ATOM      8  H18 B42 d   1      98.028   9.820  52.116  0.00  0.00     0.066 H 
ATOM      9  H19 B42 d   1      98.692  10.081  53.764  0.00  0.00     0.066 H 
ENDROOT
BRANCH   1  10
ATOM     10  C9  B42 d   1      96.340   8.323  56.902  0.00  0.00     0.156 C 
ATOM     11  N26 B42 d   1      97.157   7.259  57.375  0.00  0.00    -0.263 N 
ATOM     12  S35 B42 d   1      97.083   6.720  58.977  0.00  0.00     0.266 S 
ATOM     13  H7  B42 d   1      97.793   6.817  56.743  0.00  0.00     0.180 HD
ATOM     14  C6  B42 d   1      96.426   8.150  59.773  0.00  0.00     0.110 A 
ATOM     15  O30 B42 d   1      98.409   6.484  59.499  0.00  0.00    -0.200 OA
ATOM     16  O31 B42 d   1      96.037   5.721  59.100  0.00  0.00    -0.200 OA
ATOM     17  C3  B42 d   1      96.609   8.314  61.153  0.00  0.00    -0.032 A 
ATOM     18  C4  B42 d   1      95.704   9.087  59.017  0.00  0.00     0.082 A 
ATOM     19  C5  B42 d   1      96.073   9.435  61.808  0.00  0.00     0.043 A 
ATOM     20  H6  B42 d   1      97.166   7.574  61.716  0.00  0.00     0.089 H 
ATOM     21  C2  B42 d   1      95.360  10.382  61.069  0.00  0.00    -0.054 A 
ATOM     22  C1  B42 d   1      95.182  10.213  59.688  0.00  0.00    -0.051 A 
ATOM     23  H5  B42 d   1      94.943  11.251  61.565  0.00  0.00     0.087 H 
ATOM     24  H8  B42 d   1      94.634  10.961  59.126  0.00  0.00     0.087 H 
ATOM     25  N25 B42 d   1      95.489   8.984  57.630  0.00  0.00    -0.228 NA
BRANCH  19  26
ATOM     26  N28 B42 d   1      96.248   9.644  63.218  0.00  0.00    -0.285 N 
ATOM     27  H4  B42 d   1      96.276  10.580  63.568  0.00  0.00     0.178 HD
BRANCH  26  28
ATOM     28  S36 B42 d   1      96.412   8.335  64.328  0.00  0.00     0.227 S 
ATOM     29  O33 B42 d   1      95.880   7.094  63.786  0.00  0.00    -0.206 OA
ATOM     30  O32 B42 d   1      95.997   8.765  65.640  0.00  0.00    -0.206 OA
BRANCH  28  31
ATOM     31  C21 B42 d   1      98.185   8.238  64.426  0.00  0.00     0.033 C 
ATOM     32  H1  B42 d   1      98.589   7.913  63.456  0.00  0.00     0.051 H 
ATOM     33  H2  B42 d   1      98.470   7.513  65.203  0.00  0.00     0.051 H 
ATOM     34  H3  B42 d   1      98.593   9.227  64.680  0.00  0.00     0.051 H 
ENDBRANCH  28  31
ENDBRANCH  26  28
ENDBRANCH  19  26
ENDBRANCH   1  10
BRANCH   7  35
ATOM     35  O34 B42 d   1      95.509  10.790  55.790  0.00  0.00    -0.363 OA
ATOM     36  H23 B42 d   1      95.331  10.415  56.645  0.00  0.00     0.217 HD
ENDBRANCH   7  35
BRANCH   4  37
ATOM     37  C16 B42 d   1      98.551   7.316  52.487  0.00  0.00     0.015 C 
ATOM     38  C14 B42 d   1      99.950   7.782  52.059  0.00  0.00    -0.046 C 
ATOM     39  C12 B42 d   1     100.094   7.378  50.591  0.00  0.00    -0.063 C 
ATOM     40  H10 B42 d   1     100.721   7.289  52.669  0.00  0.00     0.036 H 
ATOM     41  H11 B42 d   1     100.040   8.873  52.166  0.00  0.00     0.036 H 
ATOM     42  C11 B42 d   1      98.674   7.372  50.033  0.00  0.00    -0.063 C 
ATOM     43  H12 B42 d   1     100.544   6.378  50.509  0.00  0.00     0.033 H 
ATOM     44  H13 B42 d   1     100.717   8.106  50.051  0.00  0.00     0.033 H 
ATOM     45  C13 B42 d   1      97.750   7.072  51.208  0.00  0.00    -0.046 C 
ATOM     46  H16 B42 d   1      98.572   6.595  49.261  0.00  0.00     0.033 H 
ATOM     47  H17 B42 d   1      98.432   8.354  49.600  0.00  0.00     0.033 H 
ATOM     48  H14 B42 d   1      96.875   7.738  51.179  0.00  0.00     0.036 H 
ATOM     49  H15 B42 d   1      97.416   6.025  51.167  0.00  0.00     0.036 H 
ATOM     50  H9  B42 d   1      98.672   6.351  53.000  0.00  0.00     0.072 H 
ENDBRANCH   4  37
BRANCH   6  51
ATOM     51  C18 B42 d   1      96.795  11.873  53.522  0.00  0.00    -0.062 C 
ATOM     52  H20 B42 d   1      95.878  12.406  53.814  0.00  0.00     0.029 H 
ATOM     53  H21 B42 d   1      97.065  12.146  52.491  0.00  0.00     0.029 H 
ATOM     54  H22 B42 d   1      97.613  12.153  54.202  0.00  0.00     0.029 H 
ENDBRANCH   6  51
BRANCH   6  55
ATOM     55  C22 B42 d   1      95.434   9.923  52.622  0.00  0.00    -0.051 C 
ATOM     56  H24 B42 d   1      95.376   8.825  52.609  0.00  0.00     0.034 H 
ATOM     57  H25 B42 d   1      95.701  10.288  51.619  0.00  0.00     0.034 H 
BRANCH  55  58
ATOM     58  C23 B42 d   1      94.057  10.472  52.982  0.00  0.00    -0.061 C 
ATOM     59  H26 B42 d   1      94.014  11.529  52.681  0.00  0.00     0.033 H 
ATOM     60  H27 B42 d   1      93.926  10.396  54.072  0.00  0.00     0.033 H 
BRANCH  58  61
ATOM     61  C24 B42 d   1      92.898   9.725  52.300  0.00  0.00    -0.061 C 
ATOM     62  H28 B42 d   1      93.034   8.646  52.467  0.00  0.00     0.038 H 
BRANCH  61  63
ATOM     63  C20 B42 d   1      91.560  10.144  52.905  0.00  0.00    -0.073 C 
ATOM     64  H29 B42 d   1      90.745   9.600  52.405  0.00  0.00     0.028 H 
ATOM     65  H30 B42 d   1      91.418  11.226  52.766  0.00  0.00     0.028 H 
ATOM     66  H31 B42 d   1      91.553   9.908  53.979  0.00  0.00     0.028 H 
ENDBRANCH  61  63
BRANCH  61  67
ATOM     67  C19 B42 d   1      92.902   9.987  50.786  0.00  0.00    -0.073 C 
ATOM     68  H32 B42 d   1      93.871   9.681  50.364  0.00  0.00     0.028 H 
ATOM     69  H33 B42 d   1      92.743  11.059  50.599  0.00  0.00     0.028 H 
ATOM     70  H34 B42 d   1      92.096   9.408  50.312  0.00  0.00     0.028 H 
ENDBRANCH  61  67
ENDBRANCH  58  61
ENDBRANCH  55  58
ENDBRANCH   6  55
TORSDOF 12
