REMARK  14 active torsions:
REMARK  status: ('A' for Active; 'I' for Inactive)
REMARK    1  A    between atoms: C17_2  and  C14_4 
REMARK    2  A    between atoms: C14_4  and  O11_5 
REMARK    3  A    between atoms: O11_5  and  C5_6 
REMARK    4  A    between atoms: C2_9  and  C6_10 
REMARK    5  A    between atoms: C1_11  and  C4_12 
REMARK    6  A    between atoms: C3_13  and  S7_14 
REMARK    7  A    between atoms: S7_14  and  C13_15 
REMARK    8  A    between atoms: C15_18  and  O1_19 
REMARK    9  A    between atoms: O1_19  and  C7_20 
REMARK   10  A    between atoms: C7_20  and  C11_21 
REMARK   11  A    between atoms: C23_24  and  C24_25 
REMARK   12  A    between atoms: C24_25  and  O25_26 
REMARK   13  A    between atoms: O25_26  and  C26_27 
REMARK   14  A    between atoms: C31_32  and  C32_33 
ROOT
ATOM      1  C13 D32 d   1      36.517  69.557  -2.569  0.00  0.00     0.039 A 
ATOM      2  C16 D32 d   1      35.915  70.632  -1.937  0.00  0.00    -0.063 A 
ATOM      3  C20 D32 d   1      35.071  70.492  -0.794  0.00  0.00    -0.073 A 
ATOM      4  C15 D32 d   1      36.307  68.307  -2.090  0.00  0.00     0.086 A 
ATOM      5  C18 D32 d   1      35.478  68.154  -0.941  0.00  0.00    -0.041 A 
ATOM      6  C23 D32 d   1      34.877  69.233  -0.267  0.00  0.00    -0.031 A 
ATOM      7  H11 D32 d   1      36.093  71.627  -2.329  0.00  0.00     0.085 H 
ATOM      8  H12 D32 d   1      34.593  71.358  -0.350  0.00  0.00     0.084 H 
ATOM      9  H18 D32 d   1      35.301  67.152  -0.566  0.00  0.00     0.088 H 
ENDROOT
BRANCH   1  10
ATOM     10  S7  D32 d   1      37.516  69.758  -3.951  0.00  0.00    -0.087 SA
BRANCH  10  11
ATOM     11  C3  D32 d   1      37.223  71.375  -4.490  0.00  0.00     0.012 A 
ATOM     12  C8  D32 d   1      37.894  72.470  -3.942  0.00  0.00    -0.063 A 
ATOM     13  C10 D32 d   1      37.594  73.793  -4.487  0.00  0.00    -0.049 A 
ATOM     14  H4  D32 d   1      38.612  72.344  -3.140  0.00  0.00     0.085 H 
ATOM     15  C5  D32 d   1      36.656  74.003  -5.479  0.00  0.00     0.075 A 
ATOM     16  H3  D32 d   1      38.132  74.648  -4.095  0.00  0.00     0.087 H 
ATOM     17  C2  D32 d   1      36.012  72.889  -5.974  0.00  0.00    -0.021 A 
ATOM     18  C1  D32 d   1      36.315  71.614  -5.519  0.00  0.00    -0.036 A 
BRANCH  15  19
ATOM     19  O11 D32 d   1      36.307  75.227  -6.072  0.00  0.00    -0.340 OA
BRANCH  19  20
ATOM     20  C14 D32 d   1      36.620  76.459  -5.370  0.00  0.00     0.105 C 
ATOM     21  H1  D32 d   1      35.999  77.277  -5.764  0.00  0.00     0.091 H 
ATOM     22  H2  D32 d   1      36.422  76.333  -4.295  0.00  0.00     0.091 H 
BRANCH  20  23
ATOM     23  C17 D32 d   1      38.072  76.780  -5.582  0.00  0.00     0.198 C 
ATOM     24  O22 D32 d   1      38.621  77.797  -5.120  0.00  0.00    -0.646 OA
ATOM     25  O21 D32 d   1      38.747  76.104  -6.348  0.00  0.00    -0.646 OA
ENDBRANCH  20  23
ENDBRANCH  19  20
ENDBRANCH  15  19
BRANCH  17  26
ATOM     26  C6  D32 d   1      35.032  73.079  -7.109  0.00  0.00    -0.048 C 
ATOM     27  H5  D32 d   1      34.924  74.152  -7.324  0.00  0.00     0.033 H 
ATOM     28  H6  D32 d   1      34.055  72.662  -6.824  0.00  0.00     0.033 H 
ATOM     29  H7  D32 d   1      35.404  72.561  -8.005  0.00  0.00     0.033 H 
ENDBRANCH  17  26
BRANCH  18  30
ATOM     30  C4  D32 d   1      35.561  70.504  -6.181  0.00  0.00    -0.049 C 
ATOM     31  H8  D32 d   1      34.905  70.920  -6.960  0.00  0.00     0.033 H 
ATOM     32  H9  D32 d   1      34.952  69.977  -5.432  0.00  0.00     0.033 H 
ATOM     33  H10 D32 d   1      36.272  69.799  -6.638  0.00  0.00     0.033 H 
ENDBRANCH  18  30
ENDBRANCH  10  11
ENDBRANCH   1  10
BRANCH   4  34
ATOM     34  O1  D32 d   1      36.944  67.232  -2.727  0.00  0.00    -0.346 OA
BRANCH  34  35
ATOM     35  C7  D32 d   1      36.617  65.997  -2.084  0.00  0.00     0.041 C 
ATOM     36  H13 D32 d   1      36.648  65.173  -2.812  0.00  0.00     0.081 H 
ATOM     37  H14 D32 d   1      35.612  66.057  -1.641  0.00  0.00     0.081 H 
BRANCH  35  38
ATOM     38  C11 D32 d   1      37.611  65.778  -1.039  0.00  0.00    -0.089 C 
ATOM     39  C19 D32 d   1      38.525  65.505  -0.168  0.00  0.00    -0.123 C 
ATOM     40  H16 D32 d   1      38.623  66.116   0.728  0.00  0.00     0.066 H 
ATOM     41  H17 D32 d   1      39.198  64.664  -0.330  0.00  0.00     0.066 H 
ATOM     42  H15 D32 d   1      37.249  66.624  -0.457  0.00  0.00     0.078 H 
ENDBRANCH  35  38
ENDBRANCH  34  35
ENDBRANCH   4  34
BRANCH   6  43
ATOM     43  C24 D32 d   1      34.007  69.096   0.976  0.00  0.00     0.050 C 
ATOM     44  H19 D32 d   1      34.588  69.348   1.875  0.00  0.00     0.082 H 
ATOM     45  H20 D32 d   1      33.626  68.067   1.061  0.00  0.00     0.082 H 
BRANCH  43  46
ATOM     46  O25 D32 d   1      32.924  70.010   0.818  0.00  0.00    -0.347 OA
BRANCH  46  47
ATOM     47  C26 D32 d   1      31.657  69.687   0.304  0.00  0.00     0.069 A 
ATOM     48  C28 D32 d   1      30.525  70.217   0.926  0.00  0.00    -0.050 A 
ATOM     49  C30 D32 d   1      29.280  69.897   0.488  0.00  0.00    -0.066 A 
ATOM     50  H21 D32 d   1      30.641  70.891   1.767  0.00  0.00     0.087 H 
ATOM     51  C31 D32 d   1      29.132  69.043  -0.588  0.00  0.00     0.048 A 
ATOM     52  H22 D32 d   1      28.407  70.309   0.980  0.00  0.00     0.084 H 
ATOM     53  C29 D32 d   1      30.234  68.454  -1.181  0.00  0.00    -0.066 A 
ATOM     54  C27 D32 d   1      31.499  68.786  -0.746  0.00  0.00    -0.050 A 
ATOM     55  H24 D32 d   1      30.104  67.736  -1.983  0.00  0.00     0.084 H 
ATOM     56  H23 D32 d   1      32.369  68.347  -1.220  0.00  0.00     0.087 H 
BRANCH  51  57
ATOM     57  C32 D32 d   1      27.757  68.621  -1.047  0.00  0.00     0.417 C 
ATOM     58  F34 D32 d   1      27.016  68.168  -0.037  0.00  0.00    -0.166 F 
ATOM     59  F35 D32 d   1      27.837  67.569  -1.814  0.00  0.00    -0.166 F 
ATOM     60  F33 D32 d   1      27.172  69.583  -1.700  0.00  0.00    -0.166 F 
ENDBRANCH  51  57
ENDBRANCH  46  47
ENDBRANCH  43  46
ENDBRANCH   6  43
TORSDOF 14
