REMARK  8 active torsions:
REMARK  status: ('A' for Active; 'I' for Inactive)
REMARK    1  A    between atoms: N7_23  and  C4_1 
REMARK    2  A    between atoms: C6_3  and  C8_4 
REMARK    3  A    between atoms: C8_4  and  O27_27 
REMARK    4  A    between atoms: N18_18  and  C17_8 
REMARK    5  A    between atoms: C1_17  and  N18_18 
REMARK    6  A    between atoms: C2_25  and  O9_26 
REMARK    7  A    between atoms: O27_27  and  S28_28 
REMARK    8  A    between atoms: S28_28  and  N31_31 
ROOT
ATOM      1  C10 B39 d   1       7.901  70.245 -27.308  0.00  0.00    -0.051 A 
ATOM      2  C13 B39 d   1       7.339  72.350 -27.428  0.00  0.00     0.145 A 
ATOM      3  C15 B39 d   1       5.959  73.295 -29.072  0.00  0.00     0.091 A 
ATOM      4  C17 B39 d   1       6.386  71.009 -29.187  0.00  0.00     0.139 A 
ATOM      5  N16 B39 d   1       5.795  72.125 -29.673  0.00  0.00    -0.224 NA
ATOM      6  N14 B39 d   1       6.709  73.413 -27.972  0.00  0.00    -0.223 NA
ATOM      7  C12 B39 d   1       7.186  71.110 -28.033  0.00  0.00     0.057 A 
ATOM      8  C11 B39 d   1       8.485  70.887 -26.294  0.00  0.00    -0.017 A 
ATOM      9  N7  B39 d   1       8.145  72.171 -26.371  0.00  0.00    -0.336 N 
ATOM     10  H   B39 d   1       7.993  69.178 -27.513  0.00  0.00     0.087 H 
ATOM     11  H   B39 d   1       5.472  74.179 -29.483  0.00  0.00     0.146 H 
ATOM     12  H   B39 d   1       9.127  70.438 -25.536  0.00  0.00     0.111 H 
ENDROOT
BRANCH   9  13
ATOM     13  C4  B39 d   1       8.580  73.230 -25.414  0.00  0.00     0.021 C 
ATOM     14  C5  B39 d   1      10.109  73.216 -25.158  0.00  0.00    -0.038 C 
ATOM     15  C6  B39 d   1      10.285  72.657 -23.739  0.00  0.00    -0.005 C 
ATOM     16  H   B39 d   1      10.537  74.214 -25.249  0.00  0.00     0.036 H 
ATOM     17  H   B39 d   1      10.631  72.605 -25.895  0.00  0.00     0.036 H 
ATOM     18  C2  B39 d   1       9.024  73.121 -22.999  0.00  0.00     0.043 C 
ATOM     19  H   B39 d   1      10.387  71.572 -23.714  0.00  0.00     0.047 H 
ATOM     20  C3  B39 d   1       7.910  73.032 -24.041  0.00  0.00    -0.021 C 
ATOM     21  H   B39 d   1       8.832  72.522 -22.109  0.00  0.00     0.083 H 
ATOM     22  H   B39 d   1       7.403  72.069 -23.989  0.00  0.00     0.039 H 
ATOM     23  H   B39 d   1       7.149  73.792 -23.865  0.00  0.00     0.039 H 
ATOM     24  H   B39 d   1       8.291  74.174 -25.876  0.00  0.00     0.073 H 
BRANCH  15  25
ATOM     25  C8  B39 d   1      11.586  73.182 -23.093  0.00  0.00     0.045 C 
ATOM     26  H   B39 d   1      11.515  74.263 -22.971  0.00  0.00     0.077 H 
ATOM     27  H   B39 d   1      12.431  72.935 -23.736  0.00  0.00     0.077 H 
BRANCH  25  28
ATOM     28  O27 B39 d   1      11.775  72.575 -21.813  0.00  0.00    -0.259 OA
BRANCH  28  29
ATOM     29  S28 B39 d   1      12.932  72.702 -20.971  0.00  0.00     0.355 S 
ATOM     30  O29 B39 d   1      13.053  74.101 -20.456  0.00  0.00    -0.176 OA
ATOM     31  O30 B39 d   1      12.753  71.784 -19.803  0.00  0.00    -0.176 OA
BRANCH  29  32
ATOM     32  N31 B39 d   1      14.313  72.284 -21.750  0.00  0.00    -0.306 N 
ATOM     33  H   B39 d   1      15.082  72.951 -21.818  0.00  0.00     0.171 HD
ATOM     34  H   B39 d   1      14.403  71.357 -22.166  0.00  0.00     0.171 HD
ENDBRANCH  29  32
ENDBRANCH  28  29
ENDBRANCH  25  28
ENDBRANCH  15  25
BRANCH  18  35
ATOM     35  O9  B39 d   1       9.162  74.474 -22.597  0.00  0.00    -0.395 OA
ATOM     36  H   B39 d   1       9.384  75.012 -23.360  0.00  0.00     0.210 HD
ENDBRANCH  18  35
ENDBRANCH   9  13
BRANCH   4  37
ATOM     37  N18 B39 d   1       6.173  69.855 -29.855  0.00  0.00    -0.365 N 
ATOM     38  H   B39 d   1       5.692  69.923 -30.752  0.00  0.00     0.162 HD
BRANCH  37  39
ATOM     39  C1  B39 d   1       6.572  68.501 -29.409  0.00  0.00     0.037 C 
ATOM     40  C20 B39 d   1       5.514  67.865 -28.508  0.00  0.00    -0.038 C 
ATOM     41  C19 B39 d   1       5.822  66.381 -28.659  0.00  0.00    -0.038 C 
ATOM     42  H   B39 d   1       5.559  68.213 -27.476  0.00  0.00     0.036 H 
ATOM     43  H   B39 d   1       4.494  68.125 -28.789  0.00  0.00     0.036 H 
ATOM     44  C22 B39 d   1       6.145  66.286 -30.153  0.00  0.00    -0.050 A 
ATOM     45  H   B39 d   1       5.004  65.732 -28.348  0.00  0.00     0.040 H 
ATOM     46  H   B39 d   1       6.631  66.036 -28.015  0.00  0.00     0.040 H 
ATOM     47  C21 B39 d   1       6.583  67.545 -30.601  0.00  0.00    -0.029 A 
ATOM     48  C23 B39 d   1       6.064  65.221 -31.043  0.00  0.00    -0.076 A 
ATOM     49  C26 B39 d   1       6.943  67.735 -31.935  0.00  0.00    -0.074 A 
ATOM     50  C25 B39 d   1       6.857  66.664 -32.823  0.00  0.00    -0.082 A 
ATOM     51  H   B39 d   1       7.288  68.710 -32.279  0.00  0.00     0.084 H 
ATOM     52  C24 B39 d   1       6.421  65.417 -32.374  0.00  0.00    -0.082 A 
ATOM     53  H   B39 d   1       7.131  66.801 -33.869  0.00  0.00     0.083 H 
ATOM     54  H   B39 d   1       6.359  64.585 -33.075  0.00  0.00     0.083 H 
ATOM     55  H   B39 d   1       5.724  64.243 -30.702  0.00  0.00     0.084 H 
ATOM     56  H   B39 d   1       7.534  68.629 -28.913  0.00  0.00     0.080 H 
ENDBRANCH  37  39
ENDBRANCH   4  37
TORSDOF 8
