REMARK  7 active torsions:
REMARK  status: ('A' for Active; 'I' for Inactive)
REMARK    1  A    between atoms: N1_1  and  C7_9 
REMARK    2  A    between atoms: N3_4  and  C1_15 
REMARK    3  A    between atoms: C7_9  and  C8_10 
REMARK    4  A    between atoms: C8_10  and  N8_11 
REMARK    5  A    between atoms: C8_10  and  C9_12 
REMARK    6  A    between atoms: C1_15  and  C3_16 
REMARK    7  A    between atoms: C3_16  and  C10_17 
ROOT
ATOM      1  N1  UBP d   1      21.562  -2.338  22.024  0.00  0.00    -0.307 N 
ATOM      2  C2  UBP d   1      22.637  -2.670  21.138  0.00  0.00     0.331 A 
ATOM      3  O2  UBP d   1      22.359  -2.925  19.931  0.00  0.00    -0.246 OA
ATOM      4  N3  UBP d   1      23.991  -2.700  21.577  0.00  0.00    -0.266 N 
ATOM      5  C4  UBP d   1      24.185  -2.368  22.967  0.00  0.00     0.252 A 
ATOM      6  O4  UBP d   1      25.336  -2.359  23.452  0.00  0.00    -0.268 OA
ATOM      7  C5  UBP d   1      23.165  -2.048  23.830  0.00  0.00    -0.002 A 
ATOM      8  C6  UBP d   1      21.887  -2.040  23.349  0.00  0.00    -0.011 A 
ATOM      9  H1  UBP d   1      23.371  -1.807  24.872  0.00  0.00     0.094 H 
ATOM     10  H2  UBP d   1      21.079  -1.788  24.034  0.00  0.00     0.112 H 
ENDROOT
BRANCH   1  11
ATOM     11  C7  UBP d   1      20.161  -2.307  21.561  0.00  0.00     0.040 C 
ATOM     12  H3  UBP d   1      19.489  -2.359  22.431  0.00  0.00     0.069 H 
ATOM     13  H4  UBP d   1      19.976  -3.169  20.903  0.00  0.00     0.069 H 
BRANCH  11  14
ATOM     14  C8  UBP d   1      19.887  -1.001  20.782  0.00  0.00     0.198 C 
ATOM     15  H5  UBP d   1      20.514  -0.961  19.879  0.00  0.00     0.103 H 
BRANCH  14  16
ATOM     16  N8  UBP d   1      20.254   0.168  21.707  0.00  0.00    -0.064 N 
ATOM     17  H6  UBP d   1      20.087   1.040  21.229  0.00  0.00     0.275 HD
ATOM     18  H7  UBP d   1      21.228   0.104  21.959  0.00  0.00     0.275 HD
ATOM     19  H8  UBP d   1      19.688   0.128  22.540  0.00  0.00     0.275 HD
ENDBRANCH  14  16
BRANCH  14  20
ATOM     20  C9  UBP d   1      18.413  -0.980  20.368  0.00  0.00     0.206 C 
ATOM     21  O91 UBP d   1      17.782  -0.046  20.853  0.00  0.00    -0.646 OA
ATOM     22  O92 UBP d   1      17.954  -1.806  19.642  0.00  0.00    -0.646 OA
ENDBRANCH  14  20
ENDBRANCH  11  14
ENDBRANCH   1  11
BRANCH   4  23
ATOM     23  C1  UBP d   1      24.972  -3.075  20.500  0.00  0.00     0.016 C 
ATOM     24  H9  UBP d   1      24.840  -2.328  19.703  0.00  0.00     0.066 H 
ATOM     25  H10 UBP d   1      24.651  -4.062  20.134  0.00  0.00     0.066 H 
BRANCH  23  26
ATOM     26  C3  UBP d   1      26.473  -3.184  20.720  0.00  0.00     0.031 C 
ATOM     27  H11 UBP d   1      26.670  -3.949  21.486  0.00  0.00     0.051 H 
ATOM     28  H12 UBP d   1      26.858  -2.213  21.064  0.00  0.00     0.051 H 
BRANCH  26  29
ATOM     29  C10 UBP d   1      27.173  -3.567  19.455  0.00  0.00     0.174 C 
ATOM     30  O3  UBP d   1      27.193  -2.768  18.539  0.00  0.00    -0.648 OA
ATOM     31  O1  UBP d   1      27.672  -4.672  19.394  0.00  0.00    -0.648 OA
ENDBRANCH  26  29
ENDBRANCH  23  26
ENDBRANCH   4  23
TORSDOF 7
