REMARK  14 active torsions:
REMARK  status: ('A' for Active; 'I' for Inactive)
REMARK    1  A    between atoms: S7_26  and  C3_2 
REMARK    2  A    between atoms: O1_30  and  C7_4 
REMARK    3  A    between atoms: C7_4  and  C11_31 
REMARK    4  A    between atoms: C19_32  and  C21_8 
REMARK    5  A    between atoms: C21_8  and  C22_33 
REMARK    6  A    between atoms: O25_37  and  C26_9 
REMARK    7  A    between atoms: C31_14  and  C32_15 
REMARK    8  A    between atoms: C14_19  and  C17_17 
REMARK    9  A    between atoms: O11_20  and  C14_19 
REMARK   10  A    between atoms: C5_21  and  O11_20 
REMARK   11  A    between atoms: C13_27  and  S7_26 
REMARK   12  A    between atoms: C15_29  and  O1_30 
REMARK   13  A    between atoms: C24_36  and  C23_35 
REMARK   14  A    between atoms: C24_36  and  O25_37 
ROOT
ATOM      1  C20 D30 d   1      73.308  -2.442  -0.573  0.00  0.00    -0.073 A 
ATOM      2  C13 D30 d   1      72.223  -3.605   1.203  0.00  0.00     0.039 A 
ATOM      3  C16 D30 d   1      72.135  -2.823   0.066  0.00  0.00    -0.063 A 
ATOM      4  C15 D30 d   1      73.492  -3.942   1.698  0.00  0.00     0.087 A 
ATOM      5  C18 D30 d   1      74.646  -3.552   1.043  0.00  0.00    -0.041 A 
ATOM      6  C23 D30 d   1      74.556  -2.780  -0.091  0.00  0.00    -0.031 A 
ATOM      7  H8  D30 d   1      73.240  -1.858  -1.484  0.00  0.00     0.084 H 
ATOM      8  H22 D30 d   1      71.170  -2.514  -0.319  0.00  0.00     0.085 H 
ATOM      9  H26 D30 d   1      75.616  -3.853   1.422  0.00  0.00     0.088 H 
ENDROOT
BRANCH   2  10
ATOM     10  S7  D30 d   1      70.804  -4.111   2.024  0.00  0.00    -0.087 SA
BRANCH  10  11
ATOM     11  C3  D30 d   1      69.526  -3.728   0.967  0.00  0.00     0.012 A 
ATOM     12  C8  D30 d   1      69.221  -4.652  -0.049  0.00  0.00    -0.063 A 
ATOM     13  C10 D30 d   1      68.193  -4.379  -0.935  0.00  0.00    -0.049 A 
ATOM     14  H17 D30 d   1      69.787  -5.572  -0.138  0.00  0.00     0.085 H 
ATOM     15  C5  D30 d   1      67.478  -3.188  -0.813  0.00  0.00     0.076 A 
ATOM     16  H7  D30 d   1      67.945  -5.086  -1.718  0.00  0.00     0.087 H 
ATOM     17  C2  D30 d   1      67.796  -2.263   0.176  0.00  0.00    -0.017 A 
ATOM     18  C6  D30 d   1      66.968  -0.999   0.227  0.00  0.00    -0.038 C 
ATOM     19  C1  D30 d   1      68.829  -2.521   1.076  0.00  0.00    -0.032 A 
ATOM     20  C12 D30 d   1      67.696   0.108   0.957  0.00  0.00    -0.061 C 
ATOM     21  H1  D30 d   1      66.023  -1.211   0.749  0.00  0.00     0.040 H 
ATOM     22  H2  D30 d   1      66.754  -0.670  -0.800  0.00  0.00     0.040 H 
ATOM     23  C9  D30 d   1      68.330  -0.315   2.280  0.00  0.00    -0.061 C 
ATOM     24  H18 D30 d   1      66.977   0.914   1.163  0.00  0.00     0.033 H 
ATOM     25  H19 D30 d   1      68.493   0.487   0.300  0.00  0.00     0.033 H 
ATOM     26  C4  D30 d   1      69.217  -1.550   2.177  0.00  0.00    -0.039 C 
ATOM     27  H5  D30 d   1      67.524  -0.527   2.997  0.00  0.00     0.033 H 
ATOM     28  H6  D30 d   1      68.942   0.520   2.653  0.00  0.00     0.033 H 
ATOM     29  H20 D30 d   1      69.172  -2.085   3.137  0.00  0.00     0.040 H 
ATOM     30  H21 D30 d   1      70.249  -1.216   1.991  0.00  0.00     0.040 H 
BRANCH  15  31
ATOM     31  O11 D30 d   1      66.461  -2.895  -1.722  0.00  0.00    -0.340 OA
BRANCH  31  32
ATOM     32  C14 D30 d   1      66.009  -3.846  -2.699  0.00  0.00     0.105 C 
ATOM     33  H15 D30 d   1      65.886  -4.825  -2.212  0.00  0.00     0.091 H 
ATOM     34  H16 D30 d   1      65.040  -3.511  -3.099  0.00  0.00     0.091 H 
BRANCH  32  35
ATOM     35  C17 D30 d   1      66.986  -3.989  -3.843  0.00  0.00     0.198 C 
ATOM     36  O21 D30 d   1      66.858  -4.980  -4.520  0.00  0.00    -0.646 OA
ATOM     37  O22 D30 d   1      67.873  -3.146  -4.129  0.00  0.00    -0.646 OA
ENDBRANCH  32  35
ENDBRANCH  31  32
ENDBRANCH  15  31
ENDBRANCH  10  11
ENDBRANCH   2  10
BRANCH   4  38
ATOM     38  O1  D30 d   1      73.602  -4.710   2.826  0.00  0.00    -0.338 OA
BRANCH  38  39
ATOM     39  C7  D30 d   1      74.855  -5.037   3.427  0.00  0.00     0.080 C 
ATOM     40  H3  D30 d   1      75.540  -5.448   2.670  0.00  0.00     0.094 H 
ATOM     41  H4  D30 d   1      74.707  -5.777   4.228  0.00  0.00     0.094 H 
BRANCH  39  42
ATOM     42  C11 D30 d   1      75.403  -3.811   3.979  0.00  0.00    -0.080 C 
ATOM     43  C19 D30 d   1      75.795  -2.836   4.505  0.00  0.00    -0.105 C 
BRANCH  43  44
ATOM     44  C21 D30 d   1      76.283  -1.732   5.313  0.00  0.00    -0.013 C 
ATOM     45  H9  D30 d   1      75.570  -1.524   6.124  0.00  0.00     0.051 H 
ATOM     46  H10 D30 d   1      76.397  -0.836   4.685  0.00  0.00     0.051 H 
BRANCH  44  47
ATOM     47  C22 D30 d   1      77.641  -2.121   5.907  0.00  0.00    -0.067 C 
ATOM     48  H23 D30 d   1      78.023  -1.293   6.522  0.00  0.00     0.028 H 
ATOM     49  H24 D30 d   1      78.351  -2.331   5.093  0.00  0.00     0.028 H 
ATOM     50  H25 D30 d   1      77.524  -3.018   6.532  0.00  0.00     0.028 H 
ENDBRANCH  44  47
ENDBRANCH  43  44
ENDBRANCH  39  42
ENDBRANCH  38  39
ENDBRANCH   4  38
BRANCH   6  51
ATOM     51  C24 D30 d   1      75.841  -2.355  -0.806  0.00  0.00     0.050 C 
ATOM     52  H27 D30 d   1      76.528  -1.877  -0.092  0.00  0.00     0.082 H 
ATOM     53  H28 D30 d   1      75.605  -1.650  -1.616  0.00  0.00     0.082 H 
BRANCH  51  54
ATOM     54  O25 D30 d   1      76.444  -3.541  -1.348  0.00  0.00    -0.347 OA
BRANCH  54  55
ATOM     55  C26 D30 d   1      77.705  -3.662  -1.901  0.00  0.00     0.069 A 
ATOM     56  C27 D30 d   1      78.280  -4.921  -2.064  0.00  0.00    -0.050 A 
ATOM     57  C29 D30 d   1      79.552  -5.028  -2.624  0.00  0.00    -0.066 A 
ATOM     58  H11 D30 d   1      77.742  -5.811  -1.758  0.00  0.00     0.087 H 
ATOM     59  C31 D30 d   1      80.249  -3.879  -3.016  0.00  0.00     0.048 A 
ATOM     60  H13 D30 d   1      80.003  -6.005  -2.756  0.00  0.00     0.084 H 
ATOM     61  C30 D30 d   1      79.674  -2.625  -2.845  0.00  0.00    -0.066 A 
ATOM     62  C28 D30 d   1      78.405  -2.529  -2.300  0.00  0.00    -0.050 A 
ATOM     63  H14 D30 d   1      80.214  -1.731  -3.135  0.00  0.00     0.084 H 
ATOM     64  H12 D30 d   1      77.949  -1.553  -2.182  0.00  0.00     0.087 H 
BRANCH  59  65
ATOM     65  C32 D30 d   1      81.639  -3.996  -3.593  0.00  0.00     0.417 C 
ATOM     66  F35 D30 d   1      81.643  -4.944  -4.505  0.00  0.00    -0.166 F 
ATOM     67  F33 D30 d   1      82.520  -4.327  -2.646  0.00  0.00    -0.166 F 
ATOM     68  F34 D30 d   1      82.000  -2.842  -4.113  0.00  0.00    -0.166 F 
ENDBRANCH  59  65
ENDBRANCH  54  55
ENDBRANCH  51  54
ENDBRANCH   6  51
TORSDOF 14
