REMARK  10 active torsions:
REMARK  status: ('A' for Active; 'I' for Inactive)
REMARK    1  A    between atoms: C1_1  and  O_11 
REMARK    2  A    between atoms: C7_8  and  C4_4 
REMARK    3  A    between atoms: O_11  and  C6_7 
REMARK    4  A    between atoms: C7_8  and  C8_9 
REMARK    5  A    between atoms: C7_8  and  C9_13 
REMARK    6  A    between atoms: C9_13  and  C10_14 
REMARK    7  A    between atoms: C12_16  and  N22_26 
REMARK    8  A    between atoms: C15_19  and  O16_20 
REMARK    9  A    between atoms: O16_20  and  C17_21 
REMARK   10  A    between atoms: C18_22  and  N21_25 
ROOT
ATOM      1  C7  B35 d   1       6.367   2.960  21.183  0.00  0.00     0.020 C 
ATOM      2  H7  B35 d   1       5.437   2.454  20.885  0.00  0.00     0.057 H 
ENDROOT
BRANCH   1   3
ATOM      3  C4  B35 d   1       6.710   3.939  20.092  0.00  0.00    -0.045 A 
ATOM      4  C3  B35 d   1       7.745   4.842  20.282  0.00  0.00    -0.073 A 
ATOM      5  C2  B35 d   1       8.096   5.757  19.301  0.00  0.00    -0.047 A 
ATOM      6  H2  B35 d   1       8.292   4.832  21.218  0.00  0.00     0.084 H 
ATOM      7  C1  B35 d   1       7.415   5.783  18.091  0.00  0.00     0.106 A 
ATOM      8  H1  B35 d   1       8.906   6.455  19.479  0.00  0.00     0.087 H 
ATOM      9  C   B35 d   1       6.383   4.874  17.901  0.00  0.00     0.150 A 
ATOM     10  C5  B35 d   1       6.031   3.957  18.886  0.00  0.00    -0.036 A 
ATOM     11  F   B35 d   1       5.701   4.872  16.744  0.00  0.00    -0.203 F 
ATOM     12  H3  B35 d   1       5.224   3.256  18.709  0.00  0.00     0.089 H 
BRANCH   7  13
ATOM     13  O   B35 d   1       7.656   6.609  17.076  0.00  0.00    -0.353 OA
BRANCH  13  14
ATOM     14  C6  B35 d   1       8.777   7.512  17.240  0.00  0.00     0.011 C 
ATOM     15  H4  B35 d   1       8.876   8.140  16.343  0.00  0.00     0.066 H 
ATOM     16  H5  B35 d   1       9.699   6.930  17.383  0.00  0.00     0.066 H 
ATOM     17  H6  B35 d   1       8.607   8.152  18.119  0.00  0.00     0.066 H 
ENDBRANCH  13  14
ENDBRANCH   7  13
ENDBRANCH   1   3
BRANCH   1  18
ATOM     18  C8  B35 d   1       7.455   1.929  21.262  0.00  0.00     0.078 A 
ATOM     19  N   B35 d   1       8.677   2.246  21.739  0.00  0.00    -0.068 NA
ATOM     20  C18 B35 d   1       9.486   1.168  21.710  0.00  0.00     0.698 A 
ATOM     21  N19 B35 d   1       8.763   0.151  21.202  0.00  0.00    -0.198 N 
ATOM     22  C20 B35 d   1       7.517   0.586  20.915  0.00  0.00     0.019 A 
ATOM     23  H16 B35 d   1       9.107  -0.809  21.055  0.00  0.00     0.183 HD
ATOM     24  H17 B35 d   1       6.709  -0.008  20.489  0.00  0.00     0.115 H 
BRANCH  20  25
ATOM     25  N21 B35 d   1      10.765   1.114  22.111  0.00  0.00    -0.233 N 
ATOM     26  H18 B35 d   1      11.223   1.957  22.486  0.00  0.00     0.174 HD
ATOM     27  H19 B35 d   1      11.289   0.230  22.044  0.00  0.00     0.174 HD
ENDBRANCH  20  25
ENDBRANCH   1  18
BRANCH   1  28
ATOM     28  C9  B35 d   1       6.112   3.582  22.557  0.00  0.00    -0.026 C 
ATOM     29  H8  B35 d   1       5.594   4.545  22.433  0.00  0.00     0.041 H 
ATOM     30  H9  B35 d   1       7.072   3.745  23.069  0.00  0.00     0.041 H 
BRANCH  28  31
ATOM     31  C10 B35 d   1       5.256   2.653  23.378  0.00  0.00    -0.021 A 
ATOM     32  C11 B35 d   1       5.799   2.000  24.481  0.00  0.00    -0.042 A 
ATOM     33  C12 B35 d   1       5.002   1.137  25.229  0.00  0.00     0.103 A 
ATOM     34  H10 B35 d   1       6.835   2.162  24.756  0.00  0.00     0.088 H 
ATOM     35  C13 B35 d   1       3.674   0.906  24.890  0.00  0.00    -0.048 A 
ATOM     36  C14 B35 d   1       3.146   1.560  23.782  0.00  0.00    -0.048 A 
ATOM     37  H11 B35 d   1       3.063   0.230  25.477  0.00  0.00     0.087 H 
ATOM     38  C15 B35 d   1       3.931   2.426  23.026  0.00  0.00     0.074 A 
ATOM     39  H12 B35 d   1       2.112   1.393  23.504  0.00  0.00     0.087 H 
BRANCH  33  40
ATOM     40  N22 B35 d   1       5.524   0.518  26.292  0.00  0.00    -0.116 N 
ATOM     41  O23 B35 d   1       6.718   1.020  26.792  0.00  0.00    -0.532 OA
ATOM     42  O24 B35 d   1       4.843  -0.576  26.812  0.00  0.00    -0.532 OA
ENDBRANCH  33  40
BRANCH  38  43
ATOM     43  O16 B35 d   1       3.493   3.083  21.957  0.00  0.00    -0.355 OA
BRANCH  43  44
ATOM     44  C17 B35 d   1       2.054   3.242  21.841  0.00  0.00     0.010 C 
ATOM     45  H13 B35 d   1       1.819   3.798  20.921  0.00  0.00     0.066 H 
ATOM     46  H14 B35 d   1       1.675   3.797  22.712  0.00  0.00     0.066 H 
ATOM     47  H15 B35 d   1       1.578   2.251  21.802  0.00  0.00     0.066 H 
ENDBRANCH  43  44
ENDBRANCH  38  43
ENDBRANCH  28  31
ENDBRANCH   1  28
TORSDOF 10
