REMARK  8 active torsions:
REMARK  status: ('A' for Active; 'I' for Inactive)
REMARK    1  A    between atoms: C5_11  and  O1_2 
REMARK    2  A    between atoms: S1_7  and  C8_18 
REMARK    3  A    between atoms: N3_25  and  S1_7 
REMARK    4  A    between atoms: C17_9  and  C16_8 
REMARK    5  A    between atoms: O4_27  and  C17_9 
REMARK    6  A    between atoms: C2_16  and  C1_15 
REMARK    7  A    between atoms: C2_16  and  C24_32 
REMARK    8  A    between atoms: C18_28  and  O4_27 
ROOT
ATOM      1  N1  H0E d   1      26.816  49.601  16.973  0.00  0.00    -0.273 NA
ATOM      2  C11 H0E d   1      25.151  51.226  14.312  0.00  0.00     0.045 A 
ATOM      3  C5  H0E d   1      27.318  50.543  14.691  0.00  0.00     0.120 A 
ATOM      4  C4  H0E d   1      26.422  50.185  15.895  0.00  0.00     0.135 A 
ATOM      5  C3  H0E d   1      25.751  49.418  17.988  0.00  0.00     0.025 C 
ATOM      6  C6  H0E d   1      26.428  51.186  13.697  0.00  0.00     0.006 A 
ATOM      7  C2  H0E d   1      24.643  50.504  17.932  0.00  0.00    -0.013 C 
ATOM      8  C9  H0E d   1      24.325  52.326  12.345  0.00  0.00    -0.059 A 
ATOM      9  C8  H0E d   1      25.612  52.275  11.757  0.00  0.00     0.075 A 
ATOM     10  C7  H0E d   1      26.695  51.697  12.435  0.00  0.00    -0.050 A 
ATOM     11  C10 H0E d   1      24.095  51.800  13.627  0.00  0.00    -0.055 A 
ATOM     12  N2  H0E d   1      25.162  50.650  15.578  0.00  0.00    -0.332 N 
ATOM     13  C12 H0E d   1      24.059  50.517  16.497  0.00  0.00     0.009 C 
ATOM     14  H11 H0E d   1      28.055  51.288  15.025  0.00  0.00     0.103 H 
ATOM     15  H12 H0E d   1      26.214  49.445  18.986  0.00  0.00     0.068 H 
ATOM     16  H13 H0E d   1      25.283  48.436  17.827  0.00  0.00     0.068 H 
ATOM     17  H17 H0E d   1      23.505  52.778  11.798  0.00  0.00     0.086 H 
ATOM     18  H18 H0E d   1      27.686  51.652  11.997  0.00  0.00     0.086 H 
ATOM     19  H19 H0E d   1      23.107  51.843  14.072  0.00  0.00     0.087 H 
ATOM     20  H20 H0E d   1      23.369  51.366  16.381  0.00  0.00     0.066 H 
ATOM     21  H21 H0E d   1      23.520  49.578  16.303  0.00  0.00     0.066 H 
ENDROOT
BRANCH   9  22
ATOM     22  S1  H0E d   1      25.806  52.962  10.123  0.00  0.00     0.244 S 
ATOM     23  O2  H0E d   1      27.085  52.526   9.605  0.00  0.00    -0.206 OA
ATOM     24  O3  H0E d   1      24.582  52.712   9.391  0.00  0.00    -0.206 OA
BRANCH  22  25
ATOM     25  N3  H0E d   1      25.910  54.637  10.385  0.00  0.00    -0.200 NA
ATOM     26  C16 H0E d   1      24.594  55.350  10.515  0.00  0.00     0.030 C 
ATOM     27  C15 H0E d   1      24.757  56.266  11.735  0.00  0.00    -0.046 C 
ATOM     28  H8  H0E d   1      23.788  54.626  10.702  0.00  0.00     0.068 H 
ATOM     29  C14 H0E d   1      26.253  56.491  11.821  0.00  0.00    -0.052 C 
ATOM     30  H3  H0E d   1      24.226  57.217  11.584  0.00  0.00     0.035 H 
ATOM     31  H4  H0E d   1      24.381  55.776  12.646  0.00  0.00     0.035 H 
ATOM     32  C13 H0E d   1      26.818  55.127  11.460  0.00  0.00    -0.006 C 
ATOM     33  H5  H0E d   1      26.552  56.788  12.837  0.00  0.00     0.034 H 
ATOM     34  H6  H0E d   1      26.581  57.258  11.104  0.00  0.00     0.034 H 
ATOM     35  H22 H0E d   1      26.797  54.452  12.328  0.00  0.00     0.057 H 
ATOM     36  H23 H0E d   1      27.850  55.216  11.090  0.00  0.00     0.057 H 
BRANCH  26  37
ATOM     37  C17 H0E d   1      24.271  56.117   9.229  0.00  0.00     0.042 C 
ATOM     38  H9  H0E d   1      24.114  55.403   8.407  0.00  0.00     0.077 H 
ATOM     39  H10 H0E d   1      25.110  56.784   8.980  0.00  0.00     0.077 H 
BRANCH  37  40
ATOM     40  O4  H0E d   1      23.086  56.894   9.417  0.00  0.00    -0.350 OA
BRANCH  40  41
ATOM     41  C18 H0E d   1      22.770  57.752   8.400  0.00  0.00     0.068 A 
ATOM     42  C19 H0E d   1      23.469  57.882   7.198  0.00  0.00    -0.051 A 
ATOM     43  C20 H0E d   1      23.042  58.801   6.234  0.00  0.00    -0.080 A 
ATOM     44  H24 H0E d   1      24.344  57.270   7.012  0.00  0.00     0.087 H 
ATOM     45  C21 H0E d   1      21.916  59.590   6.466  0.00  0.00    -0.083 A 
ATOM     46  H7  H0E d   1      23.588  58.900   5.303  0.00  0.00     0.083 H 
ATOM     47  C22 H0E d   1      21.215  59.465   7.664  0.00  0.00    -0.080 A 
ATOM     48  H25 H0E d   1      21.586  60.300   5.716  0.00  0.00     0.083 H 
ATOM     49  C23 H0E d   1      21.641  58.547   8.628  0.00  0.00    -0.051 A 
ATOM     50  H1  H0E d   1      20.341  60.079   7.848  0.00  0.00     0.083 H 
ATOM     51  H26 H0E d   1      21.093  58.450   9.558  0.00  0.00     0.087 H 
ENDBRANCH  40  41
ENDBRANCH  37  40
ENDBRANCH  26  37
ENDBRANCH  22  25
ENDBRANCH   9  22
BRANCH   3  52
ATOM     52  O1  H0E d   1      28.063  49.441  14.163  0.00  0.00    -0.383 OA
ATOM     53  H2  H0E d   1      27.463  48.765  13.872  0.00  0.00     0.211 HD
ENDBRANCH   3  52
BRANCH   7  54
ATOM     54  C1  H0E d   1      25.274  51.868  18.273  0.00  0.00    -0.066 C 
ATOM     55  H14 H0E d   1      24.500  52.649  18.237  0.00  0.00     0.028 H 
ATOM     56  H15 H0E d   1      26.063  52.100  17.542  0.00  0.00     0.028 H 
ATOM     57  H16 H0E d   1      25.709  51.829  19.282  0.00  0.00     0.028 H 
ENDBRANCH   7  54
BRANCH   7  58
ATOM     58  C24 H0E d   1      23.530  50.232  18.966  0.00  0.00    -0.066 C 
ATOM     59  H27 H0E d   1      23.963  50.226  19.977  0.00  0.00     0.028 H 
ATOM     60  H28 H0E d   1      23.068  49.255  18.759  0.00  0.00     0.028 H 
ATOM     61  H29 H0E d   1      22.766  51.020  18.898  0.00  0.00     0.028 H 
ENDBRANCH   7  58
TORSDOF 8
