REMARK  4 active torsions:
REMARK  status: ('A' for Active; 'I' for Inactive)
REMARK    1  A    between atoms: CAZ_14  and  CAW_15 
REMARK       I    between atoms: CAW_15  and  NBH_17 
REMARK    2  A    between atoms: CBG_22  and  CAU_23 
REMARK    3  A    between atoms: CAU_23  and  CAY_24 
REMARK    4  A    between atoms: CAX_29  and  CAA_30 
ROOT
ATOM      1  CAW B36 d   1       5.888  29.995  25.319  0.00  0.00     0.255 C 
ATOM      2  OAB B36 d   1       6.327  29.087  26.032  0.00  0.00    -0.267 OA
ATOM      3  NBH B36 d   1       5.646  29.764  23.933  0.00  0.00    -0.348 N 
ATOM      4  CAT B36 d   1       5.111  30.796  22.985  0.00  0.00    -0.002 C 
ATOM      5  CAR B36 d   1       6.030  30.912  21.759  0.00  0.00    -0.046 C 
ATOM      6  CAS B36 d   1       5.921  28.390  23.331  0.00  0.00    -0.002 C 
ATOM      7  CAQ B36 d   1       6.706  28.449  21.979  0.00  0.00    -0.046 C 
ATOM      8  CBG B36 d   1       6.141  29.533  21.018  0.00  0.00    -0.047 C 
ATOM      9  H   B36 d   1       5.067  31.760  23.492  0.00  0.00     0.064 H 
ATOM     10  H   B36 d   1       4.114  30.500  22.659  0.00  0.00     0.064 H 
ATOM     11  H   B36 d   1       7.023  31.216  22.090  0.00  0.00     0.035 H 
ATOM     12  H   B36 d   1       5.612  31.648  21.073  0.00  0.00     0.035 H 
ATOM     13  H   B36 d   1       4.958  27.920  23.131  0.00  0.00     0.064 H 
ATOM     14  H   B36 d   1       6.534  27.837  24.043  0.00  0.00     0.064 H 
ATOM     15  H   B36 d   1       6.612  27.480  21.490  0.00  0.00     0.035 H 
ATOM     16  H   B36 d   1       7.744  28.700  22.200  0.00  0.00     0.035 H 
ATOM     17  H   B36 d   1       5.122  29.298  20.712  0.00  0.00     0.040 H 
ENDROOT
BRANCH   1  18
ATOM     18  CAZ B36 d   1       5.583  31.355  25.962  0.00  0.00     0.054 A 
ATOM     19  CBE B36 d   1       6.524  32.515  25.892  0.00  0.00    -0.009 A 
ATOM     20  CAK B36 d   1       7.806  32.453  25.203  0.00  0.00    -0.071 A 
ATOM     21  CBB B36 d   1       6.163  33.809  26.546  0.00  0.00    -0.024 A 
ATOM     22  CAE B36 d   1       8.673  33.597  25.163  0.00  0.00    -0.082 A 
ATOM     23  H   B36 d   1       8.110  31.528  24.713  0.00  0.00     0.084 H 
ATOM     24  CAC B36 d   1       8.300  34.828  25.798  0.00  0.00    -0.082 A 
ATOM     25  H   B36 d   1       9.628  33.529  24.643  0.00  0.00     0.083 H 
ATOM     26  CAI B36 d   1       7.055  34.939  26.486  0.00  0.00    -0.072 A 
ATOM     27  H   B36 d   1       8.973  35.685  25.755  0.00  0.00     0.083 H 
ATOM     28  H   B36 d   1       6.779  35.878  26.966  0.00  0.00     0.084 H 
ATOM     29  CAP B36 d   1       4.928  33.966  27.255  0.00  0.00    -0.061 A 
ATOM     30  CBC B36 d   1       4.013  32.866  27.344  0.00  0.00    -0.024 A 
ATOM     31  H   B36 d   1       4.685  34.919  27.725  0.00  0.00     0.086 H 
ATOM     32  CAJ B36 d   1       2.791  33.058  28.083  0.00  0.00    -0.072 A 
ATOM     33  CBF B36 d   1       4.311  31.554  26.704  0.00  0.00    -0.009 A 
ATOM     34  CAD B36 d   1       1.854  31.988  28.206  0.00  0.00    -0.082 A 
ATOM     35  H   B36 d   1       2.582  34.021  28.549  0.00  0.00     0.084 H 
ATOM     36  CAF B36 d   1       2.113  30.719  27.592  0.00  0.00    -0.082 A 
ATOM     37  H   B36 d   1       0.934  32.137  28.771  0.00  0.00     0.083 H 
ATOM     38  CAL B36 d   1       3.318  30.495  26.852  0.00  0.00    -0.071 A 
ATOM     39  H   B36 d   1       1.384  29.915  27.690  0.00  0.00     0.083 H 
ATOM     40  H   B36 d   1       3.496  29.522  26.394  0.00  0.00     0.084 H 
ENDBRANCH   1  18
BRANCH   8  41
ATOM     41  CAU B36 d   1       7.001  29.551  19.693  0.00  0.00    -0.037 C 
ATOM     42  H   B36 d   1       6.841  28.588  19.207  0.00  0.00     0.040 H 
ATOM     43  H   B36 d   1       8.027  29.763  19.993  0.00  0.00     0.040 H 
BRANCH  41  44
ATOM     44  CAY B36 d   1       6.617  30.625  18.668  0.00  0.00    -0.057 A 
ATOM     45  CAO B36 d   1       5.243  30.947  18.330  0.00  0.00    -0.065 A 
ATOM     46  CBA B36 d   1       4.958  32.014  17.415  0.00  0.00    -0.007 A 
ATOM     47  H   B36 d   1       4.426  30.377  18.772  0.00  0.00     0.085 H 
ATOM     48  CAM B36 d   1       3.596  32.343  17.126  0.00  0.00    -0.069 A 
ATOM     49  CBD B36 d   1       6.058  32.784  16.796  0.00  0.00     0.067 A 
ATOM     50  CAG B36 d   1       3.301  33.424  16.239  0.00  0.00    -0.059 A 
ATOM     51  H   B36 d   1       2.787  31.771  17.581  0.00  0.00     0.085 H 
ATOM     52  CAX B36 d   1       4.384  34.156  15.649  0.00  0.00     0.031 A 
ATOM     53  H   B36 d   1       2.268  33.688  16.014  0.00  0.00     0.086 H 
ATOM     54  NAV B36 d   1       5.708  33.834  15.923  0.00  0.00    -0.253 NA
ATOM     55  CAN B36 d   1       7.405  32.443  17.124  0.00  0.00    -0.054 A 
ATOM     56  CAH B36 d   1       7.673  31.387  18.050  0.00  0.00    -0.075 A 
ATOM     57  H   B36 d   1       8.231  32.989  16.668  0.00  0.00     0.087 H 
ATOM     58  H   B36 d   1       8.708  31.151  18.296  0.00  0.00     0.084 H 
BRANCH  52  59
ATOM     59  CAA B36 d   1       4.103  35.305  14.722  0.00  0.00    -0.035 C 
ATOM     60  H   B36 d   1       3.531  34.948  13.866  0.00  0.00     0.035 H 
ATOM     61  H   B36 d   1       3.530  36.066  15.252  0.00  0.00     0.035 H 
ATOM     62  H   B36 d   1       5.045  35.732  14.378  0.00  0.00     0.035 H 
ENDBRANCH  52  59
ENDBRANCH  41  44
ENDBRANCH   8  41
TORSDOF 4
