REMARK  5 active torsions:
REMARK  status: ('A' for Active; 'I' for Inactive)
REMARK    1  A    between atoms: C6_2  and  C16_15 
REMARK    2  A    between atoms: C10_3  and  C20_4 
REMARK    3  A    between atoms: C20_4  and  C21_5 
REMARK       I    between atoms: N26_17  and  C38_19 
REMARK    4  A    between atoms: C38_19  and  C39_20 
REMARK    5  A    between atoms: C43_24  and  C54_30 
ROOT
ATOM      1  C21 B37 d   1       5.740  29.062  21.405  0.00  0.00    -0.047 C 
ATOM      2  C24 B37 d   1       6.366  28.022  22.374  0.00  0.00    -0.046 C 
ATOM      3  C28 B37 d   1       5.496  30.429  22.157  0.00  0.00    -0.046 C 
ATOM      4  C25 B37 d   1       5.598  27.883  23.713  0.00  0.00    -0.002 C 
ATOM      5  N26 B37 d   1       5.200  29.232  24.312  0.00  0.00    -0.348 N 
ATOM      6  C27 B37 d   1       4.559  30.204  23.364  0.00  0.00    -0.002 C 
ATOM      7  C38 B37 d   1       5.429  29.515  25.715  0.00  0.00     0.254 C 
ATOM      8  O65 B37 d   1       5.548  28.581  26.498  0.00  0.00    -0.267 OA
ATOM      9  H3  B37 d   1       4.762  28.689  21.066  0.00  0.00     0.040 H 
ATOM     10  H4  B37 d   1       7.399  28.330  22.595  0.00  0.00     0.035 H 
ATOM     11  H5  B37 d   1       6.375  27.042  21.875  0.00  0.00     0.035 H 
ATOM     12  H6  B37 d   1       5.034  31.148  21.465  0.00  0.00     0.035 H 
ATOM     13  H7  B37 d   1       6.458  30.827  22.511  0.00  0.00     0.035 H 
ATOM     14  H16 B37 d   1       6.240  27.355  24.433  0.00  0.00     0.064 H 
ATOM     15  H17 B37 d   1       4.686  27.295  23.535  0.00  0.00     0.064 H 
ATOM     16  H18 B37 d   1       3.599  29.797  23.014  0.00  0.00     0.064 H 
ATOM     17  H19 B37 d   1       4.386  31.160  23.879  0.00  0.00     0.064 H 
ENDROOT
BRANCH   7  18
ATOM     18  C39 B37 d   1       5.063  30.917  26.238  0.00  0.00     0.046 A 
ATOM     19  C40 B37 d   1       6.026  32.061  26.338  0.00  0.00     0.008 A 
ATOM     20  C41 B37 d   1       5.529  33.360  26.874  0.00  0.00     0.068 A 
ATOM     21  C46 B37 d   1       7.426  31.989  25.947  0.00  0.00    -0.070 A 
ATOM     22  N42 B37 d   1       4.190  33.439  27.259  0.00  0.00    -0.247 NA
ATOM     23  C49 B37 d   1       6.425  34.487  26.981  0.00  0.00    -0.054 A 
ATOM     24  C43 B37 d   1       3.252  32.377  27.176  0.00  0.00     0.068 A 
ATOM     25  C44 B37 d   1       3.701  31.128  26.663  0.00  0.00    -0.038 A 
ATOM     26  H20 B37 d   1       2.996  30.308  26.589  0.00  0.00     0.088 H 
ATOM     27  C48 B37 d   1       7.796  34.372  26.578  0.00  0.00    -0.081 A 
ATOM     28  H24 B37 d   1       6.057  35.430  27.370  0.00  0.00     0.087 H 
ATOM     29  C47 B37 d   1       8.296  33.127  26.066  0.00  0.00    -0.082 A 
ATOM     30  H23 B37 d   1       8.457  35.227  26.660  0.00  0.00     0.083 H 
ATOM     31  H22 B37 d   1       9.335  33.045  25.768  0.00  0.00     0.083 H 
ATOM     32  H21 B37 d   1       7.821  31.058  25.558  0.00  0.00     0.084 H 
BRANCH  24  33
ATOM     33  C54 B37 d   1       1.838  32.650  27.637  0.00  0.00    -0.007 A 
ATOM     34  C55 B37 d   1       1.207  33.932  27.584  0.00  0.00    -0.071 A 
ATOM     35  C56 B37 d   1      -0.147  34.131  28.034  0.00  0.00    -0.082 A 
ATOM     36  H25 B37 d   1       1.763  34.777  27.195  0.00  0.00     0.084 H 
ATOM     37  C57 B37 d   1      -0.911  33.027  28.552  0.00  0.00    -0.083 A 
ATOM     38  H26 B37 d   1      -0.593  35.118  27.982  0.00  0.00     0.083 H 
ATOM     39  C58 B37 d   1      -0.300  31.732  28.616  0.00  0.00    -0.082 A 
ATOM     40  H27 B37 d   1      -1.931  33.172  28.888  0.00  0.00     0.083 H 
ATOM     41  C59 B37 d   1       1.048  31.554  28.169  0.00  0.00    -0.071 A 
ATOM     42  H28 B37 d   1      -0.859  30.887  29.003  0.00  0.00     0.083 H 
ATOM     43  H29 B37 d   1       1.494  30.568  28.230  0.00  0.00     0.084 H 
ENDBRANCH  24  33
ENDBRANCH   7  18
BRANCH   1  44
ATOM     44  C20 B37 d   1       6.676  29.177  20.154  0.00  0.00    -0.037 C 
ATOM     45  H1  B37 d   1       7.689  29.407  20.517  0.00  0.00     0.040 H 
ATOM     46  H2  B37 d   1       6.680  28.199  19.651  0.00  0.00     0.040 H 
BRANCH  44  47
ATOM     47  C10 B37 d   1       6.309  30.228  19.114  0.00  0.00    -0.057 A 
ATOM     48  C9  B37 d   1       4.961  30.415  18.597  0.00  0.00    -0.065 A 
ATOM     49  C3  B37 d   1       4.698  31.480  17.645  0.00  0.00    -0.007 A 
ATOM     50  H10 B37 d   1       4.158  29.763  18.921  0.00  0.00     0.085 H 
ATOM     51  C4  B37 d   1       5.802  32.377  17.189  0.00  0.00     0.067 A 
ATOM     52  C2  B37 d   1       3.383  31.713  17.132  0.00  0.00    -0.069 A 
ATOM     53  N5  B37 d   1       5.506  33.396  16.276  0.00  0.00    -0.253 NA
ATOM     54  C12 B37 d   1       7.106  32.165  17.704  0.00  0.00    -0.054 A 
ATOM     55  C6  B37 d   1       4.230  33.610  15.788  0.00  0.00     0.031 A 
ATOM     56  C1  B37 d   1       3.139  32.781  16.202  0.00  0.00    -0.059 A 
ATOM     57  H8  B37 d   1       2.140  32.957  15.819  0.00  0.00     0.086 H 
ATOM     58  C11 B37 d   1       7.353  31.124  18.645  0.00  0.00    -0.075 A 
ATOM     59  H12 B37 d   1       7.922  32.800  17.379  0.00  0.00     0.087 H 
ATOM     60  H11 B37 d   1       8.360  30.995  19.026  0.00  0.00     0.084 H 
ATOM     61  H9  B37 d   1       2.563  31.078  17.448  0.00  0.00     0.085 H 
BRANCH  55  62
ATOM     62  C16 B37 d   1       4.039  34.741  14.821  0.00  0.00    -0.035 C 
ATOM     63  H13 B37 d   1       5.003  35.240  14.645  0.00  0.00     0.035 H 
ATOM     64  H14 B37 d   1       3.323  35.464  15.239  0.00  0.00     0.035 H 
ATOM     65  H15 B37 d   1       3.651  34.348  13.870  0.00  0.00     0.035 H 
ENDBRANCH  55  62
ENDBRANCH  44  47
ENDBRANCH   1  44
TORSDOF 5
