REMARK  2 active torsions:
REMARK  status: ('A' for Active; 'I' for Inactive)
REMARK    1  A    between atoms: C15_16  and  C16_7 
REMARK       I    between atoms: C26_22  and  N27_17 
REMARK    2  A    between atoms: C20_18  and  C26_22 
ROOT
ATOM      1  C4  B38 d   1       5.962  28.506  20.962  0.00  0.00    -0.020 C 
ATOM      2  C7  B38 d   1       4.502  30.644  18.010  0.00  0.00     0.165 C 
ATOM      3  C6  B38 d   1       6.998  31.001  18.503  0.00  0.00     0.083 A 
ATOM      4  C9  B38 d   1       6.129  31.088  22.384  0.00  0.00     0.001 C 
ATOM      5  C13 B38 d   1       5.759  32.385  16.903  0.00  0.00    -0.061 A 
ATOM      6  C8  B38 d   1       6.894  28.700  22.188  0.00  0.00     0.001 C 
ATOM      7  C1  B38 d   1       5.792  29.794  20.110  0.00  0.00     0.077 C 
ATOM      8  O2  B38 d   1       7.036  30.008  19.373  0.00  0.00    -0.339 OA
ATOM      9  C3  B38 d   1       4.683  29.537  19.055  0.00  0.00     0.024 C 
ATOM     10  C5  B38 d   1       5.324  30.947  21.067  0.00  0.00    -0.020 C 
ATOM     11  C10 B38 d   1       5.777  31.380  17.745  0.00  0.00     0.044 A 
ATOM     12  C11 B38 d   1       8.096  31.679  18.308  0.00  0.00    -0.049 A 
ATOM     13  O12 B38 d   1       3.390  31.184  17.791  0.00  0.00    -0.292 OA
ATOM     14  C14 B38 d   1       8.095  32.812  17.325  0.00  0.00    -0.075 A 
ATOM     15  C15 B38 d   1       6.993  33.139  16.662  0.00  0.00    -0.061 A 
ATOM     16  N27 B38 d   1       6.346  29.775  23.060  0.00  0.00    -0.348 N 
ATOM     17  C26 B38 d   1       6.047  29.545  24.394  0.00  0.00     0.256 C 
ATOM     18  O28 B38 d   1       6.310  28.474  24.937  0.00  0.00    -0.267 OA
ATOM     19  H1  B38 d   1       4.971  28.193  21.323  0.00  0.00     0.040 H 
ATOM     20  H2  B38 d   1       6.386  27.718  20.323  0.00  0.00     0.040 H 
ATOM     21  H3  B38 d   1       5.577  31.750  23.067  0.00  0.00     0.064 H 
ATOM     22  H4  B38 d   1       7.108  31.533  22.154  0.00  0.00     0.064 H 
ATOM     23  H5  B38 d   1       4.843  32.655  16.391  0.00  0.00     0.085 H 
ATOM     24  H6  B38 d   1       7.899  28.984  21.844  0.00  0.00     0.064 H 
ATOM     25  H7  B38 d   1       6.953  27.760  22.757  0.00  0.00     0.064 H 
ATOM     26  H11 B38 d   1       4.929  28.606  18.524  0.00  0.00     0.049 H 
ATOM     27  H12 B38 d   1       3.729  29.414  19.588  0.00  0.00     0.049 H 
ATOM     28  H13 B38 d   1       5.403  31.897  20.518  0.00  0.00     0.040 H 
ATOM     29  H14 B38 d   1       4.272  30.763  21.331  0.00  0.00     0.040 H 
ATOM     30  H15 B38 d   1       8.999  31.426  18.851  0.00  0.00     0.087 H 
ATOM     31  H16 B38 d   1       9.008  33.372  17.154  0.00  0.00     0.084 H 
ENDROOT
BRANCH  17  32
ATOM     32  C20 B38 d   1       5.360  30.587  25.242  0.00  0.00     0.061 A 
ATOM     33  C19 B38 d   1       4.042  30.332  25.684  0.00  0.00    -0.065 A 
ATOM     34  C18 B38 d   1       3.363  31.257  26.471  0.00  0.00    -0.081 A 
ATOM     35  H18 B38 d   1       3.554  29.405  25.407  0.00  0.00     0.085 H 
ATOM     36  C17 B38 d   1       3.983  32.468  26.807  0.00  0.00    -0.069 A 
ATOM     37  H17 B38 d   1       2.360  31.042  26.822  0.00  0.00     0.083 H 
ATOM     38  C21 B38 d   1       5.291  32.749  26.379  0.00  0.00     0.012 A 
ATOM     39  H19 B38 d   1       3.447  33.197  27.404  0.00  0.00     0.085 H 
ATOM     40  C22 B38 d   1       6.000  31.804  25.602  0.00  0.00     0.077 A 
ATOM     41  C25 B38 d   1       6.157  33.835  26.570  0.00  0.00     0.034 A 
ATOM     42  N23 B38 d   1       7.235  32.344  25.353  0.00  0.00    -0.277 N 
ATOM     43  N24 B38 d   1       7.322  33.550  25.927  0.00  0.00    -0.186 NA
ATOM     44  H20 B38 d   1       7.982  31.891  24.808  0.00  0.00     0.189 HD
ATOM     45  H21 B38 d   1       5.937  34.742  27.131  0.00  0.00     0.118 H 
ENDBRANCH  17  32
BRANCH  15  46
ATOM     46  C16 B38 d   1       6.952  34.286  15.685  0.00  0.00    -0.051 C 
ATOM     47  H8  B38 d   1       7.949  34.745  15.617  0.00  0.00     0.033 H 
ATOM     48  H9  B38 d   1       6.226  35.036  16.031  0.00  0.00     0.033 H 
ATOM     49  H10 B38 d   1       6.651  33.914  14.695  0.00  0.00     0.033 H 
ENDBRANCH  15  46
TORSDOF 2
