REMARK  7 active torsions:
REMARK  status: ('A' for Active; 'I' for Inactive)
REMARK    1  A    between atoms: C20_5  and  N24_6 
REMARK    2  A    between atoms: N24_6  and  C30_7 
REMARK    3  A    between atoms: C27_10  and  O31_11 
REMARK    4  A    between atoms: C22_15  and  N16_16 
REMARK    5  A    between atoms: N16_16  and  C11_17 
REMARK    6  A    between atoms: C14_21  and  N9_23 
REMARK       I    between atoms: N9_23  and  C7_24 
REMARK    7  A    between atoms: C7_24  and  C4_26 
ROOT
ATOM      1  C11 48B d   1      53.210   9.064  22.873  0.00  0.00     0.033 A 
ATOM      2  C10 48B d   1      52.482   7.936  23.250  0.00  0.00    -0.055 A 
ATOM      3  C12 48B d   1      53.456  10.046  23.833  0.00  0.00    -0.055 A 
ATOM      4  C13 48B d   1      53.028   9.899  25.139  0.00  0.00    -0.055 A 
ATOM      5  C14 48B d   1      52.342   8.765  25.546  0.00  0.00     0.035 A 
ATOM      6  C15 48B d   1      52.072   7.774  24.582  0.00  0.00    -0.055 A 
ATOM      7  H9  48B d   1      52.232   7.182  22.512  0.00  0.00     0.087 H 
ATOM      8  H10 48B d   1      53.994  10.943  23.549  0.00  0.00     0.087 H 
ATOM      9  H11 48B d   1      53.232  10.684  25.858  0.00  0.00     0.087 H 
ATOM     10  H12 48B d   1      51.541   6.875  24.873  0.00  0.00     0.087 H 
ENDROOT
BRANCH   1  11
ATOM     11  N16 48B d   1      53.466   9.353  21.574  0.00  0.00    -0.338 N 
ATOM     12  H8  48B d   1      53.981   8.675  20.995  0.00  0.00     0.167 HD
BRANCH  11  13
ATOM     13  C22 48B d   1      53.056  10.515  21.029  0.00  0.00     0.187 C 
ATOM     14  C17 48B d   1      53.219  10.679  19.713  0.00  0.00     0.180 C 
ATOM     15  F23 48B d   1      53.758   9.725  18.984  0.00  0.00    -0.200 F 
ATOM     16  C18 48B d   1      52.840  11.796  19.078  0.00  0.00     0.062 C 
ATOM     17  N19 48B d   1      52.236  12.778  19.720  0.00  0.00    -0.072 NA
ATOM     18  H1  48B d   1      53.033  11.895  18.016  0.00  0.00     0.120 H 
ATOM     19  C20 48B d   1      52.179  12.756  21.159  0.00  0.00     0.728 C 
ATOM     20  N21 48B d   1      52.430  11.461  21.719  0.00  0.00    -0.042 NA
BRANCH  19  21
ATOM     21  N24 48B d   1      51.441  13.869  21.793  0.00  0.00    -0.188 N 
ATOM     22  H2  48B d   1      50.967  14.540  21.172  0.00  0.00     0.184 HD
BRANCH  21  23
ATOM     23  C30 48B d   1      51.341  14.073  23.127  0.00  0.00     0.049 A 
ATOM     24  C29 48B d   1      51.478  13.083  24.101  0.00  0.00    -0.054 A 
ATOM     25  C28 48B d   1      51.439  13.384  25.460  0.00  0.00    -0.049 A 
ATOM     26  H3  48B d   1      51.618  12.054  23.792  0.00  0.00     0.087 H 
ATOM     27  C27 48B d   1      51.267  14.696  25.871  0.00  0.00     0.065 A 
ATOM     28  H4  48B d   1      51.543  12.594  26.195  0.00  0.00     0.087 H 
ATOM     29  C26 48B d   1      51.143  15.697  24.912  0.00  0.00    -0.049 A 
ATOM     30  C25 48B d   1      51.190  15.391  23.552  0.00  0.00    -0.054 A 
ATOM     31  H6  48B d   1      51.008  16.726  25.226  0.00  0.00     0.087 H 
ATOM     32  H7  48B d   1      51.108  16.186  22.819  0.00  0.00     0.087 H 
BRANCH  27  33
ATOM     33  O31 48B d   1      51.232  14.988  27.168  0.00  0.00    -0.361 OA
ATOM     34  H5  48B d   1      51.109  15.924  27.278  0.00  0.00     0.217 HD
ENDBRANCH  27  33
ENDBRANCH  21  23
ENDBRANCH  19  21
ENDBRANCH  11  13
ENDBRANCH   1  11
BRANCH   5  35
ATOM     35  N9  48B d   1      52.055   8.709  26.880  0.00  0.00    -0.323 N 
ATOM     36  C7  48B d   1      51.625   7.606  27.492  0.00  0.00     0.257 C 
ATOM     37  O8  48B d   1      51.503   6.551  26.888  0.00  0.00    -0.267 OA
ATOM     38  H13 48B d   1      52.174   9.539  27.426  0.00  0.00     0.169 HD
BRANCH  36  39
ATOM     39  C4  48B d   1      51.213   7.604  28.944  0.00  0.00     0.054 A 
ATOM     40  C5  48B d   1      50.753   8.746  29.629  0.00  0.00     0.049 A 
ATOM     41 CL1  48B d   1      50.629  10.404  28.890  0.00  0.00    -0.083 Cl
ATOM     42  C6  48B d   1      50.379   8.621  30.973  0.00  0.00    -0.061 A 
ATOM     43  C1  48B d   1      50.448   7.392  31.623  0.00  0.00    -0.081 A 
ATOM     44  H14 48B d   1      50.031   9.493  31.514  0.00  0.00     0.086 H 
ATOM     45  C2  48B d   1      50.891   6.263  30.940  0.00  0.00    -0.082 A 
ATOM     46  H17 48B d   1      50.156   7.314  32.664  0.00  0.00     0.083 H 
ATOM     47  C3  48B d   1      51.267   6.371  29.607  0.00  0.00    -0.066 A 
ATOM     48  H16 48B d   1      50.942   5.305  31.445  0.00  0.00     0.083 H 
ATOM     49  H15 48B d   1      51.606   5.491  29.073  0.00  0.00     0.085 H 
ENDBRANCH  36  39
ENDBRANCH   5  35
TORSDOF 7
