REMARK  9 active torsions:
REMARK  status: ('A' for Active; 'I' for Inactive)
REMARK    1  A    between atoms: C8_7  and  N1_8 
REMARK       I    between atoms: N1_8  and  C7_9 
REMARK    2  A    between atoms: C7_9  and  C6_11 
REMARK    3  A    between atoms: C2_16  and  N5_17 
REMARK    4  A    between atoms: N5_17  and  C1_18 
REMARK    5  A    between atoms: C5_24  and  N8_25 
REMARK    6  A    between atoms: N8_25  and  C_26 
REMARK    7  A    between atoms: C20_29  and  C21_32 
REMARK    8  A    between atoms: C21_32  and  C22_33 
REMARK       I    between atoms: C22_33  and  N_35 
REMARK       I    between atoms: N2_38  and  C25_41 
REMARK    9  A    between atoms: C25_41  and  C26_43 
ROOT
ATOM      1  N8  45B d   1      37.819  29.082  62.512  0.00  0.00    -0.188 N 
ATOM      2  H12 45B d   1      38.374  29.298  63.352  0.00  0.00     0.184 HD
ENDROOT
BRANCH   1   3
ATOM      3  C5  45B d   1      37.031  30.190  61.977  0.00  0.00     0.728 C 
ATOM      4  N6  45B d   1      36.168  30.120  60.818  0.00  0.00    -0.042 NA
ATOM      5  C1  45B d   1      35.616  31.229  60.319  0.00  0.00     0.187 C 
ATOM      6  C16 45B d   1      36.024  32.430  60.729  0.00  0.00     0.180 C 
ATOM      7  F4  45B d   1      35.510  33.519  60.198  0.00  0.00    -0.200 F 
ATOM      8  C17 45B d   1      36.953  32.566  61.683  0.00  0.00     0.062 C 
ATOM      9  N4  45B d   1      37.546  31.510  62.232  0.00  0.00    -0.072 NA
ATOM     10  H11 45B d   1      37.228  33.560  62.016  0.00  0.00     0.120 H 
BRANCH   5  11
ATOM     11  N5  45B d   1      34.680  31.211  59.356  0.00  0.00    -0.338 N 
ATOM     12  H10 45B d   1      34.224  32.097  59.095  0.00  0.00     0.167 HD
BRANCH  11  13
ATOM     13  C2  45B d   1      34.296  30.034  58.688  0.00  0.00     0.033 A 
ATOM     14  C3  45B d   1      35.234  29.140  58.181  0.00  0.00    -0.056 A 
ATOM     15  C4  45B d   1      34.832  27.977  57.534  0.00  0.00    -0.066 A 
ATOM     16  H7  45B d   1      36.291  29.353  58.292  0.00  0.00     0.086 H 
ATOM     17  C6  45B d   1      33.484  27.691  57.384  0.00  0.00     0.032 A 
ATOM     18  H6  45B d   1      35.576  27.291  57.145  0.00  0.00     0.085 H 
ATOM     19  C14 45B d   1      32.546  28.584  57.899  0.00  0.00    -0.066 A 
ATOM     20  C15 45B d   1      32.948  29.748  58.545  0.00  0.00    -0.056 A 
ATOM     21  H8  45B d   1      31.489  28.368  57.795  0.00  0.00     0.085 H 
ATOM     22  H9  45B d   1      32.205  30.433  58.938  0.00  0.00     0.086 H 
BRANCH  17  23
ATOM     23  C7  45B d   1      33.038  26.439  56.679  0.00  0.00     0.256 C 
ATOM     24  N1  45B d   1      31.728  26.166  56.657  0.00  0.00    -0.321 N 
ATOM     25  H5  45B d   1      31.118  26.705  57.238  0.00  0.00     0.169 HD
ATOM     26  O2  45B d   1      33.879  25.719  56.159  0.00  0.00    -0.267 OA
BRANCH  24  27
ATOM     27  C8  45B d   1      31.173  25.157  55.855  0.00  0.00     0.056 A 
ATOM     28  C13 45B d   1      31.168  23.849  56.294  0.00  0.00     0.060 A 
ATOM     29 CL1  45B d   1      31.879  23.476  57.889  0.00  0.00    -0.082 Cl
ATOM     30  C12 45B d   1      30.625  22.831  55.520  0.00  0.00    -0.060 A 
ATOM     31  C11 45B d   1      30.068  23.132  54.288  0.00  0.00    -0.081 A 
ATOM     32  H1  45B d   1      30.637  21.808  55.878  0.00  0.00     0.086 H 
ATOM     33  C10 45B d   1      30.065  24.449  53.839  0.00  0.00    -0.081 A 
ATOM     34  H2  45B d   1      29.637  22.347  53.678  0.00  0.00     0.083 H 
ATOM     35  C9  45B d   1      30.615  25.463  54.621  0.00  0.00    -0.055 A 
ATOM     36  H3  45B d   1      29.632  24.688  52.874  0.00  0.00     0.083 H 
ATOM     37  H4  45B d   1      30.607  26.488  54.267  0.00  0.00     0.087 H 
ENDBRANCH  24  27
ENDBRANCH  17  23
ENDBRANCH  11  13
ENDBRANCH   5  11
ENDBRANCH   1   3
BRANCH   1  38
ATOM     38  C   45B d   1      37.922  27.798  62.052  0.00  0.00     0.049 A 
ATOM     39  C30 45B d   1      38.932  27.018  62.611  0.00  0.00    -0.056 A 
ATOM     40  C29 45B d   1      39.134  25.695  62.217  0.00  0.00    -0.074 A 
ATOM     41  H13 45B d   1      39.576  27.449  63.369  0.00  0.00     0.086 H 
ATOM     42  C20 45B d   1      38.326  25.111  61.250  0.00  0.00    -0.049 A 
ATOM     43  H14 45B d   1      39.931  25.116  62.671  0.00  0.00     0.084 H 
ATOM     44  C19 45B d   1      37.311  25.875  60.688  0.00  0.00    -0.074 A 
ATOM     45  C18 45B d   1      37.110  27.197  61.084  0.00  0.00    -0.056 A 
ATOM     46  H15 45B d   1      36.668  25.438  59.933  0.00  0.00     0.084 H 
ATOM     47  H16 45B d   1      36.309  27.770  60.633  0.00  0.00     0.086 H 
BRANCH  42  48
ATOM     48  C21 45B d   1      38.545  23.664  60.839  0.00  0.00     0.033 C 
ATOM     49  H17 45B d   1      39.621  23.438  60.852  0.00  0.00     0.054 H 
ATOM     50  H18 45B d   1      38.149  23.507  59.825  0.00  0.00     0.054 H 
BRANCH  48  51
ATOM     51  C22 45B d   1      37.816  22.737  61.822  0.00  0.00     0.224 C 
ATOM     52  O1  45B d   1      36.619  22.947  62.012  0.00  0.00    -0.273 OA
ATOM     53  N   45B d   1      38.446  21.719  62.464  0.00  0.00    -0.349 N 
ATOM     54  C28 45B d   1      37.738  20.856  63.401  0.00  0.00     0.013 C 
ATOM     55  C23 45B d   1      39.855  21.317  62.343  0.00  0.00     0.013 C 
ATOM     56  C27 45B d   1      38.359  21.174  64.758  0.00  0.00     0.013 C 
ATOM     57  H19 45B d   1      37.888  19.797  63.144  0.00  0.00     0.066 H 
ATOM     58  H20 45B d   1      36.662  21.084  63.403  0.00  0.00     0.066 H 
ATOM     59  N2  45B d   1      39.732  20.686  64.676  0.00  0.00    -0.349 N 
ATOM     60  H21 45B d   1      37.814  20.658  65.562  0.00  0.00     0.066 H 
ATOM     61  H22 45B d   1      38.346  22.258  64.944  0.00  0.00     0.066 H 
ATOM     62  C24 45B d   1      40.525  21.448  63.711  0.00  0.00     0.013 C 
ATOM     63  C25 45B d   1      40.223  19.659  65.403  0.00  0.00     0.215 C 
ATOM     64  H23 45B d   1      41.547  21.045  63.666  0.00  0.00     0.066 H 
ATOM     65  H24 45B d   1      40.561  22.506  64.010  0.00  0.00     0.066 H 
ATOM     66  O3  45B d   1      41.380  19.272  65.307  0.00  0.00    -0.274 OA
ATOM     67  H25 45B d   1      40.364  21.969  61.618  0.00  0.00     0.066 H 
ATOM     68  H26 45B d   1      39.913  20.273  62.001  0.00  0.00     0.066 H 
BRANCH  63  69
ATOM     69  C26 45B d   1      39.296  18.970  66.366  0.00  0.00    -0.003 C 
ATOM     70  H27 45B d   1      39.836  18.162  66.880  0.00  0.00     0.040 H 
ATOM     71  H28 45B d   1      38.443  18.548  65.815  0.00  0.00     0.040 H 
ATOM     72  H29 45B d   1      38.931  19.696  67.107  0.00  0.00     0.040 H 
ENDBRANCH  63  69
ENDBRANCH  48  51
ENDBRANCH  42  48
ENDBRANCH   1  38
TORSDOF 9
