REMARK WARNING: 32 MAX_TORS EXCEEDED!!!
REMARK  63 active torsions:
REMARK  status: ('A' for Active; 'I' for Inactive)
REMARK    1  A    between atoms: N_1  and  CA_2 
REMARK    2  A    between atoms: CA_2  and  C_3 
REMARK    3  A    between atoms: CA_2  and  CB_5 
REMARK       I    between atoms: C_3  and  N_13 
REMARK    4  A    between atoms: CB_5  and  CG_6 
REMARK    5  A    between atoms: CZ_11  and  OH_12 
REMARK    6  A    between atoms: N_13  and  CA_14 
REMARK    7  A    between atoms: CA_14  and  C_15 
REMARK    8  A    between atoms: CA_14  and  CB_17 
REMARK       I    between atoms: C_15  and  N_24 
REMARK    9  A    between atoms: CB_17  and  CG_18 
REMARK   10  A    between atoms: CA_25  and  C_26 
REMARK       I    between atoms: C_26  and  N_31 
REMARK   11  A    between atoms: N_31  and  CA_32 
REMARK   12  A    between atoms: CA_32  and  C_33 
REMARK   13  A    between atoms: CA_32  and  CB_35 
REMARK       I    between atoms: C_33  and  N_38 
REMARK   14  A    between atoms: CB_35  and  OG1_36 
REMARK   15  A    between atoms: CB_35  and  CG2_37 
REMARK   16  A    between atoms: N_38  and  CA_39 
REMARK   17  A    between atoms: CA_39  and  C_40 
REMARK   18  A    between atoms: CA_39  and  CB_42 
REMARK       I    between atoms: C_40  and  N_46 
REMARK   19  A    between atoms: CB_42  and  CG_43 
REMARK   20  A    between atoms: N_46  and  CA_47 
REMARK   21  A    between atoms: CA_47  and  C_48 
REMARK   22  A    between atoms: CA_47  and  CB_50 
REMARK       I    between atoms: C_48  and  N_55 
REMARK   23  A    between atoms: CB_50  and  CG_51 
REMARK   24  A    between atoms: CG_51  and  CD_52 
REMARK   25  A    between atoms: N_55  and  CA_56 
REMARK   26  A    between atoms: CA_56  and  C_57 
REMARK   27  A    between atoms: CA_56  and  CB_59 
REMARK       I    between atoms: C_57  and  N_66 
REMARK   28  A    between atoms: CB_59  and  CG_60 
REMARK   29  A    between atoms: CG_60  and  CD_61 
REMARK   30  A    between atoms: CD_61  and  NE_62 
REMARK       I    between atoms: NE_62  and  CZ_63 
REMARK       I    between atoms: CZ_63  and  NH1_64 
REMARK       I    between atoms: CZ_63  and  NH2_65 
REMARK   31  A    between atoms: N_66  and  CA_67 
REMARK   32  A    between atoms: CA_67  and  C_68 
REMARK   33  A    between atoms: CA_67  and  CB_70 
REMARK       I    between atoms: C_68  and  N_72 
REMARK   34  A    between atoms: CB_70  and  OG_71 
REMARK   35  A    between atoms: N_72  and  CA_73 
REMARK   36  A    between atoms: CA_73  and  C_74 
REMARK   37  A    between atoms: CA_73  and  CB_76 
REMARK       I    between atoms: C_74  and  N_86 
REMARK   38  A    between atoms: CB_76  and  CG_77 
REMARK   39  A    between atoms: N_86  and  CA_87 
REMARK   40  A    between atoms: CA_87  and  C_88 
REMARK   41  A    between atoms: CA_87  and  CB_90 
REMARK       I    between atoms: C_88  and  N_93 
REMARK   42  A    between atoms: CB_90  and  CG1_91 
REMARK   43  A    between atoms: CB_90  and  CG2_92 
REMARK   44  A    between atoms: N_93  and  CA_94 
REMARK   45  A    between atoms: CA_94  and  C_95 
REMARK   46  A    between atoms: CA_94  and  CB_97 
REMARK       I    between atoms: C_95  and  N_105 
REMARK   47  A    between atoms: CB_97  and  CG_98 
REMARK   48  A    between atoms: CZ_103  and  OH_104 
REMARK   49  A    between atoms: N_105  and  CA_106 
REMARK   50  A    between atoms: CA_106  and  C_107 
REMARK   51  A    between atoms: CA_106  and  CB_109 
REMARK       I    between atoms: C_107  and  N_111 
REMARK   52  A    between atoms: CB_109  and  OG_110 
REMARK   53  A    between atoms: CA_112  and  C_113 
REMARK       I    between atoms: C_113  and  N_118 
REMARK   54  A    between atoms: N_118  and  CA_119 
REMARK   55  A    between atoms: CA_119  and  C_120 
REMARK   56  A    between atoms: CA_119  and  CB_122 
REMARK       I    between atoms: C_120  and  N_126 
REMARK   57  A    between atoms: CB_122  and  CG_123 
REMARK   58  A    between atoms: CG_123  and  CD1_124 
REMARK   59  A    between atoms: CG_123  and  CD2_125 
REMARK   60  A    between atoms: N_126  and  CA_127 
REMARK   61  A    between atoms: CA_127  and  C_128 
REMARK   62  A    between atoms: CA_127  and  CB_130 
REMARK   63  A    between atoms: CB_130  and  CG_131 
ROOT
ATOM      1  CA  SER d   1     -18.763  -7.778 -36.153  0.00  0.00     0.109 C 
ATOM      2  H57 SER d   1     -18.808  -6.845 -35.572  0.00  0.00     0.090 H 
ENDROOT
BRANCH   1   3
ATOM      3  N   SER d   1     -20.076  -7.967 -36.740  0.00  0.00    -0.344 N 
ATOM      4  C   ARG d   1     -20.797  -6.902 -37.083  0.00  0.00     0.241 C 
ATOM      5  O   ARG d   1     -20.411  -5.762 -36.882  0.00  0.00    -0.271 OA
ATOM      6  H56 SER d   1     -20.436  -8.889 -36.886  0.00  0.00     0.163 HD
BRANCH   4   7
ATOM      7  CA  ARG d   1     -22.144  -7.129 -37.741  0.00  0.00     0.089 C 
ATOM      8  H44 ARG d   1     -22.212  -6.432 -38.589  0.00  0.00     0.087 H 
BRANCH   7   9
ATOM      9  N   ARG d   1     -22.296  -8.470 -38.276  0.00  0.00    -0.346 N 
ATOM     10  C   GLU d   1     -21.656  -8.842 -39.378  0.00  0.00     0.241 C 
ATOM     11  O   GLU d   1     -20.847  -8.118 -39.977  0.00  0.00    -0.271 OA
ATOM     12  H43 ARG d   1     -22.891  -9.123 -37.808  0.00  0.00     0.163 HD
BRANCH  10  13
ATOM     13  CA  GLU d   1     -21.974 -10.244 -39.880  0.00  0.00     0.090 C 
ATOM     14  H38 GLU d   1     -21.146 -10.575 -40.523  0.00  0.00     0.087 H 
BRANCH  13  15
ATOM     15  N   GLU d   1     -22.100 -11.174 -38.773  0.00  0.00    -0.346 N 
ATOM     16  C   ASP d   1     -21.118 -11.420 -37.912  0.00  0.00     0.241 C 
ATOM     17  O   ASP d   1     -20.057 -10.777 -37.853  0.00  0.00    -0.271 OA
ATOM     18  H37 GLU d   1     -22.969 -11.654 -38.652  0.00  0.00     0.163 HD
BRANCH  16  19
ATOM     19  CA  ASP d   1     -21.374 -12.568 -36.964  0.00  0.00     0.098 C 
ATOM     20  H34 ASP d   1     -22.057 -13.287 -37.441  0.00  0.00     0.088 H 
BRANCH  19  21
ATOM     21  N   ASP d   1     -20.083 -13.237 -36.729  0.00  0.00    -0.345 N 
ATOM     22  C   THR d   1     -19.800 -14.425 -37.255  0.00  0.00     0.243 C 
ATOM     23  O   THR d   1     -20.616 -15.090 -37.786  0.00  0.00    -0.271 OA
ATOM     24  H33 ASP d   1     -19.399 -12.784 -36.157  0.00  0.00     0.163 HD
BRANCH  22  25
ATOM     25  CA  THR d   1     -18.382 -14.972 -37.146  0.00  0.00     0.113 C 
ATOM     26  H27 THR d   1     -17.869 -14.503 -36.294  0.00  0.00     0.091 H 
BRANCH  25  27
ATOM     27  N   THR d   1     -18.494 -16.388 -36.928  0.00  0.00    -0.343 N 
ATOM     28  C   PRO d   1     -18.215 -16.987 -35.790  0.00  0.00     0.245 C 
ATOM     29  O   PRO d   1     -17.898 -16.420 -34.823  0.00  0.00    -0.271 OA
ATOM     30  H26 THR d   1     -18.804 -16.955 -37.691  0.00  0.00     0.163 HD
BRANCH  28  31
ATOM     31  CA  PRO d   1     -18.308 -18.490 -35.742  0.00  0.00     0.108 C 
ATOM     32  N   PRO d   1     -17.113 -19.127 -35.219  0.00  0.00    -0.330 N 
ATOM     33  C   PHE d   1     -15.989 -19.087 -35.888  0.00  0.00     0.244 C 
ATOM     34  CD  PRO d   1     -17.429 -20.030 -34.125  0.00  0.00     0.014 C 
ATOM     35  O   PHE d   1     -15.877 -18.491 -36.972  0.00  0.00    -0.271 OA
ATOM     36  CG  PRO d   1     -18.759 -19.605 -33.734  0.00  0.00    -0.087 C 
ATOM     37  H24 PRO d   1     -16.716 -19.913 -33.296  0.00  0.00     0.070 H 
ATOM     38  H25 PRO d   1     -17.431 -21.077 -34.463  0.00  0.00     0.070 H 
ATOM     39  CB  PRO d   1     -19.404 -18.966 -34.799  0.00  0.00    -0.075 C 
ATOM     40  H23 PRO d   1     -19.195 -19.761 -32.749  0.00  0.00     0.079 H 
ATOM     41  H22 PRO d   1     -20.477 -18.835 -34.928  0.00  0.00     0.080 H 
ATOM     42  H21 PRO d   1     -18.506 -18.852 -36.762  0.00  0.00     0.094 H 
BRANCH  33  43
ATOM     43  CA  PHE d   1     -14.794 -19.793 -35.283  0.00  0.00     0.093 C 
ATOM     44  H13 PHE d   1     -15.129 -20.718 -34.790  0.00  0.00     0.088 H 
BRANCH  43  45
ATOM     45  N   PHE d   1     -13.939 -20.122 -36.409  0.00  0.00    -0.346 N 
ATOM     46  C   TYR d   1     -13.254 -21.256 -36.430  0.00  0.00     0.249 C 
ATOM     47  O   TYR d   1     -13.053 -21.943 -35.420  0.00  0.00    -0.271 OA
ATOM     48  H12 PHE d   1     -13.866 -19.486 -37.177  0.00  0.00     0.163 HD
BRANCH  46  49
ATOM     49  CA  TYR d   1     -12.688 -21.666 -37.768  0.00  0.00     0.179 C 
ATOM     50  H4  TYR d   1     -12.630 -20.776 -38.411  0.00  0.00     0.099 H 
BRANCH  49  51
ATOM     51  N   TYR d   1     -11.314 -22.231 -37.617  0.00  0.00    -0.066 N 
ATOM     52  H1  TYR d   1     -10.959 -22.497 -38.522  0.00  0.00     0.275 HD
ATOM     53  H2  TYR d   1     -11.348 -23.041 -37.018  0.00  0.00     0.275 HD
ATOM     54  H3  TYR d   1     -10.708 -21.537 -37.209  0.00  0.00     0.275 HD
ENDBRANCH  49  51
BRANCH  49  55
ATOM     55  CB  TYR d   1     -13.610 -22.690 -38.429  0.00  0.00    -0.006 C 
ATOM     56  H5  TYR d   1     -13.443 -23.664 -37.945  0.00  0.00     0.043 H 
ATOM     57  H6  TYR d   1     -13.339 -22.758 -39.493  0.00  0.00     0.043 H 
BRANCH  55  58
ATOM     58  CG  TYR d   1     -15.071 -22.371 -38.340  0.00  0.00    -0.056 A 
ATOM     59  CD1 TYR d   1     -15.838 -22.811 -37.253  0.00  0.00    -0.074 A 
ATOM     60  CE1 TYR d   1     -17.213 -22.554 -37.185  0.00  0.00    -0.051 A 
ATOM     61  H7  TYR d   1     -15.359 -23.360 -36.451  0.00  0.00     0.084 H 
ATOM     62  CZ  TYR d   1     -17.808 -21.812 -38.188  0.00  0.00     0.065 A 
ATOM     63  H9  TYR d   1     -17.802 -22.932 -36.357  0.00  0.00     0.087 H 
ATOM     64  CE2 TYR d   1     -17.069 -21.337 -39.260  0.00  0.00    -0.051 A 
ATOM     65  CD2 TYR d   1     -15.704 -21.642 -39.341  0.00  0.00    -0.074 A 
ATOM     66  H10 TYR d   1     -17.542 -20.736 -40.028  0.00  0.00     0.087 H 
ATOM     67  H8  TYR d   1     -15.132 -21.304 -40.198  0.00  0.00     0.084 H 
BRANCH  62  68
ATOM     68  OH  TYR d   1     -19.127 -21.520 -38.143  0.00  0.00    -0.361 OA
ATOM     69  H11 TYR d   1     -19.509 -21.904 -37.362  0.00  0.00     0.217 HD
ENDBRANCH  62  68
ENDBRANCH  55  58
ENDBRANCH  49  55
ENDBRANCH  46  49
ENDBRANCH  43  45
BRANCH  43  70
ATOM     70  CB  PHE d   1     -14.048 -18.937 -34.237  0.00  0.00    -0.014 C 
ATOM     71  H14 PHE d   1     -13.139 -19.477 -33.932  0.00  0.00     0.043 H 
ATOM     72  H15 PHE d   1     -14.706 -18.805 -33.365  0.00  0.00     0.043 H 
BRANCH  70  73
ATOM     73  CG  PHE d   1     -13.644 -17.572 -34.739  0.00  0.00    -0.056 A 
ATOM     74  CD1 PHE d   1     -12.387 -17.388 -35.306  0.00  0.00    -0.077 A 
ATOM     75  CE1 PHE d   1     -11.982 -16.125 -35.789  0.00  0.00    -0.082 A 
ATOM     76  H16 PHE d   1     -11.707 -18.229 -35.378  0.00  0.00     0.084 H 
ATOM     77  CZ  PHE d   1     -12.853 -15.032 -35.721  0.00  0.00    -0.083 A 
ATOM     78  H18 PHE d   1     -10.993 -16.001 -36.214  0.00  0.00     0.083 H 
ATOM     79  CE2 PHE d   1     -14.135 -15.195 -35.136  0.00  0.00    -0.082 A 
ATOM     80  H20 PHE d   1     -12.550 -14.068 -36.113  0.00  0.00     0.083 H 
ATOM     81  CD2 PHE d   1     -14.518 -16.489 -34.660  0.00  0.00    -0.077 A 
ATOM     82  H19 PHE d   1     -14.813 -14.354 -35.051  0.00  0.00     0.083 H 
ATOM     83  H17 PHE d   1     -15.504 -16.629 -34.231  0.00  0.00     0.084 H 
ENDBRANCH  70  73
ENDBRANCH  43  70
ENDBRANCH  33  43
ENDBRANCH  28  31
ENDBRANCH  25  27
BRANCH  25  84
ATOM     84  CB  THR d   1     -17.580 -14.692 -38.431  0.00  0.00     0.060 C 
ATOM     85  H28 THR d   1     -17.673 -13.622 -38.669  0.00  0.00     0.086 H 
BRANCH  84  86
ATOM     86  OG1 THR d   1     -18.113 -15.443 -39.498  0.00  0.00    -0.393 OA
ATOM     87  H29 THR d   1     -18.061 -16.368 -39.289  0.00  0.00     0.210 HD
ENDBRANCH  84  86
BRANCH  84  88
ATOM     88  CG2 THR d   1     -16.155 -15.008 -38.273  0.00  0.00    -0.050 C 
ATOM     89  H30 THR d   1     -15.625 -14.793 -39.213  0.00  0.00     0.031 H 
ATOM     90  H31 THR d   1     -16.041 -16.073 -38.024  0.00  0.00     0.031 H 
ATOM     91  H32 THR d   1     -15.731 -14.395 -37.464  0.00  0.00     0.031 H 
ENDBRANCH  84  88
ENDBRANCH  25  84
ENDBRANCH  22  25
ENDBRANCH  19  21
BRANCH  19  92
ATOM     92  CB  ASP d   1     -22.052 -12.049 -35.680  0.00  0.00     0.043 C 
ATOM     93  H35 ASP d   1     -22.895 -11.403 -35.966  0.00  0.00     0.052 H 
ATOM     94  H36 ASP d   1     -21.317 -11.463 -35.108  0.00  0.00     0.052 H 
BRANCH  92  95
ATOM     95  CG  ASP d   1     -22.581 -13.173 -34.785  0.00  0.00     0.175 C 
ATOM     96  OD1 ASP d   1     -23.407 -14.023 -35.238  0.00  0.00    -0.648 OA
ATOM     97  OD2 ASP d   1     -22.186 -13.184 -33.599  0.00  0.00    -0.648 OA
ENDBRANCH  92  95
ENDBRANCH  19  92
ENDBRANCH  16  19
ENDBRANCH  13  15
BRANCH  13  98
ATOM     98  CB  GLU d   1     -23.271 -10.256 -40.708  0.00  0.00    -0.029 C 
ATOM     99  H39 GLU d   1     -24.108 -10.039 -40.028  0.00  0.00     0.037 H 
ATOM    100  H40 GLU d   1     -23.393 -11.265 -41.129  0.00  0.00     0.037 H 
BRANCH  98 101
ATOM    101  CG  GLU d   1     -23.333  -9.255 -41.862  0.00  0.00     0.018 C 
ATOM    102  H41 GLU d   1     -23.400  -8.240 -41.443  0.00  0.00     0.049 H 
ATOM    103  H42 GLU d   1     -24.232  -9.465 -42.461  0.00  0.00     0.049 H 
BRANCH 101 104
ATOM    104  CD  GLU d   1     -22.118  -9.325 -42.771  0.00  0.00     0.172 C 
ATOM    105  OE1 GLU d   1     -21.746 -10.446 -43.183  0.00  0.00    -0.648 OA
ATOM    106  OE2 GLU d   1     -21.544  -8.253 -43.066  0.00  0.00    -0.648 OA
ENDBRANCH 101 104
ENDBRANCH  98 101
ENDBRANCH  13  98
ENDBRANCH  10  13
ENDBRANCH   7   9
BRANCH   7 107
ATOM    107  CB  ARG d   1     -23.286  -6.794 -36.775  0.00  0.00    -0.036 C 
ATOM    108  H45 ARG d   1     -24.143  -7.435 -37.030  0.00  0.00     0.036 H 
ATOM    109  H46 ARG d   1     -23.559  -5.739 -36.928  0.00  0.00     0.036 H 
BRANCH 107 110
ATOM    110  CG  ARG d   1     -22.981  -6.988 -35.292  0.00  0.00    -0.048 C 
ATOM    111  H47 ARG d   1     -23.559  -6.252 -34.714  0.00  0.00     0.035 H 
ATOM    112  H48 ARG d   1     -21.906  -6.821 -35.128  0.00  0.00     0.035 H 
BRANCH 110 113
ATOM    113  CD  ARG d   1     -23.336  -8.374 -34.803  0.00  0.00     0.009 C 
ATOM    114  H49 ARG d   1     -22.408  -8.940 -34.631  0.00  0.00     0.064 H 
ATOM    115  H50 ARG d   1     -23.937  -8.880 -35.573  0.00  0.00     0.064 H 
BRANCH 113 116
ATOM    116  NE  ARG d   1     -24.104  -8.329 -33.554  0.00  0.00    -0.227 N 
ATOM    117  CZ  ARG d   1     -23.714  -8.845 -32.388  0.00  0.00     0.665 C 
ATOM    118  NH1 ARG d   1     -22.537  -9.464 -32.271  0.00  0.00    -0.235 N 
ATOM    119  NH2 ARG d   1     -24.516  -8.750 -31.335  0.00  0.00    -0.235 N 
ATOM    120  H52 ARG d   1     -22.250  -9.857 -31.363  0.00  0.00     0.174 HD
ATOM    121  H53 ARG d   1     -21.916  -9.548 -33.088  0.00  0.00     0.174 HD
ATOM    122  H54 ARG d   1     -25.425  -8.273 -31.421  0.00  0.00     0.174 HD
ATOM    123  H55 ARG d   1     -24.230  -9.153 -30.431  0.00  0.00     0.174 HD
ATOM    124  H51 ARG d   1     -25.021  -7.860 -33.580  0.00  0.00     0.177 HD
ENDBRANCH 113 116
ENDBRANCH 110 113
ENDBRANCH 107 110
ENDBRANCH   7 107
ENDBRANCH   4   7
ENDBRANCH   1   3
BRANCH   1 125
ATOM    125  C   SER d   1     -17.647  -7.599 -37.186  0.00  0.00     0.243 C 
ATOM    126  O   SER d   1     -16.533  -7.276 -36.812  0.00  0.00    -0.271 OA
ATOM    127  N   TRP d   1     -17.952  -7.803 -38.476  0.00  0.00    -0.346 N 
ATOM    128  H61 TRP d   1     -18.872  -8.110 -38.720  0.00  0.00     0.163 HD
BRANCH 127 129
ATOM    129  CA  TRP d   1     -16.959  -7.583 -39.537  0.00  0.00     0.093 C 
ATOM    130  H62 TRP d   1     -16.045  -8.139 -39.281  0.00  0.00     0.088 H 
BRANCH 129 131
ATOM    131  C   TRP d   1     -16.641  -6.115 -39.636  0.00  0.00     0.241 C 
ATOM    132  O   TRP d   1     -17.551  -5.267 -39.540  0.00  0.00    -0.271 OA
ATOM    133  N   VAL d   1     -15.360  -5.802 -39.826  0.00  0.00    -0.346 N 
ATOM    134  H71 VAL d   1     -14.671  -6.526 -39.828  0.00  0.00     0.163 HD
BRANCH 133 135
ATOM    135  CA  VAL d   1     -14.952  -4.427 -40.029  0.00  0.00     0.092 C 
ATOM    136  H72 VAL d   1     -15.811  -3.759 -39.866  0.00  0.00     0.088 H 
BRANCH 135 137
ATOM    137  C   VAL d   1     -14.512  -4.347 -41.483  0.00  0.00     0.241 C 
ATOM    138  O   VAL d   1     -13.444  -4.826 -41.842  0.00  0.00    -0.271 OA
ATOM    139  N   TYR d   1     -15.391  -3.797 -42.320  0.00  0.00    -0.346 N 
ATOM    140  H80 TYR d   1     -16.233  -3.397 -41.958  0.00  0.00     0.163 HD
BRANCH 139 141
ATOM    141  CA  TYR d   1     -15.144  -3.770 -43.747  0.00  0.00     0.093 C 
ATOM    142  H81 TYR d   1     -14.622  -4.698 -44.023  0.00  0.00     0.088 H 
BRANCH 141 143
ATOM    143  C   TYR d   1     -14.273  -2.578 -44.164  0.00  0.00     0.241 C 
ATOM    144  O   TYR d   1     -14.484  -1.441 -43.706  0.00  0.00    -0.271 OA
ATOM    145  N   SER d   1     -13.375  -2.811 -45.122  0.00  0.00    -0.344 N 
ATOM    146  H89 SER d   1     -13.252  -3.736 -45.481  0.00  0.00     0.163 HD
BRANCH 145 147
ATOM    147  CA  SER d   1     -12.568  -1.704 -45.647  0.00  0.00     0.109 C 
ATOM    148  H90 SER d   1     -12.297  -1.035 -44.817  0.00  0.00     0.090 H 
BRANCH 147 149
ATOM    149  C   SER d   1     -13.400  -0.910 -46.697  0.00  0.00     0.245 C 
ATOM    150  O   SER d   1     -14.103  -1.519 -47.539  0.00  0.00    -0.271 OA
ATOM    151  N   PRO d   1     -13.299   0.427 -46.662  0.00  0.00    -0.337 N 
ATOM    152  CA  PRO d   1     -13.897   1.207 -47.750  0.00  0.00     0.091 C 
ATOM    153  CD  PRO d   1     -12.665   1.292 -45.647  0.00  0.00    -0.001 C 
ATOM    154  CB  PRO d   1     -13.771   2.657 -47.252  0.00  0.00    -0.036 C 
ATOM    155  H94 PRO d   1     -14.953   0.933 -47.889  0.00  0.00     0.087 H 
ATOM    156  CG  PRO d   1     -12.578   2.660 -46.365  0.00  0.00    -0.048 C 
ATOM    157  H95 PRO d   1     -14.670   2.952 -46.691  0.00  0.00     0.036 H 
ATOM    158  H96 PRO d   1     -13.625   3.345 -48.098  0.00  0.00     0.036 H 
ATOM    159  H97 PRO d   1     -12.626   3.488 -45.642  0.00  0.00     0.035 H 
ATOM    160  H98 PRO d   1     -11.651   2.739 -46.952  0.00  0.00     0.035 H 
ATOM    161  H99 PRO d   1     -11.665   0.921 -45.380  0.00  0.00     0.064 H 
ATOM    162 0H10 PRO d   1     -13.285   1.359 -44.741  0.00  0.00     0.064 H 
BRANCH 152 163
ATOM    163  C   PRO d   1     -13.146   1.005 -49.076  0.00  0.00     0.241 C 
ATOM    164  O   PRO d   1     -11.936   0.729 -49.057  0.00  0.00    -0.271 OA
ATOM    165  N   LEU d   1     -13.845   1.158 -50.208  0.00  0.00    -0.346 N 
ATOM    166 1H10 LEU d   1     -14.823   1.359 -50.153  0.00  0.00     0.163 HD
BRANCH 165 167
ATOM    167  CA  LEU d   1     -13.221   1.040 -51.508  0.00  0.00     0.089 C 
ATOM    168 2H10 LEU d   1     -12.215   0.614 -51.379  0.00  0.00     0.087 H 
BRANCH 167 169
ATOM    169  C   LEU d   1     -13.111   2.396 -52.155  0.00  0.00     0.241 C 
ATOM    170  O   LEU d   1     -14.097   3.137 -52.225  0.00  0.00    -0.271 OA
ATOM    171  N   HIS d   1     -11.911   2.719 -52.616  0.00  0.00    -0.344 N 
ATOM    172 2H11 HIS d   1     -11.145   2.093 -52.467  0.00  0.00     0.163 HD
BRANCH 171 173
ATOM    173  CA  HIS d   1     -11.682   3.972 -53.338  0.00  0.00     0.101 C 
ATOM    174 3H11 HIS d   1     -12.571   4.613 -53.248  0.00  0.00     0.090 H 
BRANCH 173 175
ATOM    175  C   HIS d   1     -11.475   3.584 -54.796  0.00  0.00     0.197 C 
ATOM    176  O   HIS d   1     -10.712   2.637 -55.137  0.00  0.00    -0.646 OA
ATOM    177  OXT HIS d   1     -12.120   4.170 -55.661  0.00  0.00    -0.646 OA
ENDBRANCH 173 175
BRANCH 173 178
ATOM    178  CB  HIS d   1     -10.473   4.742 -52.797  0.00  0.00     0.005 C 
ATOM    179 4H11 HIS d   1     -10.448   5.728 -53.283  0.00  0.00     0.046 H 
ATOM    180 5H11 HIS d   1      -9.564   4.181 -53.059  0.00  0.00     0.046 H 
BRANCH 178 181
ATOM    181  CG  HIS d   1     -10.482   4.953 -51.306  0.00  0.00     0.053 A 
ATOM    182  ND1 HIS d   1      -9.366   5.382 -50.614  0.00  0.00    -0.247 NA
ATOM    183  CE1 HIS d   1      -9.655   5.488 -49.330  0.00  0.00     0.064 A 
ATOM    184  NE2 HIS d   1     -10.914   5.121 -49.157  0.00  0.00    -0.359 N 
ATOM    185 7H11 HIS d   1      -8.974   5.820 -48.548  0.00  0.00     0.143 H 
ATOM    186  CD2 HIS d   1     -11.453   4.780 -50.375  0.00  0.00     0.002 A 
ATOM    187 8H11 HIS d   1     -11.411   5.095 -48.255  0.00  0.00     0.166 HD
ATOM    188 6H11 HIS d   1     -12.470   4.435 -50.558  0.00  0.00     0.114 H 
ENDBRANCH 178 181
ENDBRANCH 173 178
ENDBRANCH 171 173
ENDBRANCH 167 169
BRANCH 167 189
ATOM    189  CB  LEU d   1     -14.030   0.138 -52.433  0.00  0.00    -0.035 C 
ATOM    190 3H10 LEU d   1     -13.533   0.143 -53.414  0.00  0.00     0.037 H 
ATOM    191 4H10 LEU d   1     -15.033   0.579 -52.528  0.00  0.00     0.037 H 
BRANCH 189 192
ATOM    192  CG  LEU d   1     -14.209  -1.313 -52.022  0.00  0.00    -0.059 C 
ATOM    193 5H10 LEU d   1     -14.789  -1.358 -51.089  0.00  0.00     0.038 H 
BRANCH 192 194
ATOM    194  CD1 LEU d   1     -14.986  -2.001 -53.136  0.00  0.00    -0.073 C 
ATOM    195 6H10 LEU d   1     -15.138  -3.059 -52.877  0.00  0.00     0.028 H 
ATOM    196 7H10 LEU d   1     -14.419  -1.931 -54.076  0.00  0.00     0.028 H 
ATOM    197 8H10 LEU d   1     -15.962  -1.510 -53.260  0.00  0.00     0.028 H 
ENDBRANCH 192 194
BRANCH 192 198
ATOM    198  CD2 LEU d   1     -12.843  -2.013 -51.789  0.00  0.00    -0.073 C 
ATOM    199 9H10 LEU d   1     -12.301  -1.499 -50.981  0.00  0.00     0.028 H 
ATOM    200 0H11 LEU d   1     -12.248  -1.973 -52.713  0.00  0.00     0.028 H 
ATOM    201 1H11 LEU d   1     -13.012  -3.063 -51.507  0.00  0.00     0.028 H 
ENDBRANCH 192 198
ENDBRANCH 189 192
ENDBRANCH 167 189
ENDBRANCH 165 167
ENDBRANCH 152 163
ENDBRANCH 147 149
BRANCH 147 202
ATOM    202  CB  SER d   1     -11.289  -2.220 -46.305  0.00  0.00     0.044 C 
ATOM    203  H91 SER d   1     -10.707  -1.365 -46.681  0.00  0.00     0.077 H 
ATOM    204  H92 SER d   1     -11.556  -2.879 -47.144  0.00  0.00     0.077 H 
BRANCH 202 205
ATOM    205  OG  SER d   1     -10.494  -2.953 -45.368  0.00  0.00    -0.398 OA
ATOM    206  H93 SER d   1     -10.258  -2.386 -44.643  0.00  0.00     0.209 HD
ENDBRANCH 202 205
ENDBRANCH 147 202
ENDBRANCH 145 147
ENDBRANCH 141 143
BRANCH 141 207
ATOM    207  CB  TYR d   1     -16.467  -3.696 -44.515  0.00  0.00    -0.014 C 
ATOM    208  H82 TYR d   1     -16.248  -3.388 -45.548  0.00  0.00     0.043 H 
ATOM    209  H83 TYR d   1     -17.102  -2.938 -44.033  0.00  0.00     0.043 H 
BRANCH 207 210
ATOM    210  CG  TYR d   1     -17.236  -4.993 -44.563  0.00  0.00    -0.056 A 
ATOM    211  CD1 TYR d   1     -17.082  -5.883 -45.607  0.00  0.00    -0.074 A 
ATOM    212  CE1 TYR d   1     -17.794  -7.077 -45.611  0.00  0.00    -0.051 A 
ATOM    213  H84 TYR d   1     -16.407  -5.651 -46.423  0.00  0.00     0.084 H 
ATOM    214  CZ  TYR d   1     -18.676  -7.341 -44.565  0.00  0.00     0.065 A 
ATOM    215  H86 TYR d   1     -17.665  -7.792 -46.416  0.00  0.00     0.087 H 
ATOM    216  CE2 TYR d   1     -18.855  -6.468 -43.545  0.00  0.00    -0.051 A 
ATOM    217  CD2 TYR d   1     -18.153  -5.297 -43.548  0.00  0.00    -0.074 A 
ATOM    218  H87 TYR d   1     -19.544  -6.695 -42.740  0.00  0.00     0.087 H 
ATOM    219  H85 TYR d   1     -18.309  -4.585 -42.746  0.00  0.00     0.084 H 
BRANCH 214 220
ATOM    220  OH  TYR d   1     -19.425  -8.494 -44.541  0.00  0.00    -0.361 OA
ATOM    221  H88 TYR d   1     -20.348  -8.271 -44.555  0.00  0.00     0.217 HD
ENDBRANCH 214 220
ENDBRANCH 207 210
ENDBRANCH 141 207
ENDBRANCH 139 141
ENDBRANCH 135 137
BRANCH 135 222
ATOM    222  CB  VAL d   1     -13.827  -4.013 -39.062  0.00  0.00    -0.033 C 
ATOM    223  H73 VAL d   1     -12.947  -4.638 -39.272  0.00  0.00     0.042 H 
BRANCH 222 224
ATOM    224  CG1 VAL d   1     -13.418  -2.545 -39.279  0.00  0.00    -0.071 C 
ATOM    225  H74 VAL d   1     -12.615  -2.280 -38.575  0.00  0.00     0.028 H 
ATOM    226  H75 VAL d   1     -14.287  -1.893 -39.106  0.00  0.00     0.028 H 
ATOM    227  H76 VAL d   1     -13.060  -2.413 -40.311  0.00  0.00     0.028 H 
ENDBRANCH 222 224
BRANCH 222 228
ATOM    228  CG2 VAL d   1     -14.272  -4.289 -37.602  0.00  0.00    -0.071 C 
ATOM    229  H77 VAL d   1     -14.553  -5.347 -37.498  0.00  0.00     0.028 H 
ATOM    230  H78 VAL d   1     -15.136  -3.654 -37.356  0.00  0.00     0.028 H 
ATOM    231  H79 VAL d   1     -13.442  -4.061 -36.916  0.00  0.00     0.028 H 
ENDBRANCH 222 228
ENDBRANCH 135 222
ENDBRANCH 133 135
ENDBRANCH 129 131
BRANCH 129 232
ATOM    232  CB  TRP d   1     -17.456  -8.052 -40.904  0.00  0.00    -0.012 C 
ATOM    233  H63 TRP d   1     -16.816  -7.602 -41.677  0.00  0.00     0.044 H 
ATOM    234  H64 TRP d   1     -18.490  -7.700 -41.034  0.00  0.00     0.044 H 
BRANCH 232 235
ATOM    235  CG  TRP d   1     -17.439  -9.514 -41.084  0.00  0.00    -0.028 A 
ATOM    236  CD1 TRP d   1     -18.507 -10.362 -41.090  0.00  0.00    -0.015 A 
ATOM    237  NE1 TRP d   1     -18.074 -11.666 -41.260  0.00  0.00    -0.365 N 
ATOM    238  H65 TRP d   1     -19.547 -10.058 -40.978  0.00  0.00     0.112 H 
ATOM    239  CE2 TRP d   1     -16.704 -11.664 -41.355  0.00  0.00     0.042 A 
ATOM    240  H66 TRP d   1     -18.678 -12.499 -41.307  0.00  0.00     0.165 HD
ATOM    241  CD2 TRP d   1     -16.273 -10.325 -41.235  0.00  0.00    -0.002 A 
ATOM    242  CZ2 TRP d   1     -15.810 -12.723 -41.529  0.00  0.00    -0.056 A 
ATOM    243  CE3 TRP d   1     -14.897 -10.040 -41.281  0.00  0.00    -0.070 A 
ATOM    244  CZ3 TRP d   1     -14.014 -11.073 -41.478  0.00  0.00    -0.082 A 
ATOM    245  H67 TRP d   1     -14.540  -9.023 -41.163  0.00  0.00     0.084 H 
ATOM    246  CH2 TRP d   1     -14.473 -12.407 -41.575  0.00  0.00    -0.081 A 
ATOM    247  H69 TRP d   1     -12.954 -10.864 -41.560  0.00  0.00     0.083 H 
ATOM    248  H70 TRP d   1     -13.748 -13.205 -41.689  0.00  0.00     0.083 H 
ATOM    249  H68 TRP d   1     -16.154 -13.746 -41.623  0.00  0.00     0.086 H 
ENDBRANCH 232 235
ENDBRANCH 129 232
ENDBRANCH 127 129
ENDBRANCH   1 125
BRANCH   1 250
ATOM    250  CB  SER d   1     -18.436  -8.903 -35.175  0.00  0.00     0.044 C 
ATOM    251  H58 SER d   1     -17.470  -8.698 -34.691  0.00  0.00     0.077 H 
ATOM    252  H59 SER d   1     -18.378  -9.857 -35.720  0.00  0.00     0.077 H 
BRANCH 250 253
ATOM    253  OG  SER d   1     -19.459  -8.985 -34.180  0.00  0.00    -0.398 OA
ATOM    254  H60 SER d   1     -19.253  -9.686 -33.573  0.00  0.00     0.209 HD
ENDBRANCH 250 253
ENDBRANCH   1 250
TORSDOF 63
