REMARK  5 active torsions:
REMARK  status: ('A' for Active; 'I' for Inactive)
REMARK    1  A    between atoms: C3_2  and  N6_18 
REMARK    2  A    between atoms: C15_8  and  C17_6 
REMARK    3  A    between atoms: C15_8  and  C16_9 
REMARK    4  A    between atoms: C11_10  and  C15_8 
REMARK    5  A    between atoms: N4_14  and  C14_15 
ROOT
ATOM      1  C2  B52 d   1     -76.928  84.345  92.962  0.00  0.00     0.162 A 
ATOM      2  C3  B52 d   1     -77.474  83.193  90.985  0.00  0.00     0.702 A 
ATOM      3  C4  B52 d   1     -78.802  85.077  91.494  0.00  0.00     0.255 A 
ATOM      4  C1  B52 d   1     -78.011  85.321  92.719  0.00  0.00     0.147 A 
ATOM      5  C11 B52 d   1     -77.337  86.540  94.902  0.00  0.00     0.116 A 
ATOM      6  C12 B52 d   1     -78.237  86.435  93.695  0.00  0.00     0.197 A 
ATOM      7  O13 B52 d   1     -79.157  87.254  93.515  0.00  0.00    -0.290 OA
ATOM      8  N3  B52 d   1     -76.369  85.590  95.004  0.00  0.00    -0.171 NA
ATOM      9  N4  B52 d   1     -76.133  84.526  94.094  0.00  0.00    -0.258 N 
ATOM     10  O4  B52 d   1     -79.725  85.836  91.193  0.00  0.00    -0.271 OA
ATOM     11  N1  B52 d   1     -76.713  83.327  92.094  0.00  0.00    -0.049 NA
ATOM     12  N2  B52 d   1     -78.490  84.032  90.706  0.00  0.00    -0.157 N 
ATOM     13  H1  B52 d   1     -77.331  85.975  92.153  0.00  0.00     0.079 H 
ATOM     14  H11 B52 d   1     -79.033  83.872  89.882  0.00  0.00     0.187 HD
ENDROOT
BRANCH   5  15
ATOM     15  C15 B52 d   1     -77.442  87.582  96.007  0.00  0.00     0.074 C 
ATOM     16  H2  B52 d   1     -76.818  87.216  96.836  0.00  0.00     0.066 H 
BRANCH  15  17
ATOM     17  C17 B52 d   1     -78.875  87.749  96.579  0.00  0.00     0.182 C 
ATOM     18  O18 B52 d   1     -79.540  86.694  96.872  0.00  0.00    -0.647 OA
ATOM     19  O19 B52 d   1     -79.365  88.926  96.782  0.00  0.00    -0.647 OA
ENDBRANCH  15  17
BRANCH  15  20
ATOM     20  C16 B52 d   1     -76.860  88.921  95.577  0.00  0.00    -0.058 C 
ATOM     21  H3  B52 d   1     -76.955  89.644  96.401  0.00  0.00     0.029 H 
ATOM     22  H4  B52 d   1     -77.407  89.293  94.698  0.00  0.00     0.029 H 
ATOM     23  H5  B52 d   1     -75.798  88.794  95.322  0.00  0.00     0.029 H 
ENDBRANCH  15  20
ENDBRANCH   5  15
BRANCH   9  24
ATOM     24  C14 B52 d   1     -75.061  83.571  94.353  0.00  0.00     0.004 C 
ATOM     25  H6  B52 d   1     -74.533  83.853  95.276  0.00  0.00     0.059 H 
ATOM     26  H7  B52 d   1     -74.354  83.576  93.510  0.00  0.00     0.059 H 
ATOM     27  H8  B52 d   1     -75.487  82.564  94.468  0.00  0.00     0.059 H 
ENDBRANCH   9  24
BRANCH   2  28
ATOM     28  N6  B52 d   1     -77.225  82.153  90.159  0.00  0.00    -0.233 N 
ATOM     29  H9  B52 d   1     -76.450  81.506  90.364  0.00  0.00     0.174 HD
ATOM     30  H10 B52 d   1     -77.810  82.007  89.324  0.00  0.00     0.174 HD
ENDBRANCH   2  28
TORSDOF 5
