REMARK  2 active torsions:
REMARK  status: ('A' for Active; 'I' for Inactive)
REMARK    1  A    between atoms: N9_2  and  C4_3 
REMARK    2  A    between atoms: C7_6  and  N12_7 
ROOT
ATOM      1  C4  B53 d   1     -78.880  86.168  93.215  0.00  0.00     0.193 A 
ATOM      2  C1  B53 d   1     -79.808  86.004  92.071  0.00  0.00     0.270 A 
ATOM      3  O2  B53 d   1     -80.781  86.753  91.875  0.00  0.00    -0.270 OA
ATOM      4  C7  B53 d   1     -77.783  85.172  93.329  0.00  0.00     0.148 A 
ATOM      5  N6  B53 d   1     -77.695  84.166  92.414  0.00  0.00    -0.177 N 
ATOM      6  C5  B53 d   1     -78.597  84.087  91.397  0.00  0.00     0.680 A 
ATOM      7  N8  B53 d   1     -78.510  83.095  90.500  0.00  0.00    -0.234 N 
ATOM      8  N3  B53 d   1     -79.618  84.960  91.247  0.00  0.00    -0.158 N 
ATOM      9  H1  B53 d   1     -79.537  85.553  93.848  0.00  0.00     0.107 H 
ATOM     10  H3  B53 d   1     -76.945  83.464  92.492  0.00  0.00     0.185 HD
ATOM     11  H4  B53 d   1     -79.192  83.035  89.731  0.00  0.00     0.174 HD
ATOM     12  H5  B53 d   1     -77.761  82.393  90.580  0.00  0.00     0.174 HD
ATOM     13  H6  B53 d   1     -80.258  84.823  90.491  0.00  0.00     0.187 HD
ENDROOT
BRANCH   1  14
ATOM     14  N9  B53 d   1     -78.971  87.209  94.140  0.00  0.00    -0.118 NA
ATOM     15  O10 B53 d   1     -80.024  87.790  94.379  0.00  0.00    -0.066 OA
ENDBRANCH   1  14
BRANCH   4  16
ATOM     16  N12 B53 d   1     -76.870  85.289  94.316  0.00  0.00    -0.285 NA
ATOM     17  H2  B53 d   1     -76.125  84.615  94.396  0.00  0.00     0.188 HD
ENDBRANCH   4  16
TORSDOF 2
