REMARK  8 active torsions:
REMARK  status: ('A' for Active; 'I' for Inactive)
REMARK    1  A    between atoms: C21_2  and  C18_4 
REMARK    2  A    between atoms: C15_9  and  O14_10 
REMARK    3  A    between atoms: O14_10  and  C13_11 
REMARK    4  A    between atoms: C13_11  and  C12_12 
REMARK    5  A    between atoms: C12_12  and  C11_13 
REMARK    6  A    between atoms: C11_13  and  N10_14 
REMARK    7  A    between atoms: N10_14  and  C4_15 
REMARK    8  A    between atoms: C5_16  and  N9_17 
ROOT
ATOM      1  C12 B54 d   1     -73.322  84.675  94.621  0.00  0.00    -0.030 C 
ATOM      2  H7  B54 d   1     -72.279  84.347  94.498  0.00  0.00     0.038 H 
ATOM      3  H8  B54 d   1     -73.482  85.607  94.059  0.00  0.00     0.038 H 
ENDROOT
BRANCH   1   4
ATOM      4  C13 B54 d   1     -73.553  84.967  96.090  0.00  0.00     0.028 C 
ATOM      5  H5  B54 d   1     -73.428  84.046  96.678  0.00  0.00     0.075 H 
ATOM      6  H6  B54 d   1     -72.835  85.725  96.438  0.00  0.00     0.075 H 
BRANCH   4   7
ATOM      7  O14 B54 d   1     -74.880  85.456  96.235  0.00  0.00    -0.351 OA
BRANCH   7   8
ATOM      8  C15 B54 d   1     -75.598  85.418  97.423  0.00  0.00     0.068 A 
ATOM      9  C20 B54 d   1     -75.165  84.638  98.509  0.00  0.00    -0.050 A 
ATOM     10  C19 B54 d   1     -75.906  84.623  99.693  0.00  0.00    -0.064 A 
ATOM     11  H2  B54 d   1     -74.258  84.049  98.428  0.00  0.00     0.087 H 
ATOM     12  C18 B54 d   1     -77.104  85.359  99.782  0.00  0.00     0.041 A 
ATOM     13  H1  B54 d   1     -75.560  84.046 100.543  0.00  0.00     0.085 H 
ATOM     14  C17 B54 d   1     -77.539  86.162  98.721  0.00  0.00    -0.064 A 
ATOM     15  C16 B54 d   1     -76.794  86.159  97.544  0.00  0.00    -0.050 A 
ATOM     16  H3  B54 d   1     -78.432  86.770  98.813  0.00  0.00     0.085 H 
ATOM     17  H4  B54 d   1     -77.142  86.741  96.698  0.00  0.00     0.087 H 
BRANCH  12  18
ATOM     18  C21 B54 d   1     -77.849  85.357 101.080  0.00  0.00     0.209 C 
ATOM     19  O22 B54 d   1     -78.788  86.158 101.201  0.00  0.00    -0.644 OA
ATOM     20  O23 B54 d   1     -77.462  84.621 102.027  0.00  0.00    -0.644 OA
ENDBRANCH  12  18
ENDBRANCH   7   8
ENDBRANCH   4   7
ENDBRANCH   1   4
BRANCH   1  21
ATOM     21  C11 B54 d   1     -74.234  83.595  94.023  0.00  0.00    -0.004 C 
ATOM     22  H9  B54 d   1     -74.348  82.778  94.751  0.00  0.00     0.064 H 
ATOM     23  H10 B54 d   1     -73.773  83.205  93.104  0.00  0.00     0.064 H 
BRANCH  21  24
ATOM     24  N10 B54 d   1     -75.540  84.128  93.705  0.00  0.00    -0.375 N 
ATOM     25  H11 B54 d   1     -75.984  84.724  94.418  0.00  0.00     0.160 HD
BRANCH  24  26
ATOM     26  C4  B54 d   1     -76.241  83.921  92.559  0.00  0.00     0.155 A 
ATOM     27  C5  B54 d   1     -77.434  84.743  92.234  0.00  0.00     0.194 A 
ATOM     28  C2  B54 d   1     -78.134  84.472  90.977  0.00  0.00     0.270 A 
ATOM     29  H12 B54 d   1     -76.788  85.486  91.744  0.00  0.00     0.107 H 
ATOM     30  O8  B54 d   1     -79.158  85.145  90.713  0.00  0.00    -0.270 OA
ATOM     31  N2  B54 d   1     -77.703  83.456  90.203  0.00  0.00    -0.154 N 
ATOM     32  C1  B54 d   1     -76.607  82.752  90.519  0.00  0.00     0.723 A 
ATOM     33  H13 B54 d   1     -78.212  83.222  89.375  0.00  0.00     0.187 HD
ATOM     34  N1  B54 d   1     -75.929  82.975  91.660  0.00  0.00    -0.047 NA
ATOM     35  N7  B54 d   1     -76.143  81.801  89.705  0.00  0.00    -0.116 NA
ATOM     36  H14 B54 d   1     -75.317  81.281  89.957  0.00  0.00     0.206 HD
BRANCH  27  37
ATOM     37  N9  B54 d   1     -77.952  85.736  93.060  0.00  0.00    -0.118 NA
ATOM     38  O24 B54 d   1     -77.374  86.223  94.015  0.00  0.00    -0.066 OA
ENDBRANCH  27  37
ENDBRANCH  24  26
ENDBRANCH  21  24
ENDBRANCH   1  21
TORSDOF 8
