REMARK  3 active torsions:
REMARK  status: ('A' for Active; 'I' for Inactive)
REMARK    1  A    between atoms: C5_4  and  N6_5 
REMARK    2  A    between atoms: N1_9  and  C2_10 
REMARK    3  A    between atoms: C12_13  and  C13_14 
ROOT
ATOM      1  O9  B56 d   1     -80.142  85.873  91.138  0.00  0.00    -0.265 OA
ATOM      2  C8  B56 d   1     -79.209  85.103  91.465  0.00  0.00     0.292 A 
ATOM      3  N7  B56 d   1     -78.978  83.990  90.734  0.00  0.00    -0.154 N 
ATOM      4  C5  B56 d   1     -77.977  83.134  91.056  0.00  0.00     0.680 A 
ATOM      5  N4  B56 d   1     -77.183  83.370  92.129  0.00  0.00    -0.174 N 
ATOM      6  C10 B56 d   1     -78.401  85.363  92.573  0.00  0.00     0.170 A 
ATOM      7  C3  B56 d   1     -77.373  84.473  92.901  0.00  0.00     0.157 A 
ATOM      8  N1  B56 d   1     -76.589  84.720  93.970  0.00  0.00    -0.343 N 
ATOM      9  C16 B56 d   1     -76.783  85.808  94.727  0.00  0.00     0.015 A 
ATOM     10  N11 B56 d   1     -78.600  86.462  93.334  0.00  0.00    -0.231 NA
ATOM     11  C12 B56 d   1     -77.808  86.700  94.406  0.00  0.00     0.149 A 
ATOM     12  H1  B56 d   1     -79.556  83.794  89.942  0.00  0.00     0.187 HD
ATOM     13  H4  B56 d   1     -76.429  82.708  92.362  0.00  0.00     0.186 HD
ATOM     14  H8  B56 d   1     -76.147  85.995  95.585  0.00  0.00     0.115 H 
ENDROOT
BRANCH   8  15
ATOM     15  C2  B56 d   1     -75.512  83.805  94.332  0.00  0.00    -0.013 C 
ATOM     16  H5  B56 d   1     -74.995  84.183  95.227  0.00  0.00     0.057 H 
ATOM     17  H6  B56 d   1     -74.797  83.732  93.499  0.00  0.00     0.057 H 
ATOM     18  H7  B56 d   1     -75.931  82.810  94.544  0.00  0.00     0.057 H 
ENDBRANCH   8  15
BRANCH  11  19
ATOM     19  C13 B56 d   1     -78.034  87.925  95.244  0.00  0.00     0.230 C 
ATOM     20  O15 B56 d   1     -78.957  88.711  94.937  0.00  0.00    -0.643 OA
ATOM     21  O14 B56 d   1     -77.293  88.140  96.229  0.00  0.00    -0.643 OA
ENDBRANCH  11  19
BRANCH   4  22
ATOM     22  N6  B56 d   1     -77.782  82.034  90.293  0.00  0.00    -0.234 N 
ATOM     23  H2  B56 d   1     -77.026  81.374  90.525  0.00  0.00     0.174 HD
ATOM     24  H3  B56 d   1     -78.390  81.856  89.481  0.00  0.00     0.174 HD
ENDBRANCH   4  22
TORSDOF 3
