REMARK  3 active torsions:
REMARK  status: ('A' for Active; 'I' for Inactive)
REMARK    1  A    between atoms: C6_3  and  N8_4 
REMARK    2  A    between atoms: C3_8  and  N11_9 
REMARK    3  A    between atoms: C5_11  and  N12_12 
ROOT
ATOM      1  O7  B57 d   1     -79.720  85.649  91.127  0.00  0.00    -0.270 OA
ATOM      2  C1  B57 d   1     -78.746  84.885  91.289  0.00  0.00     0.272 A 
ATOM      3  C6  B57 d   1     -77.770  85.042  92.405  0.00  0.00     0.205 A 
ATOM      4  N2  B57 d   1     -78.586  83.854  90.430  0.00  0.00    -0.156 N 
ATOM      5  C3  B57 d   1     -77.561  82.968  90.543  0.00  0.00     0.701 A 
ATOM      6  N4  B57 d   1     -76.636  83.044  91.540  0.00  0.00    -0.177 N 
ATOM      7  C5  B57 d   1     -76.678  84.024  92.476  0.00  0.00     0.130 A 
ATOM      8  H1  B57 d   1     -77.144  85.692  91.776  0.00  0.00     0.110 H 
ATOM      9  H2  B57 d   1     -79.244  83.739  89.686  0.00  0.00     0.187 HD
ATOM     10  H4  B57 d   1     -75.886  82.339  91.584  0.00  0.00     0.185 HD
ENDROOT
BRANCH   3  11
ATOM     11  N8  B57 d   1     -77.857  86.047  93.334  0.00  0.00    -0.133 N 
ATOM     12  O10 B57 d   1     -77.019  86.135  94.228  0.00  0.00    -0.535 OA
ATOM     13  O9  B57 d   1     -78.762  86.877  93.309  0.00  0.00    -0.535 OA
ENDBRANCH   3  11
BRANCH   7  14
ATOM     14  N12 B57 d   1     -75.722  84.073  93.439  0.00  0.00    -0.386 N 
ATOM     15  H5  B57 d   1     -74.980  83.359  93.465  0.00  0.00     0.157 HD
ATOM     16  H6  B57 d   1     -75.738  84.825  94.143  0.00  0.00     0.157 HD
ENDBRANCH   7  14
BRANCH   5  17
ATOM     17  N11 B57 d   1     -77.469  81.968  89.634  0.00  0.00    -0.117 NA
ATOM     18  H3  B57 d   1     -76.718  81.298  89.696  0.00  0.00     0.206 HD
ENDBRANCH   5  17
TORSDOF 3
