REMARK  2 active torsions:
REMARK  status: ('A' for Active; 'I' for Inactive)
REMARK    1  A    between atoms: N10_1  and  C6_2 
REMARK    2  A    between atoms: C3_10  and  N11_11 
ROOT
ATOM      1  C6  B58 d   1     -77.321  83.142  92.009  0.00  0.00     0.173 A 
ATOM      2  N1  B58 d   1     -76.337  83.105  92.947  0.00  0.00    -0.128 NA
ATOM      3  N2  B58 d   1     -76.167  84.111  93.943  0.00  0.00    -0.128 NA
ATOM      4  C5  B58 d   1     -78.259  84.286  91.979  0.00  0.00     0.114 A 
ATOM      5  N7  B58 d   1     -79.329  84.650  91.226  0.00  0.00    -0.346 N 
ATOM      6  C8  B58 d   1     -79.847  85.801  91.726  0.00  0.00     0.065 A 
ATOM      7  N9  B58 d   1     -79.112  86.208  92.799  0.00  0.00    -0.238 NA
ATOM      8  C4  B58 d   1     -78.115  85.321  93.010  0.00  0.00     0.135 A 
ATOM      9  C3  B58 d   1     -77.021  85.170  94.020  0.00  0.00     0.175 A 
ATOM     10  H3  B58 d   1     -79.689  84.136  90.409  0.00  0.00     0.167 HD
ATOM     11  H4  B58 d   1     -80.718  86.320  91.330  0.00  0.00     0.143 H 
ENDROOT
BRANCH   1  12
ATOM     12  N10 B58 d   1     -77.452  82.178  91.070  0.00  0.00    -0.381 N 
ATOM     13  H1  B58 d   1     -78.209  82.237  90.374  0.00  0.00     0.157 HD
ATOM     14  H2  B58 d   1     -76.795  81.385  91.051  0.00  0.00     0.157 HD
ENDBRANCH   1  12
BRANCH   9  15
ATOM     15  N11 B58 d   1     -76.904  86.119  94.973  0.00  0.00    -0.381 N 
ATOM     16  H5  B58 d   1     -77.568  86.906  95.001  0.00  0.00     0.157 HD
ATOM     17  H6  B58 d   1     -76.151  86.056  95.673  0.00  0.00     0.157 HD
ENDBRANCH   9  15
TORSDOF 2
