REMARK  2 active torsions:
REMARK  status: ('A' for Active; 'I' for Inactive)
REMARK    1  A    between atoms: C5_6  and  N8_7 
REMARK    2  A    between atoms: N12_12  and  C13_13 
ROOT
ATOM      1  O2  B60 d   1     -81.676  87.365  91.805  0.00  0.00    -0.265 OA
ATOM      2  C1  B60 d   1     -80.710  86.619  92.050  0.00  0.00     0.292 A 
ATOM      3  C4  B60 d   1     -79.852  86.902  93.229  0.00  0.00     0.169 A 
ATOM      4  C7  B60 d   1     -78.735  85.965  93.448  0.00  0.00     0.153 A 
ATOM      5  N6  B60 d   1     -78.541  84.938  92.569  0.00  0.00    -0.174 N 
ATOM      6  C5  B60 d   1     -79.364  84.757  91.496  0.00  0.00     0.680 A 
ATOM      7  N3  B60 d   1     -80.441  85.552  91.266  0.00  0.00    -0.154 N 
ATOM      8  N9  B60 d   1     -80.073  87.934  94.098  0.00  0.00    -0.254 NA
ATOM      9  C10 B60 d   1     -79.242  88.164  95.148  0.00  0.00    -0.000 A 
ATOM     10  C11 B60 d   1     -78.085  87.322  95.466  0.00  0.00     0.026 A 
ATOM     11  N12 B60 d   1     -77.870  86.190  94.537  0.00  0.00    -0.364 N 
ATOM     12  H1  B60 d   1     -77.757  84.287  92.719  0.00  0.00     0.186 HD
ATOM     13  H4  B60 d   1     -81.048  85.343  90.499  0.00  0.00     0.187 HD
ATOM     14  H5  B60 d   1     -79.447  89.021  95.788  0.00  0.00     0.110 H 
ATOM     15  H6  B60 d   1     -78.226  86.913  96.477  0.00  0.00     0.072 H 
ATOM     16  H7  B60 d   1     -77.186  87.955  95.449  0.00  0.00     0.072 H 
ENDROOT
BRANCH  11  17
ATOM     17  C13 B60 d   1     -76.753  85.263  94.711  0.00  0.00    -0.017 C 
ATOM     18  H8  B60 d   1     -76.780  84.503  93.916  0.00  0.00     0.056 H 
ATOM     19  H9  B60 d   1     -76.834  84.771  95.692  0.00  0.00     0.056 H 
ATOM     20  H10 B60 d   1     -75.805  85.817  94.656  0.00  0.00     0.056 H 
ENDBRANCH  11  17
BRANCH   6  21
ATOM     21  N8  B60 d   1     -79.120  83.703  90.671  0.00  0.00    -0.234 N 
ATOM     22  H2  B60 d   1     -79.723  83.539  89.852  0.00  0.00     0.174 HD
ATOM     23  H3  B60 d   1     -78.332  83.069  90.865  0.00  0.00     0.174 HD
ENDBRANCH   6  21
TORSDOF 2
