REMARK  7 active torsions:
REMARK  status: ('A' for Active; 'I' for Inactive)
REMARK    1  A    between atoms: C5_6  and  N8_7 
REMARK    2  A    between atoms: C10_10  and  C17_11 
REMARK    3  A    between atoms: C17_11  and  C23_12 
REMARK    4  A    between atoms: C23_12  and  O24_13 
REMARK    5  A    between atoms: C23_12  and  C25_14 
REMARK    6  A    between atoms: C23_12  and  C26_15 
REMARK    7  A    between atoms: N12_17  and  C13_18 
ROOT
ATOM      1  O2  B61 d   1     -81.483  87.192  90.878  0.00  0.00    -0.265 OA
ATOM      2  C1  B61 d   1     -80.516  86.517  91.241  0.00  0.00     0.292 A 
ATOM      3  C4  B61 d   1     -79.711  86.873  92.442  0.00  0.00     0.166 A 
ATOM      4  C7  B61 d   1     -78.554  85.975  92.720  0.00  0.00     0.178 A 
ATOM      5  N6  B61 d   1     -78.321  84.904  91.907  0.00  0.00    -0.045 NA
ATOM      6  C5  B61 d   1     -79.100  84.664  90.816  0.00  0.00     0.703 A 
ATOM      7  N3  B61 d   1     -80.165  85.431  90.530  0.00  0.00    -0.152 N 
ATOM      8  N9  B61 d   1     -79.977  87.941  93.255  0.00  0.00    -0.274 NA
ATOM      9  C10 B61 d   1     -79.197  88.216  94.353  0.00  0.00     0.051 A 
ATOM     10  C11 B61 d   1     -77.975  87.392  94.748  0.00  0.00     0.017 A 
ATOM     11  N12 B61 d   1     -77.738  86.233  93.833  0.00  0.00    -0.366 N 
ATOM     12  H3  B61 d   1     -80.729  85.180  89.743  0.00  0.00     0.187 HD
ATOM     13  H4  B61 d   1     -79.827  87.579  94.991  0.00  0.00     0.078 H 
ATOM     14  H14 B61 d   1     -78.124  87.010  95.769  0.00  0.00     0.067 H 
ATOM     15  H15 B61 d   1     -77.089  88.044  94.726  0.00  0.00     0.067 H 
ENDROOT
BRANCH   9  16
ATOM     16  C17 B61 d   1     -79.612  89.469  95.120  0.00  0.00    -0.015 C 
ATOM     17  H5  B61 d   1     -80.358  89.985  94.498  0.00  0.00     0.040 H 
ATOM     18  H6  B61 d   1     -78.712  90.095  95.209  0.00  0.00     0.040 H 
BRANCH  16  19
ATOM     19  C23 B61 d   1     -80.214  89.362  96.530  0.00  0.00     0.052 C 
BRANCH  19  20
ATOM     20  O24 B61 d   1     -80.931  88.048  96.755  0.00  0.00    -0.391 OA
ATOM     21  H7  B61 d   1     -81.638  87.963  96.127  0.00  0.00     0.210 HD
ENDBRANCH  19  20
BRANCH  19  22
ATOM     22  C25 B61 d   1     -79.017  89.673  97.461  0.00  0.00    -0.048 C 
ATOM     23  H8  B61 d   1     -79.345  89.622  98.510  0.00  0.00     0.031 H 
ATOM     24  H9  B61 d   1     -78.637  90.682  97.245  0.00  0.00     0.031 H 
ATOM     25  H10 B61 d   1     -78.219  88.936  97.290  0.00  0.00     0.031 H 
ENDBRANCH  19  22
BRANCH  19  26
ATOM     26  C26 B61 d   1     -81.194  90.563  96.777  0.00  0.00    -0.048 C 
ATOM     27  H11 B61 d   1     -81.623  90.484  97.787  0.00  0.00     0.031 H 
ATOM     28  H12 B61 d   1     -82.002  90.536  96.032  0.00  0.00     0.031 H 
ATOM     29  H13 B61 d   1     -80.643  91.511  96.686  0.00  0.00     0.031 H 
ENDBRANCH  19  26
ENDBRANCH  16  19
ENDBRANCH   9  16
BRANCH  11  30
ATOM     30  C13 B61 d   1     -76.634  85.274  94.006  0.00  0.00    -0.017 C 
ATOM     31  H16 B61 d   1     -76.676  84.518  93.208  0.00  0.00     0.056 H 
ATOM     32  H17 B61 d   1     -76.728  84.780  94.984  0.00  0.00     0.056 H 
ATOM     33  H18 B61 d   1     -75.673  85.808  93.955  0.00  0.00     0.056 H 
ENDBRANCH  11  30
BRANCH   6  34
ATOM     34  N8  B61 d   1     -78.847  83.630  89.985  0.00  0.00    -0.233 N 
ATOM     35  H1  B61 d   1     -78.042  83.013  90.162  0.00  0.00     0.174 HD
ATOM     36  H2  B61 d   1     -79.459  83.459  89.175  0.00  0.00     0.174 HD
ENDBRANCH   6  34
TORSDOF 7
