REMARK  2 active torsions:
REMARK  status: ('A' for Active; 'I' for Inactive)
REMARK    1  A    between atoms: C8_6  and  C11_7 
REMARK    2  A    between atoms: C3_12  and  N13_13 
ROOT
ATOM      1  O12 B62 d   1     -80.469  86.280  91.288  0.00  0.00    -0.265 OA
ATOM      2  C1  B62 d   1     -79.535  85.519  91.484  0.00  0.00     0.292 A 
ATOM      3  N2  B62 d   1     -79.345  84.424  90.742  0.00  0.00    -0.151 N 
ATOM      4  C6  B62 d   1     -78.656  85.777  92.630  0.00  0.00     0.166 A 
ATOM      5  N7  B62 d   1     -78.868  86.850  93.429  0.00  0.00    -0.274 NA
ATOM      6  C8  B62 d   1     -78.165  86.919  94.704  0.00  0.00     0.045 C 
ATOM      7  C9  B62 d   1     -76.747  86.323  94.554  0.00  0.00     0.014 C 
ATOM      8  N10 B62 d   1     -76.716  84.990  93.923  0.00  0.00    -0.370 N 
ATOM      9  C5  B62 d   1     -77.572  84.770  92.889  0.00  0.00     0.177 A 
ATOM     10  N4  B62 d   1     -77.460  83.705  92.049  0.00  0.00    -0.043 NA
ATOM     11  C3  B62 d   1     -78.313  83.564  90.983  0.00  0.00     0.724 A 
ATOM     12  H1  B62 d   1     -79.975  84.230  89.990  0.00  0.00     0.188 HD
ATOM     13  H2  B62 d   1     -78.704  86.287  95.425  0.00  0.00     0.077 H 
ATOM     14  H6  B62 d   1     -76.299  86.241  95.555  0.00  0.00     0.067 H 
ATOM     15  H7  B62 d   1     -76.147  87.010  93.939  0.00  0.00     0.067 H 
ATOM     16  H8  B62 d   1     -76.073  84.256  94.252  0.00  0.00     0.161 HD
ENDROOT
BRANCH   6  17
ATOM     17  C11 B62 d   1     -78.211  88.353  95.241  0.00  0.00    -0.054 C 
ATOM     18  H3  B62 d   1     -77.680  88.401  96.203  0.00  0.00     0.030 H 
ATOM     19  H4  B62 d   1     -79.258  88.657  95.385  0.00  0.00     0.030 H 
ATOM     20  H5  B62 d   1     -77.728  89.030  94.521  0.00  0.00     0.030 H 
ENDBRANCH   6  17
BRANCH  11  21
ATOM     21  N13 B62 d   1     -78.179  82.488  90.158  0.00  0.00    -0.116 NA
ATOM     22  H9  B62 d   1     -77.429  81.831  90.305  0.00  0.00     0.206 HD
ENDBRANCH  11  21
TORSDOF 2
