REMARK  5 active torsions:
REMARK  status: ('A' for Active; 'I' for Inactive)
REMARK    1  A    between atoms: C15_2  and  C12_4 
REMARK    2  A    between atoms: C9_9  and  N6_10 
REMARK    3  A    between atoms: N6_10  and  C2_11 
REMARK    4  A    between atoms: C2_11  and  C1_12 
REMARK    5  A    between atoms: C1_12  and  C3_13 
ROOT
ATOM      1  C1  B63 d   1     -79.419  89.332  95.893  0.00  0.00    -0.009 C 
ATOM      2  H8  B63 d   1     -80.208  89.925  95.408  0.00  0.00     0.044 H 
ATOM      3  H9  B63 d   1     -79.794  88.932  96.847  0.00  0.00     0.044 H 
ENDROOT
BRANCH   1   4
ATOM      4  C2  B63 d   1     -78.200  90.192  96.136  0.00  0.00    -0.002 C 
ATOM      5  H6  B63 d   1     -78.137  90.411  97.212  0.00  0.00     0.064 H 
ATOM      6  H7  B63 d   1     -77.308  89.628  95.824  0.00  0.00     0.064 H 
BRANCH   4   7
ATOM      7  N6  B63 d   1     -78.225  91.452  95.411  0.00  0.00    -0.390 N 
ATOM      8  H5  B63 d   1     -77.405  91.742  94.859  0.00  0.00     0.159 HD
BRANCH   7   9
ATOM      9  C9  B63 d   1     -79.311  92.239  95.458  0.00  0.00     0.028 A 
ATOM     10  C10 B63 d   1     -80.086  92.364  96.617  0.00  0.00    -0.057 A 
ATOM     11  C11 B63 d   1     -81.190  93.208  96.626  0.00  0.00    -0.064 A 
ATOM     12  H2  B63 d   1     -79.825  91.803  97.507  0.00  0.00     0.086 H 
ATOM     13  C12 B63 d   1     -81.512  93.907  95.464  0.00  0.00     0.041 A 
ATOM     14  H1  B63 d   1     -81.790  93.321  97.521  0.00  0.00     0.085 H 
ATOM     15  C13 B63 d   1     -80.720  93.775  94.331  0.00  0.00    -0.064 A 
ATOM     16  C14 B63 d   1     -79.619  92.941  94.318  0.00  0.00    -0.057 A 
ATOM     17  H3  B63 d   1     -80.971  94.338  93.439  0.00  0.00     0.085 H 
ATOM     18  H4  B63 d   1     -79.010  92.842  93.426  0.00  0.00     0.086 H 
BRANCH  13  19
ATOM     19  C15 B63 d   1     -82.706  94.808  95.413  0.00  0.00     0.209 C 
ATOM     20  O3  B63 d   1     -82.976  95.426  94.341  0.00  0.00    -0.644 OA
ATOM     21  O2  B63 d   1     -83.411  94.874  96.443  0.00  0.00    -0.644 OA
ENDBRANCH  13  19
ENDBRANCH   7   9
ENDBRANCH   4   7
ENDBRANCH   1   4
BRANCH   1  22
ATOM     22  C3  B63 d   1     -79.002  88.222  95.007  0.00  0.00     0.054 A 
ATOM     23  C4  B63 d   1     -77.764  87.429  95.328  0.00  0.00     0.028 A 
ATOM     24  N2  B63 d   1     -77.500  86.365  94.342  0.00  0.00    -0.238 NA
ATOM     25  H10 B63 d   1     -77.135  87.619  96.190  0.00  0.00     0.118 H 
ATOM     26  C5  B63 d   1     -78.295  86.133  93.283  0.00  0.00     0.177 A 
ATOM     27  N5  B63 d   1     -78.018  85.160  92.379  0.00  0.00    -0.172 N 
ATOM     28  C6  B63 d   1     -79.511  86.997  93.055  0.00  0.00     0.172 A 
ATOM     29  C8  B63 d   1     -78.870  84.968  91.311  0.00  0.00     0.680 A 
ATOM     30  H11 B63 d   1     -77.180  84.571  92.489  0.00  0.00     0.186 HD
ATOM     31  N4  B63 d   1     -78.592  83.984  90.428  0.00  0.00    -0.234 N 
ATOM     32  N3  B63 d   1     -79.997  85.706  91.070  0.00  0.00    -0.154 N 
ATOM     33  H12 B63 d   1     -79.215  83.823  89.623  0.00  0.00     0.174 HD
ATOM     34  H13 B63 d   1     -77.757  83.395  90.559  0.00  0.00     0.174 HD
ATOM     35  C7  B63 d   1     -80.368  86.718  91.865  0.00  0.00     0.292 A 
ATOM     36  H14 B63 d   1     -80.561  85.483  90.275  0.00  0.00     0.187 HD
ATOM     37  O1  B63 d   1     -81.401  87.369  91.612  0.00  0.00    -0.265 OA
ATOM     38  N1  B63 d   1     -79.792  87.991  93.932  0.00  0.00    -0.242 NA
ENDBRANCH   1  22
TORSDOF 5
