REMARK  11 active torsions:
REMARK  status: ('A' for Active; 'I' for Inactive)
REMARK    1  A    between atoms: N7_22  and  C4_1 
REMARK    2  A    between atoms: C9_3  and  N7_22 
REMARK    3  A    between atoms: C15_6  and  C12_9 
REMARK    4  A    between atoms: C11_11  and  N8_12 
REMARK    5  A    between atoms: N8_12  and  C25_13 
REMARK    6  A    between atoms: C24_17  and  N26_18 
REMARK    7  A    between atoms: N26_18  and  C30_19 
REMARK    8  A    between atoms: N26_18  and  C29_20 
REMARK    9  A    between atoms: C1_26  and  S18_27 
REMARK   10  A    between atoms: S18_27  and  N17_30 
REMARK   11  A    between atoms: N17_30  and  C23_31 
ROOT
ATOM      1  C9  P1E d   1      14.698  -9.571   2.019  0.00  0.00     0.728 A 
ATOM      2  C13 P1E d   1      12.579  -8.715   2.497  0.00  0.00     0.039 A 
ATOM      3  C12 P1E d   1      12.805  -8.984   3.825  0.00  0.00     0.112 A 
ATOM      4  N14 P1E d   1      13.563  -9.020   1.643  0.00  0.00    -0.074 NA
ATOM      5  C11 P1E d   1      14.026  -9.552   4.219  0.00  0.00     0.159 A 
ATOM      6  N10 P1E d   1      14.934  -9.860   3.299  0.00  0.00    -0.044 NA
ATOM      7  H2  P1E d   1      11.648  -8.277   2.157  0.00  0.00     0.117 H 
ENDROOT
BRANCH   5   8
ATOM      8  N8  P1E d   1      14.292  -9.818   5.554  0.00  0.00    -0.367 N 
ATOM      9  H3  P1E d   1      13.585  -9.633   6.280  0.00  0.00     0.161 HD
BRANCH   8  10
ATOM     10  C25 P1E d   1      15.594 -10.365   5.903  0.00  0.00     0.038 C 
ATOM     11  C28 P1E d   1      15.563 -11.905   5.756  0.00  0.00    -0.044 C 
ATOM     12  C31 P1E d   1      15.766 -12.454   7.182  0.00  0.00    -0.061 C 
ATOM     13  H5  P1E d   1      16.372 -12.245   5.093  0.00  0.00     0.036 H 
ATOM     14  H6  P1E d   1      14.595 -12.234   5.351  0.00  0.00     0.036 H 
ATOM     15  C27 P1E d   1      16.397 -11.313   8.017  0.00  0.00    -0.036 C 
ATOM     16  H7  P1E d   1      16.439 -13.324   7.160  0.00  0.00     0.033 H 
ATOM     17  H8  P1E d   1      14.799 -12.749   7.615  0.00  0.00     0.033 H 
ATOM     18  C24 P1E d   1      15.971  -9.987   7.376  0.00  0.00     0.122 C 
ATOM     19  H9  P1E d   1      17.493 -11.401   8.006  0.00  0.00     0.036 H 
ATOM     20  H10 P1E d   1      16.036 -11.362   9.055  0.00  0.00     0.036 H 
ATOM     21  H11 P1E d   1      15.111  -9.544   7.899  0.00  0.00     0.087 H 
ATOM     22  H4  P1E d   1      16.352  -9.951   5.221  0.00  0.00     0.075 H 
BRANCH  18  23
ATOM     23  N26 P1E d   1      17.125  -9.063   7.420  0.00  0.00    -0.073 N 
ATOM     24  H12 P1E d   1      17.912  -9.487   6.954  0.00  0.00     0.279 HD
BRANCH  23  25
ATOM     25  C30 P1E d   1      17.481  -8.691   8.803  0.00  0.00     0.066 C 
ATOM     26  H13 P1E d   1      18.341  -8.005   8.788  0.00  0.00     0.068 H 
ATOM     27  H14 P1E d   1      17.743  -9.596   9.370  0.00  0.00     0.068 H 
ATOM     28  H15 P1E d   1      16.624  -8.194   9.281  0.00  0.00     0.068 H 
ENDBRANCH  23  25
BRANCH  23  29
ATOM     29  C29 P1E d   1      16.765  -7.788   6.790  0.00  0.00     0.066 C 
ATOM     30  H16 P1E d   1      16.481  -7.964   5.742  0.00  0.00     0.068 H 
ATOM     31  H17 P1E d   1      17.626  -7.105   6.826  0.00  0.00     0.068 H 
ATOM     32  H18 P1E d   1      15.918  -7.339   7.329  0.00  0.00     0.068 H 
ENDBRANCH  23  29
ENDBRANCH  18  23
ENDBRANCH   8  10
ENDBRANCH   5   8
BRANCH   3  33
ATOM     33  C15 P1E d   1      11.748  -8.646   4.847  0.00  0.00     0.422 C 
ATOM     34  F22 P1E d   1      12.201  -7.726   5.762  0.00  0.00    -0.166 F 
ATOM     35  F16 P1E d   1      10.725  -7.974   4.209  0.00  0.00    -0.166 F 
ATOM     36  F21 P1E d   1      11.318  -9.818   5.478  0.00  0.00    -0.166 F 
ENDBRANCH   3  33
BRANCH   1  37
ATOM     37  N7  P1E d   1      15.611  -9.833   1.028  0.00  0.00    -0.188 N 
ATOM     38  H19 P1E d   1      15.285  -9.653   0.068  0.00  0.00     0.184 HD
BRANCH  37  39
ATOM     39  C4  P1E d   1      16.911 -10.306   1.138  0.00  0.00     0.049 A 
ATOM     40  C5  P1E d   1      17.589 -10.344   2.374  0.00  0.00    -0.055 A 
ATOM     41  C6  P1E d   1      18.895 -10.786   2.429  0.00  0.00    -0.058 A 
ATOM     42  H20 P1E d   1      17.085 -10.026   3.280  0.00  0.00     0.087 H 
ATOM     43  C1  P1E d   1      19.557 -11.197   1.257  0.00  0.00     0.079 A 
ATOM     44  H1  P1E d   1      19.414 -10.817   3.380  0.00  0.00     0.086 H 
ATOM     45  C2  P1E d   1      18.874 -11.150   0.034  0.00  0.00    -0.058 A 
ATOM     46  C3  P1E d   1      17.560 -10.695  -0.050  0.00  0.00    -0.055 A 
ATOM     47  H22 P1E d   1      19.380 -11.475  -0.868  0.00  0.00     0.086 H 
ATOM     48  H21 P1E d   1      17.050 -10.642  -1.005  0.00  0.00     0.087 H 
BRANCH  43  49
ATOM     49  S18 P1E d   1      21.271 -11.765   1.398  0.00  0.00     0.258 S 
ATOM     50  O19 P1E d   1      21.263 -13.055   2.040  0.00  0.00    -0.201 OA
ATOM     51  O20 P1E d   1      21.929 -11.469   0.176  0.00  0.00    -0.201 OA
BRANCH  49  52
ATOM     52  N17 P1E d   1      21.856 -10.682   2.520  0.00  0.00    -0.320 N 
ATOM     53  H23 P1E d   1      22.114 -11.042   3.416  0.00  0.00     0.171 HD
BRANCH  52  54
ATOM     54  C23 P1E d   1      22.024  -9.228   2.296  0.00  0.00    -0.011 C 
ATOM     55  H24 P1E d   1      22.428  -8.761   3.206  0.00  0.00     0.057 H 
ATOM     56  H25 P1E d   1      21.049  -8.779   2.056  0.00  0.00     0.057 H 
ATOM     57  H26 P1E d   1      22.719  -9.064   1.460  0.00  0.00     0.057 H 
ENDBRANCH  52  54
ENDBRANCH  49  52
ENDBRANCH  43  49
ENDBRANCH  37  39
ENDBRANCH   1  37
TORSDOF 11
