REMARK WARNING: 32 MAX_TORS EXCEEDED!!!
REMARK  69 active torsions:
REMARK  status: ('A' for Active; 'I' for Inactive)
REMARK    1  A    between atoms: N_1  and  CA_2 
REMARK    2  A    between atoms: CA_2  and  C_3 
REMARK    3  A    between atoms: CA_2  and  CB_5 
REMARK       I    between atoms: C_3  and  N_6 
REMARK    4  A    between atoms: N_6  and  CA_7 
REMARK    5  A    between atoms: CA_7  and  C_8 
REMARK    6  A    between atoms: CA_7  and  CB_10 
REMARK       I    between atoms: C_8  and  N_11 
REMARK    7  A    between atoms: N_11  and  CA_12 
REMARK    8  A    between atoms: CA_12  and  C_13 
REMARK       I    between atoms: C_13  and  N_15 
REMARK    9  A    between atoms: N_15  and  CA_16 
REMARK   10  A    between atoms: CA_16  and  C_17 
REMARK   11  A    between atoms: CA_16  and  CB_19 
REMARK       I    between atoms: C_17  and  N_23 
REMARK   12  A    between atoms: CB_19  and  CG_20 
REMARK   13  A    between atoms: CG_20  and  CD1_21 
REMARK   14  A    between atoms: CG_20  and  CD2_22 
REMARK   15  A    between atoms: N_23  and  CA_24 
REMARK   16  A    between atoms: CA_24  and  C_25 
REMARK   17  A    between atoms: CA_24  and  CB_27 
REMARK       I    between atoms: C_25  and  N_32 
REMARK   18  A    between atoms: CB_27  and  CG_28 
REMARK   19  A    between atoms: CG_28  and  CD_29 
REMARK   20  A    between atoms: N_32  and  CA_33 
REMARK   21  A    between atoms: CA_33  and  C_34 
REMARK   22  A    between atoms: CA_33  and  CB_36 
REMARK       I    between atoms: C_34  and  N_40 
REMARK   23  A    between atoms: CB_36  and  CG_37 
REMARK   24  A    between atoms: N_40  and  CA_41 
REMARK   25  A    between atoms: CA_41  and  C_42 
REMARK   26  A    between atoms: CA_41  and  CB_44 
REMARK       I    between atoms: C_42  and  N_48 
REMARK   27  A    between atoms: CB_44  and  CG1_45 
REMARK   28  A    between atoms: CB_44  and  CG2_46 
REMARK   29  A    between atoms: CG1_45  and  CD1_47 
REMARK   30  A    between atoms: N_48  and  CA_49 
REMARK   31  A    between atoms: CA_49  and  C_50 
REMARK   32  A    between atoms: CA_49  and  CB_52 
REMARK       I    between atoms: C_50  and  N_56 
REMARK   33  A    between atoms: CB_52  and  CG1_53 
REMARK   34  A    between atoms: CB_52  and  CG2_54 
REMARK   35  A    between atoms: CG1_53  and  CD1_55 
REMARK   36  A    between atoms: N_56  and  CA_57 
REMARK   37  A    between atoms: CA_57  and  C_58 
REMARK   38  A    between atoms: CA_57  and  CB_60 
REMARK       I    between atoms: C_58  and  N_67 
REMARK   39  A    between atoms: CB_60  and  CG_61 
REMARK   40  A    between atoms: CG_61  and  CD_62 
REMARK   41  A    between atoms: CD_62  and  NE_63 
REMARK       I    between atoms: NE_63  and  CZ_64 
REMARK       I    between atoms: CZ_64  and  NH1_65 
REMARK   42  A    between atoms: N_67  and  CA_68 
REMARK   43  A    between atoms: CA_68  and  C_69 
REMARK   44  A    between atoms: CA_68  and  CB_71 
REMARK       I    between atoms: C_69  and  N_76 
REMARK   45  A    between atoms: CB_71  and  CG_72 
REMARK   46  A    between atoms: CG_72  and  CD_73 
REMARK   47  A    between atoms: CD_73  and  CE_74 
REMARK   48  A    between atoms: CE_74  and  NZ_75 
REMARK   49  A    between atoms: N_76  and  CA_77 
REMARK   50  A    between atoms: CA_77  and  C_78 
REMARK   51  A    between atoms: CA_77  and  CB_80 
REMARK       I    between atoms: C_78  and  N_81 
REMARK   52  A    between atoms: N_81  and  CA_82 
REMARK   53  A    between atoms: CA_82  and  C_83 
REMARK   54  A    between atoms: CA_82  and  CB_85 
REMARK       I    between atoms: C_83  and  N_89 
REMARK   55  A    between atoms: CB_85  and  CG_86 
REMARK   56  A    between atoms: CG_86  and  CD1_87 
REMARK   57  A    between atoms: CG_86  and  CD2_88 
REMARK   58  A    between atoms: N_89  and  CA_90 
REMARK   59  A    between atoms: CA_90  and  C_91 
REMARK   60  A    between atoms: CA_90  and  CB_93 
REMARK       I    between atoms: C_91  and  N_97 
REMARK   61  A    between atoms: CB_93  and  CG_94 
REMARK   62  A    between atoms: CG_94  and  SD_95 
REMARK   63  A    between atoms: SD_95  and  CE_96 
REMARK   64  A    between atoms: N_97  and  CA_98 
REMARK   65  A    between atoms: CA_98  and  C_99 
REMARK       I    between atoms: C_99  and  N_101 
REMARK   66  A    between atoms: N_101  and  CA_102 
REMARK   67  A    between atoms: CA_102  and  C_103 
REMARK   68  A    between atoms: CA_102  and  CB_105 
REMARK   69  A    between atoms: CB_105  and  OG_106 
ROOT
ATOM      1  C   ILE d   1     -35.060  23.646 -34.063  0.00  0.00     0.241 C 
ATOM      2  O   ILE d   1     -35.369  24.002 -32.923  0.00  0.00    -0.271 OA
ATOM      3  N   ARG d   1     -33.979  24.098 -34.698  0.00  0.00    -0.346 N 
ATOM      4  H59 ARG d   1     -33.788  23.768 -35.622  0.00  0.00     0.163 HD
ENDROOT
BRANCH   1   5
ATOM      5  CA  ILE d   1     -35.943  22.653 -34.824  0.00  0.00     0.092 C 
ATOM      6  H49 ILE d   1     -36.909  22.576 -34.303  0.00  0.00     0.088 H 
BRANCH   5   7
ATOM      7  N   ILE d   1     -36.190  23.144 -36.173  0.00  0.00    -0.346 N 
ATOM      8  C   ILE d   1     -36.751  24.328 -36.399  0.00  0.00     0.241 C 
ATOM      9  O   ILE d   1     -37.134  25.077 -35.495  0.00  0.00    -0.271 OA
ATOM     10  H48 ILE d   1     -35.930  22.574 -36.952  0.00  0.00     0.163 HD
BRANCH   8  11
ATOM     11  CA  ILE d   1     -36.899  24.730 -37.874  0.00  0.00     0.092 C 
ATOM     12  H38 ILE d   1     -37.146  25.801 -37.923  0.00  0.00     0.088 H 
BRANCH  11  13
ATOM     13  N   ILE d   1     -35.640  24.520 -38.609  0.00  0.00    -0.346 N 
ATOM     14  C   ASP d   1     -34.518  25.158 -38.284  0.00  0.00     0.241 C 
ATOM     15  O   ASP d   1     -34.477  25.997 -37.392  0.00  0.00    -0.271 OA
ATOM     16  H37 ILE d   1     -35.628  23.878 -39.376  0.00  0.00     0.163 HD
BRANCH  14  17
ATOM     17  CA  ASP d   1     -33.246  24.790 -39.073  0.00  0.00     0.098 C 
ATOM     18  H34 ASP d   1     -32.374  25.135 -38.498  0.00  0.00     0.088 H 
BRANCH  17  19
ATOM     19  N   ASP d   1     -33.138  23.344 -39.246  0.00  0.00    -0.346 N 
ATOM     20  C   GLU d   1     -32.880  22.533 -38.221  0.00  0.00     0.241 C 
ATOM     21  O   GLU d   1     -32.588  22.945 -37.097  0.00  0.00    -0.271 OA
ATOM     22  H33 ASP d   1     -33.261  22.952 -40.158  0.00  0.00     0.163 HD
BRANCH  20  23
ATOM     23  CA  GLU d   1     -32.963  21.026 -38.498  0.00  0.00     0.090 C 
ATOM     24  H28 GLU d   1     -33.437  20.553 -37.625  0.00  0.00     0.087 H 
BRANCH  23  25
ATOM     25  N   GLU d   1     -33.818  20.756 -39.663  0.00  0.00    -0.346 N 
ATOM     26  C   LEU d   1     -35.098  21.128 -39.689  0.00  0.00     0.241 C 
ATOM     27  O   LEU d   1     -35.626  21.782 -38.793  0.00  0.00    -0.271 OA
ATOM     28  H27 GLU d   1     -33.431  20.282 -40.454  0.00  0.00     0.163 HD
BRANCH  26  29
ATOM     29  CA  LEU d   1     -35.895  20.742 -40.926  0.00  0.00     0.089 C 
ATOM     30  H17 LEU d   1     -36.910  21.158 -40.841  0.00  0.00     0.087 H 
BRANCH  29  31
ATOM     31  N   LEU d   1     -35.253  21.308 -42.106  0.00  0.00    -0.346 N 
ATOM     32  C   GLY d   1     -35.017  22.611 -42.189  0.00  0.00     0.236 C 
ATOM     33  O   GLY d   1     -35.343  23.399 -41.305  0.00  0.00    -0.272 OA
ATOM     34  H16 LEU d   1     -34.988  20.708 -42.861  0.00  0.00     0.163 HD
BRANCH  32  35
ATOM     35  CA  GLY d   1     -34.326  23.103 -43.444  0.00  0.00     0.069 C 
ATOM     36  H14 GLY d   1     -33.257  22.848 -43.390  0.00  0.00     0.078 H 
ATOM     37  H15 GLY d   1     -34.776  22.611 -44.319  0.00  0.00     0.078 H 
BRANCH  35  38
ATOM     38  N   GLY d   1     -34.465  24.550 -43.585  0.00  0.00    -0.351 N 
ATOM     39  C   LEU d   1     -35.657  25.135 -43.710  0.00  0.00     0.240 C 
ATOM     40  O   LEU d   1     -36.720  24.500 -43.772  0.00  0.00    -0.271 OA
ATOM     41  H13 GLY d   1     -33.642  25.119 -43.588  0.00  0.00     0.163 HD
BRANCH  39  42
ATOM     42  CA  LEU d   1     -35.650  26.668 -43.769  0.00  0.00     0.086 C 
ATOM     43  H9  LEU d   1     -34.615  27.010 -43.622  0.00  0.00     0.086 H 
BRANCH  42  44
ATOM     44  N   LEU d   1     -36.108  27.164 -45.077  0.00  0.00    -0.346 N 
ATOM     45  C   ASN d   1     -35.693  28.334 -45.565  0.00  0.00     0.248 C 
ATOM     46  O   ASN d   1     -34.936  29.080 -44.936  0.00  0.00    -0.271 OA
ATOM     47  H8  LEU d   1     -36.746  26.610 -45.613  0.00  0.00     0.163 HD
BRANCH  45  48
ATOM     48  CA  ASN d   1     -36.194  28.746 -46.963  0.00  0.00     0.172 C 
ATOM     49  H4  ASN d   1     -35.307  28.994 -47.565  0.00  0.00     0.098 H 
BRANCH  48  50
ATOM     50  N   ASN d   1     -36.932  27.671 -47.690  0.00  0.00    -0.067 N 
ATOM     51  H1  ASN d   1     -37.226  28.015 -48.591  0.00  0.00     0.275 HD
ATOM     52  H2  ASN d   1     -37.741  27.398 -47.155  0.00  0.00     0.275 HD
ATOM     53  H3  ASN d   1     -36.328  26.874 -47.816  0.00  0.00     0.275 HD
ENDBRANCH  48  50
BRANCH  48  54
ATOM     54  CB  ASN d   1     -37.062  30.005 -46.860  0.00  0.00    -0.042 C 
ATOM     55  H5  ASN d   1     -36.508  30.789 -46.323  0.00  0.00     0.030 H 
ATOM     56  H6  ASN d   1     -37.987  29.769 -46.313  0.00  0.00     0.030 H 
ATOM     57  H7  ASN d   1     -37.314  30.360 -47.870  0.00  0.00     0.030 H 
ENDBRANCH  48  54
ENDBRANCH  45  48
ENDBRANCH  42  44
BRANCH  42  58
ATOM     58  CB  LEU d   1     -36.510  27.241 -42.633  0.00  0.00    -0.049 C 
ATOM     59  H10 LEU d   1     -36.148  26.856 -41.669  0.00  0.00     0.030 H 
ATOM     60  H11 LEU d   1     -37.558  26.939 -42.778  0.00  0.00     0.030 H 
ATOM     61  H12 LEU d   1     -36.441  28.339 -42.639  0.00  0.00     0.030 H 
ENDBRANCH  42  58
ENDBRANCH  39  42
ENDBRANCH  35  38
ENDBRANCH  32  35
ENDBRANCH  29  31
BRANCH  29  62
ATOM     62  CB  LEU d   1     -36.000  19.220 -41.033  0.00  0.00    -0.035 C 
ATOM     63  H18 LEU d   1     -34.986  18.808 -40.920  0.00  0.00     0.037 H 
ATOM     64  H19 LEU d   1     -36.382  18.983 -42.037  0.00  0.00     0.037 H 
BRANCH  62  65
ATOM     65  CG  LEU d   1     -36.902  18.516 -40.016  0.00  0.00    -0.059 C 
ATOM     66  H20 LEU d   1     -37.950  18.707 -40.291  0.00  0.00     0.038 H 
BRANCH  65  67
ATOM     67  CD1 LEU d   1     -36.650  17.024 -40.066  0.00  0.00    -0.073 C 
ATOM     68  H21 LEU d   1     -37.298  16.518 -39.335  0.00  0.00     0.028 H 
ATOM     69  H22 LEU d   1     -35.596  16.822 -39.823  0.00  0.00     0.028 H 
ATOM     70  H23 LEU d   1     -36.873  16.648 -41.075  0.00  0.00     0.028 H 
ENDBRANCH  65  67
BRANCH  65  71
ATOM     71  CD2 LEU d   1     -36.681  19.028 -38.615  0.00  0.00    -0.073 C 
ATOM     72  H24 LEU d   1     -36.866  20.112 -38.587  0.00  0.00     0.028 H 
ATOM     73  H25 LEU d   1     -35.644  18.825 -38.310  0.00  0.00     0.028 H 
ATOM     74  H26 LEU d   1     -37.372  18.520 -37.926  0.00  0.00     0.028 H 
ENDBRANCH  65  71
ENDBRANCH  62  65
ENDBRANCH  29  62
ENDBRANCH  26  29
ENDBRANCH  23  25
BRANCH  23  75
ATOM     75  CB  GLU d   1     -31.557  20.405 -38.651  0.00  0.00    -0.029 C 
ATOM     76  H29 GLU d   1     -31.636  19.550 -39.339  0.00  0.00     0.037 H 
ATOM     77  H30 GLU d   1     -31.233  20.051 -37.661  0.00  0.00     0.037 H 
BRANCH  75  78
ATOM     78  CG  GLU d   1     -30.481  21.346 -39.191  0.00  0.00     0.018 C 
ATOM     79  H31 GLU d   1     -30.502  22.275 -38.602  0.00  0.00     0.049 H 
ATOM     80  H32 GLU d   1     -30.712  21.573 -40.242  0.00  0.00     0.049 H 
BRANCH  78  81
ATOM     81  CD  GLU d   1     -29.073  20.761 -39.121  0.00  0.00     0.172 C 
ATOM     82  OE1 GLU d   1     -28.361  20.807 -40.155  0.00  0.00    -0.648 OA
ATOM     83  OE2 GLU d   1     -28.675  20.269 -38.037  0.00  0.00    -0.648 OA
ENDBRANCH  78  81
ENDBRANCH  75  78
ENDBRANCH  23  75
ENDBRANCH  20  23
ENDBRANCH  17  19
BRANCH  17  84
ATOM     84  CB  ASP d   1     -33.231  25.493 -40.442  0.00  0.00     0.043 C 
ATOM     85  H35 ASP d   1     -34.260  25.785 -40.697  0.00  0.00     0.052 H 
ATOM     86  H36 ASP d   1     -32.853  24.786 -41.195  0.00  0.00     0.052 H 
BRANCH  84  87
ATOM     87  CG  ASP d   1     -32.356  26.735 -40.461  0.00  0.00     0.175 C 
ATOM     88  OD1 ASP d   1     -32.050  27.293 -39.377  0.00  0.00    -0.648 OA
ATOM     89  OD2 ASP d   1     -31.969  27.154 -41.577  0.00  0.00    -0.648 OA
ENDBRANCH  84  87
ENDBRANCH  17  84
ENDBRANCH  14  17
ENDBRANCH  11  13
BRANCH  11  90
ATOM     90  CB  ILE d   1     -38.075  23.926 -38.491  0.00  0.00    -0.030 C 
ATOM     91  H39 ILE d   1     -37.764  22.875 -38.583  0.00  0.00     0.043 H 
BRANCH  90  92
ATOM     92  CG1 ILE d   1     -38.431  24.450 -39.888  0.00  0.00    -0.063 C 
ATOM     93  H40 ILE d   1     -37.517  24.454 -40.500  0.00  0.00     0.033 H 
ATOM     94  H41 ILE d   1     -38.809  25.478 -39.787  0.00  0.00     0.033 H 
BRANCH  92  95
ATOM     95  CD1 ILE d   1     -39.484  23.621 -40.606  0.00  0.00    -0.076 C 
ATOM     96  H45 ILE d   1     -39.683  24.059 -41.595  0.00  0.00     0.027 H 
ATOM     97  H46 ILE d   1     -40.411  23.614 -40.014  0.00  0.00     0.027 H 
ATOM     98  H47 ILE d   1     -39.119  22.590 -40.728  0.00  0.00     0.027 H 
ENDBRANCH  92  95
ENDBRANCH  90  92
BRANCH  90  99
ATOM     99  CG2 ILE d   1     -39.301  23.991 -37.588  0.00  0.00    -0.071 C 
ATOM    100  H42 ILE d   1     -39.040  23.614 -36.588  0.00  0.00     0.028 H 
ATOM    101  H43 ILE d   1     -40.104  23.372 -38.015  0.00  0.00     0.028 H 
ATOM    102  H44 ILE d   1     -39.644  25.033 -37.509  0.00  0.00     0.028 H 
ENDBRANCH  90  99
ENDBRANCH  11  90
ENDBRANCH   8  11
ENDBRANCH   5   7
BRANCH   5 103
ATOM    103  CB  ILE d   1     -35.293  21.245 -34.843  0.00  0.00    -0.030 C 
ATOM    104  H50 ILE d   1     -34.396  21.288 -35.478  0.00  0.00     0.043 H 
BRANCH 103 105
ATOM    105  CG1 ILE d   1     -36.257  20.219 -35.418  0.00  0.00    -0.063 C 
ATOM    106  H51 ILE d   1     -36.577  20.555 -36.415  0.00  0.00     0.033 H 
ATOM    107  H52 ILE d   1     -37.133  20.148 -34.757  0.00  0.00     0.033 H 
BRANCH 105 108
ATOM    108  CD1 ILE d   1     -35.630  18.845 -35.545  0.00  0.00    -0.076 C 
ATOM    109  H56 ILE d   1     -36.366  18.143 -35.964  0.00  0.00     0.027 H 
ATOM    110  H57 ILE d   1     -35.312  18.494 -34.552  0.00  0.00     0.027 H 
ATOM    111  H58 ILE d   1     -34.756  18.901 -36.211  0.00  0.00     0.027 H 
ENDBRANCH 105 108
ENDBRANCH 103 105
BRANCH 103 112
ATOM    112  CG2 ILE d   1     -34.886  20.794 -33.456  0.00  0.00    -0.071 C 
ATOM    113  H53 ILE d   1     -34.187  21.525 -33.023  0.00  0.00     0.028 H 
ATOM    114  H54 ILE d   1     -34.396  19.811 -33.519  0.00  0.00     0.028 H 
ATOM    115  H55 ILE d   1     -35.779  20.718 -32.818  0.00  0.00     0.028 H 
ENDBRANCH 103 112
ENDBRANCH   5 103
ENDBRANCH   1   5
BRANCH   3 116
ATOM    116  CA  ARG d   1     -33.063  25.061 -34.087  0.00  0.00     0.089 C 
ATOM    117  H60 ARG d   1     -32.659  24.626 -33.161  0.00  0.00     0.087 H 
BRANCH 116 118
ATOM    118  C   ARG d   1     -33.781  26.356 -33.750  0.00  0.00     0.241 C 
ATOM    119  O   ARG d   1     -33.765  26.804 -32.610  0.00  0.00    -0.271 OA
ATOM    120  N   LYS d   1     -34.411  26.950 -34.757  0.00  0.00    -0.346 N 
ATOM    121  H72 LYS d   1     -34.339  26.553 -35.672  0.00  0.00     0.163 HD
BRANCH 120 122
ATOM    122  CA  LYS d   1     -35.206  28.164 -34.575  0.00  0.00     0.089 C 
ATOM    123  H73 LYS d   1     -34.515  28.978 -34.309  0.00  0.00     0.087 H 
BRANCH 122 124
ATOM    124  C   LYS d   1     -36.230  28.024 -33.442  0.00  0.00     0.241 C 
ATOM    125  O   LYS d   1     -36.402  28.954 -32.652  0.00  0.00    -0.271 OA
ATOM    126  N   ALA d   1     -36.909  26.877 -33.368  0.00  0.00    -0.346 N 
ATOM    127  H85 ALA d   1     -36.711  26.147 -34.022  0.00  0.00     0.163 HD
BRANCH 126 128
ATOM    128  CA  ALA d   1     -37.937  26.666 -32.350  0.00  0.00     0.086 C 
ATOM    129  H86 ALA d   1     -38.626  27.524 -32.368  0.00  0.00     0.086 H 
BRANCH 128 130
ATOM    130  C   ALA d   1     -37.290  26.594 -30.989  0.00  0.00     0.240 C 
ATOM    131  O   ALA d   1     -37.772  27.219 -30.047  0.00  0.00    -0.271 OA
ATOM    132  N   LEU d   1     -36.187  25.853 -30.886  0.00  0.00    -0.346 N 
ATOM    133  H90 LEU d   1     -35.842  25.370 -31.691  0.00  0.00     0.163 HD
BRANCH 132 134
ATOM    134  CA  LEU d   1     -35.475  25.735 -29.617  0.00  0.00     0.089 C 
ATOM    135  H91 LEU d   1     -36.158  25.256 -28.900  0.00  0.00     0.087 H 
BRANCH 134 136
ATOM    136  C   LEU d   1     -35.066  27.092 -29.047  0.00  0.00     0.241 C 
ATOM    137  O   LEU d   1     -34.863  27.195 -27.844  0.00  0.00    -0.271 OA
ATOM    138  N   MET d   1     -34.933  28.112 -29.903  0.00  0.00    -0.346 N 
ATOM    139 1H10 MET d   1     -35.109  27.948 -30.874  0.00  0.00     0.163 HD
BRANCH 138 140
ATOM    140  CA  MET d   1     -34.539  29.466 -29.477  0.00  0.00     0.090 C 
ATOM    141 2H10 MET d   1     -34.379  29.425 -28.390  0.00  0.00     0.087 H 
BRANCH 140 142
ATOM    142  C   MET d   1     -35.581  30.591 -29.739  0.00  0.00     0.240 C 
ATOM    143  O   MET d   1     -36.087  31.202 -28.799  0.00  0.00    -0.271 OA
ATOM    144  N   GLY d   1     -35.870  30.885 -31.008  0.00  0.00    -0.351 N 
ATOM    145 0H11 GLY d   1     -35.521  30.293 -31.734  0.00  0.00     0.163 HD
BRANCH 144 146
ATOM    146  CA  GLY d   1     -36.688  32.056 -31.372  0.00  0.00     0.069 C 
ATOM    147 1H11 GLY d   1     -36.193  32.962 -30.992  0.00  0.00     0.078 H 
ATOM    148 2H11 GLY d   1     -37.677  31.953 -30.901  0.00  0.00     0.078 H 
BRANCH 146 149
ATOM    149  C   GLY d   1     -36.880  32.203 -32.881  0.00  0.00     0.236 C 
ATOM    150  O   GLY d   1     -35.940  32.546 -33.612  0.00  0.00    -0.272 OA
ATOM    151  N   SER d   1     -38.111  31.947 -33.337  0.00  0.00    -0.347 N 
ATOM    152 3H11 SER d   1     -38.840  31.773 -32.675  0.00  0.00     0.163 HD
BRANCH 151 153
ATOM    153  CA  SER d   1     -38.439  31.911 -34.777  0.00  0.00     0.083 C 
ATOM    154 4H11 SER d   1     -37.710  31.246 -35.264  0.00  0.00     0.086 H 
BRANCH 153 155
ATOM    155  C   SER d   1     -38.318  33.283 -35.423  0.00  0.00     0.112 C 
ATOM    156  O   SER d   1     -37.283  33.598 -36.003  0.00  0.00    -0.305 OA
ATOM    157 5H11 SER d   1     -39.149  33.985 -35.371  0.00  0.00     0.146 H 
ENDBRANCH 153 155
BRANCH 153 158
ATOM    158  CB  SER d   1     -39.850  31.328 -35.026  0.00  0.00     0.041 C 
ATOM    159 6H11 SER d   1     -40.198  31.652 -36.018  0.00  0.00     0.077 H 
ATOM    160 7H11 SER d   1     -40.534  31.711 -34.254  0.00  0.00     0.077 H 
BRANCH 158 161
ATOM    161  OG  SER d   1     -39.854  29.898 -34.979  0.00  0.00    -0.398 OA
ATOM    162 8H11 SER d   1     -40.735  29.580 -35.136  0.00  0.00     0.209 HD
ENDBRANCH 158 161
ENDBRANCH 153 158
ENDBRANCH 151 153
ENDBRANCH 146 149
ENDBRANCH 144 146
ENDBRANCH 140 142
BRANCH 140 163
ATOM    163  CB  MET d   1     -33.211  29.844 -30.142  0.00  0.00    -0.030 C 
ATOM    164 3H10 MET d   1     -33.206  30.933 -30.296  0.00  0.00     0.037 H 
ATOM    165 4H10 MET d   1     -33.163  29.336 -31.116  0.00  0.00     0.037 H 
BRANCH 163 166
ATOM    166  CG  MET d   1     -31.954  29.473 -29.353  0.00  0.00    -0.021 C 
ATOM    167 5H10 MET d   1     -32.197  29.522 -28.281  0.00  0.00     0.049 H 
ATOM    168 6H10 MET d   1     -31.174  30.212 -29.587  0.00  0.00     0.049 H 
BRANCH 166 169
ATOM    169  SD  MET d   1     -31.290  27.829 -29.702  0.00  0.00    -0.173 SA
BRANCH 169 170
ATOM    170  CE  MET d   1     -29.592  28.068 -29.191  0.00  0.00    -0.035 C 
ATOM    171 7H10 MET d   1     -29.029  27.135 -29.341  0.00  0.00     0.041 H 
ATOM    172 8H10 MET d   1     -29.565  28.345 -28.127  0.00  0.00     0.041 H 
ATOM    173 9H10 MET d   1     -29.138  28.871 -29.791  0.00  0.00     0.041 H 
ENDBRANCH 169 170
ENDBRANCH 166 169
ENDBRANCH 163 166
ENDBRANCH 140 163
ENDBRANCH 138 140
ENDBRANCH 134 136
BRANCH 134 174
ATOM    174  CB  LEU d   1     -34.222  24.862 -29.739  0.00  0.00    -0.035 C 
ATOM    175  H92 LEU d   1     -33.433  25.385 -29.179  0.00  0.00     0.037 H 
ATOM    176  H93 LEU d   1     -33.965  24.849 -30.808  0.00  0.00     0.037 H 
BRANCH 174 177
ATOM    177  CG  LEU d   1     -34.173  23.406 -29.276  0.00  0.00    -0.059 C 
ATOM    178  H94 LEU d   1     -34.618  22.780 -30.063  0.00  0.00     0.038 H 
BRANCH 177 179
ATOM    179  CD1 LEU d   1     -32.718  23.012 -29.090  0.00  0.00    -0.073 C 
ATOM    180  H95 LEU d   1     -32.661  21.965 -28.756  0.00  0.00     0.028 H 
ATOM    181  H96 LEU d   1     -32.255  23.663 -28.334  0.00  0.00     0.028 H 
ATOM    182  H97 LEU d   1     -32.183  23.122 -30.045  0.00  0.00     0.028 H 
ENDBRANCH 177 179
BRANCH 177 183
ATOM    183  CD2 LEU d   1     -34.925  23.149 -27.995  0.00  0.00    -0.073 C 
ATOM    184  H98 LEU d   1     -35.980  23.433 -28.126  0.00  0.00     0.028 H 
ATOM    185  H99 LEU d   1     -34.482  23.746 -27.184  0.00  0.00     0.028 H 
ATOM    186 0H10 LEU d   1     -34.862  22.081 -27.741  0.00  0.00     0.028 H 
ENDBRANCH 177 183
ENDBRANCH 174 177
ENDBRANCH 134 174
ENDBRANCH 132 134
ENDBRANCH 128 130
BRANCH 128 187
ATOM    187  CB  ALA d   1     -38.739  25.407 -32.622  0.00  0.00    -0.049 C 
ATOM    188  H87 ALA d   1     -39.501  25.281 -31.838  0.00  0.00     0.030 H 
ATOM    189  H88 ALA d   1     -38.066  24.537 -32.623  0.00  0.00     0.030 H 
ATOM    190  H89 ALA d   1     -39.232  25.491 -33.602  0.00  0.00     0.030 H 
ENDBRANCH 128 187
ENDBRANCH 126 128
ENDBRANCH 122 124
BRANCH 122 191
ATOM    191  CB  LYS d   1     -35.932  28.556 -35.879  0.00  0.00    -0.038 C 
ATOM    192  H74 LYS d   1     -36.803  29.171 -35.610  0.00  0.00     0.036 H 
ATOM    193  H75 LYS d   1     -36.273  27.632 -36.369  0.00  0.00     0.036 H 
BRANCH 191 194
ATOM    194  CG  LYS d   1     -35.087  29.348 -36.895  0.00  0.00    -0.061 C 
ATOM    195  H76 LYS d   1     -34.470  28.646 -37.475  0.00  0.00     0.033 H 
ATOM    196  H77 LYS d   1     -34.435  30.048 -36.353  0.00  0.00     0.033 H 
BRANCH 194 197
ATOM    197  CD  LYS d   1     -35.986  30.139 -37.855  0.00  0.00    -0.043 C 
ATOM    198  H78 LYS d   1     -36.250  31.096 -37.382  0.00  0.00     0.035 H 
ATOM    199  H79 LYS d   1     -36.901  29.557 -38.040  0.00  0.00     0.035 H 
BRANCH 197 200
ATOM    200  CE  LYS d   1     -35.310  30.426 -39.194  0.00  0.00     0.080 C 
ATOM    201  H80 LYS d   1     -36.061  30.846 -39.879  0.00  0.00     0.075 H 
ATOM    202  H81 LYS d   1     -34.932  29.477 -39.602  0.00  0.00     0.075 H 
BRANCH 200 203
ATOM    203  NZ  LYS d   1     -34.171  31.385 -39.099  0.00  0.00    -0.079 N 
ATOM    204  H82 LYS d   1     -33.774  31.527 -40.015  0.00  0.00     0.274 HD
ATOM    205  H83 LYS d   1     -33.467  31.011 -38.482  0.00  0.00     0.274 HD
ATOM    206  H84 LYS d   1     -34.502  32.265 -38.736  0.00  0.00     0.274 HD
ENDBRANCH 200 203
ENDBRANCH 197 200
ENDBRANCH 194 197
ENDBRANCH 191 194
ENDBRANCH 122 191
ENDBRANCH 120 122
ENDBRANCH 116 118
BRANCH 116 207
ATOM    207  CB  ARG d   1     -31.911  25.360 -35.043  0.00  0.00    -0.036 C 
ATOM    208  H61 ARG d   1     -32.329  25.845 -35.937  0.00  0.00     0.036 H 
ATOM    209  H62 ARG d   1     -31.449  24.403 -35.327  0.00  0.00     0.036 H 
BRANCH 207 210
ATOM    210  CG  ARG d   1     -30.813  26.267 -34.484  0.00  0.00    -0.048 C 
ATOM    211  H63 ARG d   1     -30.046  25.640 -34.005  0.00  0.00     0.035 H 
ATOM    212  H64 ARG d   1     -31.257  26.940 -33.735  0.00  0.00     0.035 H 
BRANCH 210 213
ATOM    213  CD  ARG d   1     -30.139  27.125 -35.589  0.00  0.00     0.009 C 
ATOM    214  H65 ARG d   1     -29.100  27.320 -35.286  0.00  0.00     0.064 H 
ATOM    215  H66 ARG d   1     -30.684  28.078 -35.664  0.00  0.00     0.064 H 
BRANCH 213 216
ATOM    216  NE  ARG d   1     -30.120  26.501 -36.919  0.00  0.00    -0.227 N 
ATOM    217  CZ  ARG d   1     -29.428  25.405 -37.250  0.00  0.00     0.665 C 
ATOM    218  NH1 ARG d   1     -28.677  24.756 -36.356  0.00  0.00    -0.235 N 
ATOM    219  NH2 ARG d   1     -29.493  24.941 -38.496  0.00  0.00    -0.235 N 
ATOM    220  H68 ARG d   1     -28.154  23.914 -36.637  0.00  0.00     0.174 HD
ATOM    221  H69 ARG d   1     -28.621  25.097 -35.386  0.00  0.00     0.174 HD
ATOM    222  H70 ARG d   1     -30.067  25.429 -39.198  0.00  0.00     0.174 HD
ATOM    223  H71 ARG d   1     -28.969  24.094 -38.758  0.00  0.00     0.174 HD
ATOM    224  H67 ARG d   1     -30.686  26.944 -37.657  0.00  0.00     0.177 HD
ENDBRANCH 213 216
ENDBRANCH 210 213
ENDBRANCH 207 210
ENDBRANCH 116 207
ENDBRANCH   3 116
TORSDOF 69
