REMARK  13 active torsions:
REMARK  status: ('A' for Active; 'I' for Inactive)
REMARK    1  A    between atoms: C31_31  and  C1_1 
REMARK    2  A    between atoms: C3_3  and  C33_33 
REMARK    3  A    between atoms: C18_18  and  C7_7 
REMARK    4  A    between atoms: C8_8  and  O29_29 
REMARK    5  A    between atoms: C9_9  and  C34_34 
REMARK    6  A    between atoms: N10_10  and  C31_31 
REMARK    7  A    between atoms: C16_16  and  N24_24 
REMARK    8  A    between atoms: N24_24  and  S25_25 
REMARK    9  A    between atoms: S25_25  and  C26_26 
REMARK   10  A    between atoms: C34_34  and  C35_35 
REMARK   11  A    between atoms: C34_34  and  C37_37 
REMARK   12  A    between atoms: C34_34  and  C38_38 
REMARK   13  A    between atoms: C35_35  and  C36_36 
ROOT
ATOM      1  C7  H59 d   1     -10.538  -7.890  11.348  0.00  0.00     0.090 A 
ATOM      2  C8  H59 d   1     -10.872  -7.049  10.319  0.00  0.00     0.085 A 
ATOM      3  C9  H59 d   1     -10.733  -7.827   9.024  0.00  0.00     0.069 A 
ATOM      4  N10 H59 d   1     -10.193  -9.155   9.434  0.00  0.00    -0.332 N 
ATOM      5  C11 H59 d   1     -10.105  -9.165  10.794  0.00  0.00     0.259 A 
ATOM      6  O30 H59 d   1      -9.650 -10.064  11.487  0.00  0.00    -0.267 OA
ATOM      7  H4  H59 d   1     -10.007  -7.332   8.362  0.00  0.00     0.084 H 
ENDROOT
BRANCH   1   8
ATOM      8  C18 H59 d   1     -10.497  -7.604  12.809  0.00  0.00     0.062 C 
ATOM      9  N19 H59 d   1      -9.717  -8.440  13.616  0.00  0.00    -0.354 N 
ATOM     10  C13 H59 d   1      -9.895  -8.625  14.992  0.00  0.00     0.054 A 
ATOM     11  H8  H59 d   1      -8.952  -8.960  13.162  0.00  0.00     0.166 HD
ATOM     12  C12 H59 d   1     -10.611  -7.685  15.748  0.00  0.00     0.092 A 
ATOM     13  C14 H59 d   1      -9.379  -9.780  15.623  0.00  0.00    -0.053 A 
ATOM     14  C17 H59 d   1     -10.787  -7.905  17.110  0.00  0.00    -0.033 A 
ATOM     15  S20 H59 d   1     -11.269  -6.198  14.984  0.00  0.00     0.201 S 
ATOM     16  C16 H59 d   1     -10.257  -9.028  17.754  0.00  0.00     0.043 A 
ATOM     17  H7  H59 d   1     -11.352  -7.184  17.690  0.00  0.00     0.089 H 
ATOM     18  C15 H59 d   1      -9.554  -9.970  16.988  0.00  0.00    -0.054 A 
ATOM     19  H6  H59 d   1      -9.144 -10.853  17.465  0.00  0.00     0.087 H 
ATOM     20  C21 H59 d   1     -11.226  -6.572  13.267  0.00  0.00     0.039 C 
ATOM     21  O22 H59 d   1     -12.642  -5.988  15.367  0.00  0.00    -0.218 OA
ATOM     22  O23 H59 d   1     -10.332  -5.152  15.284  0.00  0.00    -0.218 OA
ATOM     23  H9  H59 d   1     -11.796  -5.962  12.568  0.00  0.00     0.106 H 
ATOM     24  H5  H59 d   1      -8.845 -10.521  15.039  0.00  0.00     0.087 H 
BRANCH  16  25
ATOM     25  N24 H59 d   1     -10.457  -9.243  19.149  0.00  0.00    -0.285 N 
ATOM     26  H10 H59 d   1     -10.443 -10.189  19.472  0.00  0.00     0.178 HD
BRANCH  25  27
ATOM     27  S25 H59 d   1     -10.711  -8.062  20.280  0.00  0.00     0.227 S 
ATOM     28  O27 H59 d   1     -10.194  -8.646  21.462  0.00  0.00    -0.206 OA
ATOM     29  O28 H59 d   1     -10.203  -6.847  19.754  0.00  0.00    -0.206 OA
BRANCH  27  30
ATOM     30  C26 H59 d   1     -12.517  -7.993  20.430  0.00  0.00     0.033 C 
ATOM     31  H11 H59 d   1     -12.794  -7.227  21.169  0.00  0.00     0.051 H 
ATOM     32  H12 H59 d   1     -12.895  -8.973  20.758  0.00  0.00     0.051 H 
ATOM     33  H13 H59 d   1     -12.957  -7.738  19.454  0.00  0.00     0.051 H 
ENDBRANCH  27  30
ENDBRANCH  25  27
ENDBRANCH  16  25
ENDBRANCH   1   8
BRANCH   2  34
ATOM     34  O29 H59 d   1     -11.286  -5.776  10.448  0.00  0.00    -0.362 OA
ATOM     35  H14 H59 d   1     -12.167  -5.694  10.103  0.00  0.00     0.217 HD
ENDBRANCH   2  34
BRANCH   3  36
ATOM     36  C34 H59 d   1     -12.109  -7.879   8.282  0.00  0.00    -0.021 C 
BRANCH  36  37
ATOM     37  C35 H59 d   1     -12.459  -6.430   7.934  0.00  0.00    -0.060 C 
ATOM     38  H20 H59 d   1     -11.525  -5.865   7.798  0.00  0.00     0.033 H 
ATOM     39  H21 H59 d   1     -13.031  -5.996   8.767  0.00  0.00     0.033 H 
BRANCH  37  40
ATOM     40  C36 H59 d   1     -13.282  -6.315   6.671  0.00  0.00    -0.076 C 
ATOM     41  H22 H59 d   1     -13.502  -5.256   6.472  0.00  0.00     0.027 H 
ATOM     42  H23 H59 d   1     -14.225  -6.868   6.796  0.00  0.00     0.027 H 
ATOM     43  H24 H59 d   1     -12.718  -6.737   5.826  0.00  0.00     0.027 H 
ENDBRANCH  37  40
ENDBRANCH  36  37
BRANCH  36  44
ATOM     44  C37 H59 d   1     -12.070  -8.731   6.992  0.00  0.00    -0.067 C 
ATOM     45  H25 H59 d   1     -11.818  -9.771   7.247  0.00  0.00     0.028 H 
ATOM     46  H26 H59 d   1     -11.309  -8.327   6.308  0.00  0.00     0.028 H 
ATOM     47  H27 H59 d   1     -13.055  -8.701   6.503  0.00  0.00     0.028 H 
ENDBRANCH  36  44
BRANCH  36  48
ATOM     48  C38 H59 d   1     -13.223  -8.462   9.169  0.00  0.00    -0.067 C 
ATOM     49  H28 H59 d   1     -13.288  -7.885  10.103  0.00  0.00     0.028 H 
ATOM     50  H29 H59 d   1     -12.994  -9.512   9.402  0.00  0.00     0.028 H 
ATOM     51  H30 H59 d   1     -14.184  -8.406   8.636  0.00  0.00     0.028 H 
ENDBRANCH  36  48
ENDBRANCH   3  36
BRANCH   4  52
ATOM     52  C31 H59 d   1      -9.727 -10.257   8.578  0.00  0.00     0.022 C 
ATOM     53  H15 H59 d   1      -9.722 -11.205   9.135  0.00  0.00     0.071 H 
ATOM     54  H16 H59 d   1     -10.369 -10.357   7.690  0.00  0.00     0.071 H 
BRANCH  52  55
ATOM     55  C1  H59 d   1      -8.319  -9.864   8.178  0.00  0.00    -0.040 A 
ATOM     56  C2  H59 d   1      -7.911  -9.998   6.859  0.00  0.00    -0.067 A 
ATOM     57  C3  H59 d   1      -6.630  -9.644   6.434  0.00  0.00    -0.023 A 
ATOM     58  H1  H59 d   1      -8.613 -10.392   6.132  0.00  0.00     0.085 H 
ATOM     59  C4  H59 d   1      -5.736  -9.101   7.330  0.00  0.00     0.122 A 
ATOM     60  C5  H59 d   1      -6.140  -8.936   8.654  0.00  0.00    -0.045 A 
ATOM     61  F32 H59 d   1      -4.480  -8.735   6.915  0.00  0.00    -0.206 F 
ATOM     62  C6  H59 d   1      -7.416  -9.323   9.084  0.00  0.00    -0.072 A 
ATOM     63  H2  H59 d   1      -5.451  -8.498   9.367  0.00  0.00     0.088 H 
ATOM     64  H3  H59 d   1      -7.698  -9.200  10.123  0.00  0.00     0.084 H 
BRANCH  57  65
ATOM     65  C33 H59 d   1      -6.253  -9.838   4.980  0.00  0.00    -0.048 C 
ATOM     66  H17 H59 d   1      -7.101 -10.282   4.438  0.00  0.00     0.033 H 
ATOM     67  H18 H59 d   1      -5.383 -10.508   4.913  0.00  0.00     0.033 H 
ATOM     68  H19 H59 d   1      -6.001  -8.865   4.534  0.00  0.00     0.033 H 
ENDBRANCH  57  65
ENDBRANCH  52  55
ENDBRANCH   4  52
TORSDOF 13
