REMARK  11 active torsions:
REMARK  status: ('A' for Active; 'I' for Inactive)
REMARK    1  A    between atoms: C1_1  and  C24_24 
REMARK    2  A    between atoms: C4_3  and  C15_15 
REMARK    3  A    between atoms: C5_4  and  O13_10 
REMARK    4  A    between atoms: C6_5  and  C7_6 
REMARK    5  A    between atoms: C6_5  and  N2_11 
REMARK    6  A    between atoms: C9_8  and  C29_29 
REMARK    7  A    between atoms: C24_24  and  C25_25 
REMARK    8  A    between atoms: C24_24  and  C26_26 
REMARK    9  A    between atoms: C24_24  and  C27_27 
REMARK   10  A    between atoms: N34_34  and  S36_36 
REMARK   11  A    between atoms: S36_36  and  C39_39 
ROOT
ATOM      1  C1  H5S d   1     -10.042   8.295  12.991  0.00  0.00     0.068 A 
ATOM      2  C3  H5S d   1      -9.709   9.735  11.192  0.00  0.00     0.259 A 
ATOM      3  C4  H5S d   1     -10.037   8.408  10.624  0.00  0.00     0.093 A 
ATOM      4  C5  H5S d   1     -10.180   7.536  11.689  0.00  0.00     0.085 A 
ATOM      5  N2  H5S d   1      -9.648   9.651  12.547  0.00  0.00    -0.332 N 
ATOM      6  O14 H5S d   1      -9.401  10.750  10.574  0.00  0.00    -0.267 OA
ATOM      7  H1  H5S d   1      -9.280   7.853  13.649  0.00  0.00     0.084 H 
ENDROOT
BRANCH   3   8
ATOM      8  C15 H5S d   1     -10.136   8.015   9.175  0.00  0.00     0.100 A 
ATOM      9  N17 H5S d   1     -10.707   6.888   8.917  0.00  0.00    -0.158 NA
ATOM     10  S16 H5S d   1     -10.867   6.688   7.269  0.00  0.00     0.285 S 
ATOM     11  C18 H5S d   1     -10.243   8.281   6.807  0.00  0.00     0.102 A 
ATOM     12  O22 H5S d   1      -9.948   5.727   6.814  0.00  0.00    -0.198 OA
ATOM     13  O23 H5S d   1     -12.251   6.560   7.020  0.00  0.00    -0.198 OA
ATOM     14  C19 H5S d   1      -9.812   8.879   8.012  0.00  0.00     0.019 A 
ATOM     15  C30 H5S d   1     -10.089   8.904   5.600  0.00  0.00    -0.009 A 
ATOM     16  C20 H5S d   1      -9.237  10.172   7.902  0.00  0.00    -0.069 A 
ATOM     17  C21 H5S d   1      -9.089  10.804   6.671  0.00  0.00    -0.075 A 
ATOM     18  H8  H5S d   1      -8.905  10.680   8.800  0.00  0.00     0.085 H 
ATOM     19  C31 H5S d   1      -9.523  10.175   5.506  0.00  0.00    -0.047 A 
ATOM     20  H9  H5S d   1      -8.635  11.787   6.619  0.00  0.00     0.084 H 
ATOM     21  C32 H5S d   1      -9.368  10.890   4.193  0.00  0.00    -0.025 C 
ATOM     22  C33 H5S d   1     -10.424  10.394   3.186  0.00  0.00     0.009 C 
ATOM     23  H22 H5S d   1      -8.363  10.695   3.790  0.00  0.00     0.042 H 
ATOM     24  H23 H5S d   1      -9.497  11.971   4.351  0.00  0.00     0.042 H 
ATOM     25  N34 H5S d   1     -10.436   8.904   3.167  0.00  0.00    -0.306 N 
ATOM     26  H24 H5S d   1     -10.178  10.771   2.182  0.00  0.00     0.065 H 
ATOM     27  H25 H5S d   1     -11.416  10.764   3.484  0.00  0.00     0.065 H 
ATOM     28  C35 H5S d   1     -10.562   8.137   4.412  0.00  0.00     0.031 C 
ATOM     29  H26 H5S d   1     -11.620   7.873   4.559  0.00  0.00     0.072 H 
ATOM     30  H27 H5S d   1      -9.964   7.218   4.323  0.00  0.00     0.072 H 
BRANCH  25  31
ATOM     31  S36 H5S d   1     -10.475   8.030   1.766  0.00  0.00     0.225 S 
ATOM     32  O37 H5S d   1      -9.836   8.806   0.749  0.00  0.00    -0.206 OA
ATOM     33  O38 H5S d   1     -10.025   6.713   2.081  0.00  0.00    -0.206 OA
BRANCH  31  34
ATOM     34  C39 H5S d   1     -12.267   7.953   1.422  0.00  0.00     0.032 C 
ATOM     35  H28 H5S d   1     -12.438   7.386   0.495  0.00  0.00     0.051 H 
ATOM     36  H29 H5S d   1     -12.662   8.973   1.306  0.00  0.00     0.051 H 
ATOM     37  H30 H5S d   1     -12.780   7.454   2.257  0.00  0.00     0.051 H 
ENDBRANCH  31  34
ENDBRANCH  25  31
ENDBRANCH   3   8
BRANCH   4  38
ATOM     38  O13 H5S d   1     -10.433   6.240  11.652  0.00  0.00    -0.362 OA
ATOM     39  H5  H5S d   1     -11.263   6.093  11.214  0.00  0.00     0.217 HD
ENDBRANCH   4  38
BRANCH   5  40
ATOM     40  C6  H5S d   1      -9.214  10.718  13.448  0.00  0.00     0.022 C 
ATOM     41  H2  H5S d   1      -9.262  11.698  12.950  0.00  0.00     0.071 H 
ATOM     42  H3  H5S d   1      -9.830  10.739  14.359  0.00  0.00     0.071 H 
BRANCH  40  43
ATOM     43  C7  H5S d   1      -7.772  10.340  13.772  0.00  0.00    -0.040 A 
ATOM     44  C8  H5S d   1      -7.282  10.485  15.073  0.00  0.00    -0.067 A 
ATOM     45  C9  H5S d   1      -5.968  10.175  15.359  0.00  0.00    -0.023 A 
ATOM     46  H4  H5S d   1      -7.936  10.842  15.860  0.00  0.00     0.085 H 
ATOM     47  C10 H5S d   1      -5.116   9.671  14.368  0.00  0.00     0.122 A 
ATOM     48  C11 H5S d   1      -5.568   9.500  13.060  0.00  0.00    -0.045 A 
ATOM     49  F28 H5S d   1      -3.848   9.362  14.690  0.00  0.00    -0.206 F 
ATOM     50  C12 H5S d   1      -6.896   9.849  12.793  0.00  0.00    -0.072 A 
ATOM     51  H6  H5S d   1      -4.918   9.113  12.283  0.00  0.00     0.088 H 
ATOM     52  H7  H5S d   1      -7.266   9.734  11.780  0.00  0.00     0.084 H 
BRANCH  45  53
ATOM     53  C29 H5S d   1      -5.456  10.354  16.768  0.00  0.00    -0.048 C 
ATOM     54  H19 H5S d   1      -6.260  10.757  17.402  0.00  0.00     0.033 H 
ATOM     55  H20 H5S d   1      -4.607  11.053  16.764  0.00  0.00     0.033 H 
ATOM     56  H21 H5S d   1      -5.128   9.382  17.165  0.00  0.00     0.033 H 
ENDBRANCH  45  53
ENDBRANCH  40  43
ENDBRANCH   5  40
BRANCH   1  57
ATOM     57  C24 H5S d   1     -11.450   8.297  13.706  0.00  0.00    -0.025 C 
BRANCH  57  58
ATOM     58  C25 H5S d   1     -11.790   6.900  14.246  0.00  0.00    -0.067 C 
ATOM     59  H10 H5S d   1     -12.773   6.927  14.739  0.00  0.00     0.028 H 
ATOM     60  H11 H5S d   1     -11.024   6.591  14.973  0.00  0.00     0.028 H 
ATOM     61  H12 H5S d   1     -11.816   6.181  13.414  0.00  0.00     0.028 H 
ENDBRANCH  57  58
BRANCH  57  62
ATOM     62  C26 H5S d   1     -11.518   9.201  14.961  0.00  0.00    -0.067 C 
ATOM     63  H13 H5S d   1     -11.287  10.239  14.678  0.00  0.00     0.028 H 
ATOM     64  H14 H5S d   1     -10.786   8.852  15.704  0.00  0.00     0.028 H 
ATOM     65  H15 H5S d   1     -12.529   9.155  15.392  0.00  0.00     0.028 H 
ENDBRANCH  57  62
BRANCH  57  66
ATOM     66  C27 H5S d   1     -12.616   8.687  12.745  0.00  0.00    -0.067 C 
ATOM     67  H16 H5S d   1     -12.580   8.052  11.848  0.00  0.00     0.028 H 
ATOM     68  H17 H5S d   1     -12.512   9.742  12.452  0.00  0.00     0.028 H 
ATOM     69  H18 H5S d   1     -13.578   8.542  13.258  0.00  0.00     0.028 H 
ENDBRANCH  57  66
ENDBRANCH   1  57
TORSDOF 11
