REMARK  12 active torsions:
REMARK  status: ('A' for Active; 'I' for Inactive)
REMARK    1  A    between atoms: C19_19  and  C1_1 
REMARK    2  A    between atoms: C2_2  and  O7_7 
REMARK    3  A    between atoms: C3_3  and  C10_10 
REMARK    4  A    between atoms: N4_4  and  C8_8 
REMARK    5  A    between atoms: C8_8  and  C9_9 
REMARK    6  A    between atoms: C10_10  and  C22_22 
REMARK    7  A    between atoms: C10_10  and  C23_23 
REMARK    8  A    between atoms: C10_10  and  C24_24 
REMARK    9  A    between atoms: C14_14  and  C31_31 
REMARK   10  A    between atoms: C31_31  and  N32_32 
REMARK   11  A    between atoms: N32_32  and  S33_33 
REMARK   12  A    between atoms: S33_33  and  C34_34 
ROOT
ATOM      1  C1  H5U d   1      76.045  44.665  12.928  0.00  0.00     0.093 A 
ATOM      2  C2  H5U d   1      75.869  45.564  11.897  0.00  0.00     0.085 A 
ATOM      3  C3  H5U d   1      76.018  44.816  10.598  0.00  0.00     0.068 A 
ATOM      4  N4  H5U d   1      76.423  43.458  11.002  0.00  0.00    -0.332 N 
ATOM      5  C5  H5U d   1      76.388  43.365  12.350  0.00  0.00     0.259 A 
ATOM      6  O6  H5U d   1      76.703  42.351  12.975  0.00  0.00    -0.267 OA
ATOM      7  H1  H5U d   1      76.772  45.276   9.942  0.00  0.00     0.084 H 
ENDROOT
BRANCH   1   8
ATOM      8  C19 H5U d   1      75.942  44.988  14.384  0.00  0.00     0.100 A 
ATOM      9  C15 H5U d   1      76.539  44.210  15.511  0.00  0.00     0.018 A 
ATOM     10  C11 H5U d   1      77.415  43.100  15.579  0.00  0.00    -0.069 A 
ATOM     11  C16 H5U d   1      76.109  44.691  16.756  0.00  0.00     0.102 A 
ATOM     12  C12 H5U d   1      77.797  42.529  16.776  0.00  0.00    -0.081 A 
ATOM     13  H5  H5U d   1      77.800  42.683  14.656  0.00  0.00     0.085 H 
ATOM     14  C13 H5U d   1      77.339  43.040  17.982  0.00  0.00    -0.074 A 
ATOM     15  H6  H5U d   1      78.462  41.673  16.774  0.00  0.00     0.083 H 
ATOM     16  C14 H5U d   1      76.483  44.128  17.938  0.00  0.00    -0.016 A 
ATOM     17  H7  H5U d   1      77.641  42.602  18.927  0.00  0.00     0.084 H 
ATOM     18  S17 H5U d   1      75.076  46.074  16.377  0.00  0.00     0.285 S 
ATOM     19  N18 H5U d   1      75.141  45.967  14.696  0.00  0.00    -0.158 NA
ATOM     20  O20 H5U d   1      73.763  45.757  16.827  0.00  0.00    -0.198 OA
ATOM     21  O21 H5U d   1      75.669  47.324  16.728  0.00  0.00    -0.198 OA
BRANCH  16  22
ATOM     22  C31 H5U d   1      75.912  44.779  19.159  0.00  0.00     0.028 C 
ATOM     23  H21 H5U d   1      74.841  44.967  18.990  0.00  0.00     0.072 H 
ATOM     24  H22 H5U d   1      76.431  45.735  19.324  0.00  0.00     0.072 H 
BRANCH  22  25
ATOM     25  N32 H5U d   1      76.058  43.960  20.347  0.00  0.00    -0.316 N 
ATOM     26  H23 H5U d   1      76.243  42.978  20.301  0.00  0.00     0.172 HD
BRANCH  25  27
ATOM     27  S33 H5U d   1      75.897  44.765  21.782  0.00  0.00     0.223 S 
ATOM     28  O35 H5U d   1      76.500  43.875  22.682  0.00  0.00    -0.206 OA
ATOM     29  O36 H5U d   1      76.292  46.088  21.573  0.00  0.00    -0.206 OA
BRANCH  27  30
ATOM     30  C34 H5U d   1      74.111  44.766  22.109  0.00  0.00     0.032 C 
ATOM     31  H24 H5U d   1      73.912  45.288  23.057  0.00  0.00     0.051 H 
ATOM     32  H25 H5U d   1      73.750  43.729  22.179  0.00  0.00     0.051 H 
ATOM     33  H26 H5U d   1      73.588  45.282  21.290  0.00  0.00     0.051 H 
ENDBRANCH  27  30
ENDBRANCH  25  27
ENDBRANCH  22  25
ENDBRANCH  16  22
ENDBRANCH   1   8
BRANCH   2  34
ATOM     34  O7  H5U d   1      75.568  46.882  12.004  0.00  0.00    -0.362 OA
ATOM     35  H2  H5U d   1      75.529  47.123  12.922  0.00  0.00     0.217 HD
ENDBRANCH   2  34
BRANCH   3  36
ATOM     36  C10 H5U d   1      74.595  44.811   9.895  0.00  0.00    -0.025 C 
BRANCH  36  37
ATOM     37  C22 H5U d   1      74.260  46.212   9.391  0.00  0.00    -0.067 C 
ATOM     38  H8  H5U d   1      73.273  46.201   8.905  0.00  0.00     0.028 H 
ATOM     39  H9  H5U d   1      75.022  46.533   8.665  0.00  0.00     0.028 H 
ATOM     40  H10 H5U d   1      74.243  46.913  10.239  0.00  0.00     0.028 H 
ENDBRANCH  36  37
BRANCH  36  41
ATOM     41  C23 H5U d   1      74.500  43.849   8.703  0.00  0.00    -0.067 C 
ATOM     42  H11 H5U d   1      74.737  42.828   9.036  0.00  0.00     0.028 H 
ATOM     43  H12 H5U d   1      75.215  44.156   7.926  0.00  0.00     0.028 H 
ATOM     44  H13 H5U d   1      73.480  43.873   8.293  0.00  0.00     0.028 H 
ENDBRANCH  36  41
BRANCH  36  45
ATOM     45  C24 H5U d   1      73.430  44.417  10.816  0.00  0.00    -0.067 C 
ATOM     46  H14 H5U d   1      73.428  45.067  11.704  0.00  0.00     0.028 H 
ATOM     47  H15 H5U d   1      73.548  43.369  11.129  0.00  0.00     0.028 H 
ATOM     48  H16 H5U d   1      72.479  44.533  10.275  0.00  0.00     0.028 H 
ENDBRANCH  36  45
ENDBRANCH   3  36
BRANCH   4  49
ATOM     49  C8  H5U d   1      76.881  42.388  10.135  0.00  0.00     0.022 C 
ATOM     50  H3  H5U d   1      76.256  42.318   9.232  0.00  0.00     0.071 H 
ATOM     51  H4  H5U d   1      76.873  41.423  10.662  0.00  0.00     0.071 H 
BRANCH  49  52
ATOM     52  C9  H5U d   1      78.316  42.810   9.780  0.00  0.00    -0.040 A 
ATOM     53  C25 H5U d   1      79.240  43.166  10.777  0.00  0.00    -0.072 A 
ATOM     54  C26 H5U d   1      80.544  43.549  10.447  0.00  0.00    -0.045 A 
ATOM     55  H17 H5U d   1      78.938  43.143  11.818  0.00  0.00     0.084 H 
ATOM     56  C27 H5U d   1      80.941  43.601   9.100  0.00  0.00     0.116 A 
ATOM     57  H18 H5U d   1      81.248  43.806  11.230  0.00  0.00     0.088 H 
ATOM     58  C28 H5U d   1      80.022  43.266   8.102  0.00  0.00    -0.045 A 
ATOM     59  F30 H5U d   1      82.200  43.996   8.764  0.00  0.00    -0.206 F 
ATOM     60  C29 H5U d   1      78.723  42.880   8.441  0.00  0.00    -0.072 A 
ATOM     61  H19 H5U d   1      80.319  43.306   7.060  0.00  0.00     0.088 H 
ATOM     62  H20 H5U d   1      78.019  42.631   7.656  0.00  0.00     0.084 H 
ENDBRANCH  49  52
ENDBRANCH   4  49
TORSDOF 12
