REMARK WARNING: 32 MAX_TORS EXCEEDED!!!
REMARK  35 active torsions:
REMARK  status: ('A' for Active; 'I' for Inactive)
REMARK    1  A    between atoms: N_1  and  CA_2 
REMARK    2  A    between atoms: CA_2  and  C_3 
REMARK    3  A    between atoms: CA_2  and  CB_5 
REMARK       I    between atoms: C_3  and  N_11 
REMARK    4  A    between atoms: CB_5  and  CG_6 
REMARK    5  A    between atoms: N_11  and  CA_12 
REMARK    6  A    between atoms: CA_12  and  C_13 
REMARK    7  A    between atoms: CA_12  and  CB_15 
REMARK       I    between atoms: C_13  and  N_22 
REMARK    8  A    between atoms: CB_15  and  CG_16 
REMARK    9  A    between atoms: CG_16  and  CD_17 
REMARK   10  A    between atoms: CD_17  and  NE_18 
REMARK       I    between atoms: NE_18  and  CZ_19 
REMARK       I    between atoms: CZ_19  and  NH1_20 
REMARK       I    between atoms: CZ_19  and  NH2_21 
REMARK   11  A    between atoms: N_22  and  CA_23 
REMARK   12  A    between atoms: CA_23  and  CB_24 
REMARK   13  A    between atoms: CA_23  and  C_30 
REMARK   14  A    between atoms: CB_24  and  CG_25 
REMARK   15  A    between atoms: CG_25  and  CD_26 
REMARK   16  A    between atoms: CD_26  and  CE_27 
REMARK   17  A    between atoms: CE_27  and  NZ_28 
REMARK   18  A    between atoms: NZ_28  and  CM_29 
REMARK       I    between atoms: C_30  and  N_32 
REMARK   19  A    between atoms: N_32  and  CA_33 
REMARK   20  A    between atoms: CA_33  and  C_34 
REMARK   21  A    between atoms: CA_33  and  CB_36 
REMARK       I    between atoms: C_34  and  N_39 
REMARK   22  A    between atoms: CB_36  and  CG1_37 
REMARK   23  A    between atoms: CB_36  and  CG2_38 
REMARK   24  A    between atoms: N_39  and  CA_40 
REMARK   25  A    between atoms: CA_40  and  C_41 
REMARK   26  A    between atoms: CA_40  and  CB_43 
REMARK       I    between atoms: C_41  and  N_47 
REMARK   27  A    between atoms: CB_43  and  CG_44 
REMARK   28  A    between atoms: CG_44  and  CD1_45 
REMARK   29  A    between atoms: CG_44  and  CD2_46 
REMARK   30  A    between atoms: N_47  and  CA_48 
REMARK   31  A    between atoms: CA_48  and  C_49 
REMARK   32  A    between atoms: CA_48  and  CB_51 
REMARK   33  A    between atoms: CB_51  and  CG_52 
REMARK   34  A    between atoms: CG_52  and  CD_53 
REMARK   35  A    between atoms: CD_53  and  NE_54 
REMARK       I    between atoms: NE_54  and  CZ_55 
REMARK       I    between atoms: CZ_55  and  NH1_56 
REMARK       I    between atoms: CZ_55  and  NH2_57 
ROOT
ATOM      1  CA  MLZ d   1      51.538  30.194  32.702  0.00  0.00     0.089 C 
ATOM      2  H24 MLZ d   1      52.077  31.139  32.863  0.00  0.00     0.087 H 
ENDROOT
BRANCH   1   3
ATOM      3  N   MLZ d   1      51.823  29.736  31.361  0.00  0.00    -0.346 N 
ATOM      4  C   ARG d   1      52.981  30.005  30.762  0.00  0.00     0.241 C 
ATOM      5  O   ARG d   1      53.873  30.692  31.268  0.00  0.00    -0.271 OA
ATOM      6  H23 MLZ d   1      51.133  29.204  30.871  0.00  0.00     0.163 HD
BRANCH   4   7
ATOM      7  CA  ARG d   1      53.171  29.374  29.401  0.00  0.00     0.089 C 
ATOM      8  H11 ARG d   1      54.246  29.291  29.185  0.00  0.00     0.087 H 
BRANCH   7   9
ATOM      9  N   ARG d   1      52.602  28.052  29.498  0.00  0.00    -0.346 N 
ATOM     10  C   HIS d   1      53.254  27.002  29.026  0.00  0.00     0.249 C 
ATOM     11  O   HIS d   1      54.174  27.094  28.202  0.00  0.00    -0.271 OA
ATOM     12  H10 ARG d   1      51.707  27.928  29.926  0.00  0.00     0.163 HD
BRANCH  10  13
ATOM     13  CA  HIS d   1      52.794  25.645  29.553  0.00  0.00     0.181 C 
ATOM     14  H4  HIS d   1      51.727  25.727  29.805  0.00  0.00     0.099 H 
BRANCH  13  15
ATOM     15  N   HIS d   1      52.928  24.536  28.543  0.00  0.00    -0.066 N 
ATOM     16  H1  HIS d   1      52.609  23.671  28.950  0.00  0.00     0.275 HD
ATOM     17  H2  HIS d   1      53.894  24.444  28.271  0.00  0.00     0.275 HD
ATOM     18  H3  HIS d   1      52.370  24.751  27.732  0.00  0.00     0.275 HD
ENDBRANCH  13  15
BRANCH  13  19
ATOM     19  CB  HIS d   1      53.571  25.331  30.850  0.00  0.00     0.009 C 
ATOM     20  H5  HIS d   1      53.974  26.274  31.249  0.00  0.00     0.046 H 
ATOM     21  H6  HIS d   1      54.401  24.654  30.601  0.00  0.00     0.046 H 
BRANCH  19  22
ATOM     22  CG  HIS d   1      52.740  24.685  31.916  0.00  0.00     0.030 A 
ATOM     23  ND1 HIS d   1      51.372  25.074  32.133  0.00  0.00    -0.353 N 
ATOM     24  CE1 HIS d   1      50.905  24.331  33.130  0.00  0.00     0.063 A 
ATOM     25  H7  HIS d   1      50.852  25.794  31.612  0.00  0.00     0.166 HD
ATOM     26  NE2 HIS d   1      51.927  23.477  33.579  0.00  0.00    -0.254 NA
ATOM     27  H9  HIS d   1      49.895  24.376  33.534  0.00  0.00     0.143 H 
ATOM     28  CD2 HIS d   1      53.087  23.683  32.841  0.00  0.00     0.025 A 
ATOM     29  H8  HIS d   1      54.047  23.182  32.953  0.00  0.00     0.117 H 
ENDBRANCH  19  22
ENDBRANCH  13  19
ENDBRANCH  10  13
ENDBRANCH   7   9
BRANCH   7  30
ATOM     30  CB  ARG d   1      52.528  30.201  28.293  0.00  0.00    -0.036 C 
ATOM     31  H12 ARG d   1      51.535  30.533  28.629  0.00  0.00     0.036 H 
ATOM     32  H13 ARG d   1      52.421  29.571  27.397  0.00  0.00     0.036 H 
BRANCH  30  33
ATOM     33  CG  ARG d   1      53.353  31.416  27.938  0.00  0.00    -0.048 C 
ATOM     34  H14 ARG d   1      54.386  31.254  28.278  0.00  0.00     0.035 H 
ATOM     35  H15 ARG d   1      52.931  32.293  28.451  0.00  0.00     0.035 H 
BRANCH  33  36
ATOM     36  CD  ARG d   1      53.366  31.681  26.454  0.00  0.00     0.009 C 
ATOM     37  H16 ARG d   1      52.385  31.416  26.034  0.00  0.00     0.064 H 
ATOM     38  H17 ARG d   1      54.145  31.061  25.986  0.00  0.00     0.064 H 
BRANCH  36  39
ATOM     39  NE  ARG d   1      53.642  33.088  26.171  0.00  0.00    -0.227 N 
ATOM     40  CZ  ARG d   1      52.990  33.811  25.261  0.00  0.00     0.665 C 
ATOM     41  NH1 ARG d   1      52.003  33.270  24.548  0.00  0.00    -0.235 N 
ATOM     42  NH2 ARG d   1      53.313  35.085  25.074  0.00  0.00    -0.235 N 
ATOM     43  H19 ARG d   1      51.504  33.836  23.847  0.00  0.00     0.174 HD
ATOM     44  H20 ARG d   1      51.739  32.286  24.698  0.00  0.00     0.174 HD
ATOM     45  H21 ARG d   1      54.075  35.509  25.622  0.00  0.00     0.174 HD
ATOM     46  H22 ARG d   1      52.801  35.650  24.381  0.00  0.00     0.174 HD
ATOM     47  H18 ARG d   1      54.388  33.550  26.709  0.00  0.00     0.177 HD
ENDBRANCH  36  39
ENDBRANCH  33  36
ENDBRANCH  30  33
ENDBRANCH   7  30
ENDBRANCH   4   7
ENDBRANCH   1   3
BRANCH   1  48
ATOM     48  CB  MLZ d   1      50.060  30.471  32.875  0.00  0.00    -0.038 C 
ATOM     49  H25 MLZ d   1      49.776  30.309  33.925  0.00  0.00     0.036 H 
ATOM     50  H26 MLZ d   1      49.481  29.794  32.230  0.00  0.00     0.036 H 
BRANCH  48  51
ATOM     51  CG  MLZ d   1      49.774  31.909  32.488  0.00  0.00    -0.061 C 
ATOM     52  H27 MLZ d   1      49.778  32.005  31.392  0.00  0.00     0.033 H 
ATOM     53  H28 MLZ d   1      50.544  32.567  32.916  0.00  0.00     0.033 H 
BRANCH  51  54
ATOM     54  CD  MLZ d   1      48.418  32.298  33.026  0.00  0.00    -0.043 C 
ATOM     55  H29 MLZ d   1      48.528  32.713  34.039  0.00  0.00     0.035 H 
ATOM     56  H30 MLZ d   1      47.767  31.412  33.061  0.00  0.00     0.035 H 
BRANCH  54  57
ATOM     57  CE  MLZ d   1      47.811  33.337  32.116  0.00  0.00     0.081 C 
ATOM     58  H31 MLZ d   1      47.748  32.931  31.096  0.00  0.00     0.075 H 
ATOM     59  H32 MLZ d   1      48.448  34.234  32.115  0.00  0.00     0.075 H 
BRANCH  57  60
ATOM     60  NZ  MLZ d   1      46.488  33.696  32.566  0.00  0.00    -0.079 N 
ATOM     61  H33 MLZ d   1      46.502  33.669  33.574  0.00  0.00     0.276 HD
ATOM     62  H34 MLZ d   1      45.858  32.989  32.220  0.00  0.00     0.276 HD
BRANCH  60  63
ATOM     63  CM  MLZ d   1      45.935  34.979  32.185  0.00  0.00     0.065 C 
ATOM     64  H35 MLZ d   1      44.927  35.085  32.612  0.00  0.00     0.067 H 
ATOM     65  H36 MLZ d   1      45.877  35.042  31.088  0.00  0.00     0.067 H 
ATOM     66  H37 MLZ d   1      46.581  35.784  32.565  0.00  0.00     0.067 H 
ENDBRANCH  60  63
ENDBRANCH  57  60
ENDBRANCH  54  57
ENDBRANCH  51  54
ENDBRANCH  48  51
ENDBRANCH   1  48
BRANCH   1  67
ATOM     67  C   MLZ d   1      52.043  29.204  33.697  0.00  0.00     0.241 C 
ATOM     68  O   MLZ d   1      51.672  28.026  33.700  0.00  0.00    -0.271 OA
ATOM     69  N   VAL d   1      52.931  29.692  34.544  0.00  0.00    -0.346 N 
ATOM     70  H38 VAL d   1      53.200  30.652  34.464  0.00  0.00     0.163 HD
BRANCH  69  71
ATOM     71  CA  VAL d   1      53.525  28.882  35.582  0.00  0.00     0.092 C 
ATOM     72  H39 VAL d   1      53.683  27.867  35.187  0.00  0.00     0.088 H 
BRANCH  71  73
ATOM     73  C   VAL d   1      52.529  28.781  36.751  0.00  0.00     0.241 C 
ATOM     74  O   VAL d   1      51.664  29.649  36.905  0.00  0.00    -0.271 OA
ATOM     75  N   LEU d   1      52.627  27.711  37.540  0.00  0.00    -0.346 N 
ATOM     76  H47 LEU d   1      53.325  27.023  37.343  0.00  0.00     0.163 HD
BRANCH  75  77
ATOM     77  CA  LEU d   1      51.742  27.519  38.683  0.00  0.00     0.089 C 
ATOM     78  H48 LEU d   1      50.703  27.544  38.321  0.00  0.00     0.087 H 
BRANCH  77  79
ATOM     79  C   LEU d   1      51.923  28.653  39.689  0.00  0.00     0.241 C 
ATOM     80  O   LEU d   1      53.041  29.042  40.006  0.00  0.00    -0.271 OA
ATOM     81  N   ARG d   1      50.811  29.198  40.169  0.00  0.00    -0.345 N 
ATOM     82  H58 ARG d   1      49.926  28.838  39.875  0.00  0.00     0.163 HD
BRANCH  81  83
ATOM     83  CA  ARG d   1      50.848  30.309  41.114  0.00  0.00     0.096 C 
ATOM     84  H59 ARG d   1      51.892  30.411  41.444  0.00  0.00     0.089 H 
BRANCH  83  85
ATOM     85  C   ARG d   1      50.019  30.063  42.367  0.00  0.00     0.196 C 
ATOM     86  O   ARG d   1      48.948  29.454  42.349  0.00  0.00    -0.646 OA
ATOM     87  OXT ARG d   1      50.446  30.458  43.448  0.00  0.00    -0.646 OA
ENDBRANCH  83  85
BRANCH  83  88
ATOM     88  CB  ARG d   1      50.468  31.614  40.426  0.00  0.00    -0.035 C 
ATOM     89  H60 ARG d   1      50.327  32.394  41.189  0.00  0.00     0.036 H 
ATOM     90  H61 ARG d   1      49.528  31.468  39.873  0.00  0.00     0.036 H 
BRANCH  88  91
ATOM     91  CG  ARG d   1      51.543  32.057  39.461  0.00  0.00    -0.047 C 
ATOM     92  H62 ARG d   1      51.622  31.312  38.655  0.00  0.00     0.035 H 
ATOM     93  H63 ARG d   1      52.499  32.116  40.001  0.00  0.00     0.035 H 
BRANCH  91  94
ATOM     94  CD  ARG d   1      51.253  33.392  38.853  0.00  0.00     0.009 C 
ATOM     95  H64 ARG d   1      50.429  33.870  39.403  0.00  0.00     0.064 H 
ATOM     96  H65 ARG d   1      50.962  33.256  37.801  0.00  0.00     0.064 H 
BRANCH  94  97
ATOM     97  NE  ARG d   1      52.436  34.246  38.920  0.00  0.00    -0.227 N 
ATOM     98  CZ  ARG d   1      53.361  34.355  37.969  0.00  0.00     0.665 C 
ATOM     99  NH1 ARG d   1      53.264  33.669  36.836  0.00  0.00    -0.235 N 
ATOM    100  NH2 ARG d   1      54.390  35.169  38.157  0.00  0.00    -0.235 N 
ATOM    101  H67 ARG d   1      53.989  33.766  36.111  0.00  0.00     0.174 HD
ATOM    102  H68 ARG d   1      52.463  33.040  36.682  0.00  0.00     0.174 HD
ATOM    103  H69 ARG d   1      54.470  35.703  39.034  0.00  0.00     0.174 HD
ATOM    104  H70 ARG d   1      55.109  35.267  37.426  0.00  0.00     0.174 HD
ATOM    105  H66 ARG d   1      52.565  34.810  39.772  0.00  0.00     0.177 HD
ENDBRANCH  94  97
ENDBRANCH  91  94
ENDBRANCH  88  91
ENDBRANCH  83  88
ENDBRANCH  81  83
ENDBRANCH  77  79
BRANCH  77 106
ATOM    106  CB  LEU d   1      51.983  26.157  39.340  0.00  0.00    -0.035 C 
ATOM    107  H49 LEU d   1      53.062  26.079  39.540  0.00  0.00     0.037 H 
ATOM    108  H50 LEU d   1      51.689  25.388  38.611  0.00  0.00     0.037 H 
BRANCH 106 109
ATOM    109  CG  LEU d   1      51.256  25.840  40.649  0.00  0.00    -0.059 C 
ATOM    110  H51 LEU d   1      51.541  26.599  41.392  0.00  0.00     0.038 H 
BRANCH 109 111
ATOM    111  CD1 LEU d   1      49.747  25.900  40.467  0.00  0.00    -0.073 C 
ATOM    112  H52 LEU d   1      49.253  25.668  41.422  0.00  0.00     0.028 H 
ATOM    113  H53 LEU d   1      49.440  25.166  39.708  0.00  0.00     0.028 H 
ATOM    114  H54 LEU d   1      49.457  26.909  40.140  0.00  0.00     0.028 H 
ENDBRANCH 109 111
BRANCH 109 115
ATOM    115  CD2 LEU d   1      51.676  24.493  41.167  0.00  0.00    -0.073 C 
ATOM    116  H55 LEU d   1      52.769  24.472  41.291  0.00  0.00     0.028 H 
ATOM    117  H56 LEU d   1      51.373  23.714  40.452  0.00  0.00     0.028 H 
ATOM    118  H57 LEU d   1      51.193  24.307  42.138  0.00  0.00     0.028 H 
ENDBRANCH 109 115
ENDBRANCH 106 109
ENDBRANCH  77 106
ENDBRANCH  75  77
ENDBRANCH  71  73
BRANCH  71 119
ATOM    119  CB  VAL d   1      54.929  29.453  35.980  0.00  0.00    -0.033 C 
ATOM    120  H40 VAL d   1      55.356  29.934  35.088  0.00  0.00     0.042 H 
BRANCH 119 121
ATOM    121  CG1 VAL d   1      54.825  30.525  37.065  0.00  0.00    -0.071 C 
ATOM    122  H41 VAL d   1      55.831  30.896  37.312  0.00  0.00     0.028 H 
ATOM    123  H42 VAL d   1      54.363  30.093  37.965  0.00  0.00     0.028 H 
ATOM    124  H43 VAL d   1      54.207  31.358  36.699  0.00  0.00     0.028 H 
ENDBRANCH 119 121
BRANCH 119 125
ATOM    125  CG2 VAL d   1      55.862  28.326  36.381  0.00  0.00    -0.071 C 
ATOM    126  H44 VAL d   1      55.906  27.581  35.573  0.00  0.00     0.028 H 
ATOM    127  H45 VAL d   1      55.488  27.850  37.299  0.00  0.00     0.028 H 
ATOM    128  H46 VAL d   1      56.869  28.730  36.562  0.00  0.00     0.028 H 
ENDBRANCH 119 125
ENDBRANCH  71 119
ENDBRANCH  69  71
ENDBRANCH   1  67
TORSDOF 35
