REMARK WARNING: 32 MAX_TORS EXCEEDED!!!
REMARK  33 active torsions:
REMARK  status: ('A' for Active; 'I' for Inactive)
REMARK    1  A    between atoms: N_1  and  CA_2 
REMARK    2  A    between atoms: CA_2  and  C_3 
REMARK    3  A    between atoms: CA_2  and  CB_5 
REMARK       I    between atoms: C_3  and  N_7 
REMARK    4  A    between atoms: CB_5  and  OG_6 
REMARK    5  A    between atoms: N_7  and  CA_8 
REMARK    6  A    between atoms: CA_8  and  C_9 
REMARK    7  A    between atoms: CA_8  and  CB_11 
REMARK       I    between atoms: C_9  and  N_21 
REMARK    8  A    between atoms: CB_11  and  CG_12 
REMARK    9  A    between atoms: N_21  and  CA_22 
REMARK   10  A    between atoms: CA_22  and  C_23 
REMARK   11  A    between atoms: CA_22  and  CB_25 
REMARK       I    between atoms: C_23  and  N_28 
REMARK   12  A    between atoms: CB_25  and  CG1_26 
REMARK   13  A    between atoms: CB_25  and  CG2_27 
REMARK   14  A    between atoms: N_28  and  CA_29 
REMARK   15  A    between atoms: CA_29  and  C_30 
REMARK   16  A    between atoms: CA_29  and  CB_32 
REMARK       I    between atoms: C_30  and  N_40 
REMARK   17  A    between atoms: CB_32  and  CG_33 
REMARK   18  A    between atoms: CZ_38  and  OH_39 
REMARK   19  A    between atoms: N_40  and  CA_41 
REMARK   20  A    between atoms: CA_41  and  C_42 
REMARK   21  A    between atoms: CA_41  and  CB_44 
REMARK       I    between atoms: C_42  and  N_46 
REMARK   22  A    between atoms: CB_44  and  OG_45 
REMARK   23  A    between atoms: CA_47  and  C_48 
REMARK       I    between atoms: C_48  and  N_53 
REMARK   24  A    between atoms: N_53  and  CA_54 
REMARK   25  A    between atoms: CA_54  and  C_55 
REMARK   26  A    between atoms: CA_54  and  CB_57 
REMARK       I    between atoms: C_55  and  N_61 
REMARK   27  A    between atoms: CB_57  and  CG_58 
REMARK   28  A    between atoms: CG_58  and  CD1_59 
REMARK   29  A    between atoms: CG_58  and  CD2_60 
REMARK   30  A    between atoms: N_61  and  CA_62 
REMARK   31  A    between atoms: CA_62  and  C_63 
REMARK   32  A    between atoms: CA_62  and  CB_65 
REMARK   33  A    between atoms: CB_65  and  CG_66 
ROOT
ATOM      1  CA  TYR d   1      59.450  -1.523  -0.471  0.00  0.00     0.093 C 
ATOM      2  H   TYR d   1      58.813  -2.382  -0.259  0.00  0.00     0.088 H 
ENDROOT
BRANCH   1   3
ATOM      3  N   TYR d   1      60.781  -2.036  -0.765  0.00  0.00    -0.346 N 
ATOM      4  C   VAL d   1      60.967  -3.060  -1.595  0.00  0.00     0.241 C 
ATOM      5  O   VAL d   1      60.039  -3.645  -2.161  0.00  0.00    -0.271 OA
ATOM      6  H   TYR d   1      61.591  -1.600  -0.324  0.00  0.00     0.163 HD
BRANCH   4   7
ATOM      7  CA  VAL d   1      62.417  -3.493  -1.822  0.00  0.00     0.092 C 
ATOM      8  H   VAL d   1      63.044  -3.160  -0.995  0.00  0.00     0.088 H 
BRANCH   7   9
ATOM      9  N   VAL d   1      62.496  -4.947  -1.876  0.00  0.00    -0.346 N 
ATOM     10  C   TRP d   1      62.611  -5.718  -0.790  0.00  0.00     0.241 C 
ATOM     11  O   TRP d   1      62.776  -5.289   0.363  0.00  0.00    -0.271 OA
ATOM     12  H   VAL d   1      62.462  -5.400  -2.789  0.00  0.00     0.163 HD
BRANCH  10  13
ATOM     13  CA  TRP d   1      62.526  -7.211  -1.086  0.00  0.00     0.093 C 
ATOM     14  H   TRP d   1      63.503  -7.450  -1.506  0.00  0.00     0.088 H 
BRANCH  13  15
ATOM     15  N   TRP d   1      62.406  -8.130   0.034  0.00  0.00    -0.346 N 
ATOM     16  C   SER d   1      63.357  -9.019   0.316  0.00  0.00     0.251 C 
ATOM     17  O   SER d   1      64.541  -8.859   0.020  0.00  0.00    -0.271 OA
ATOM     18  H   TRP d   1      61.572  -8.093   0.619  0.00  0.00     0.163 HD
BRANCH  16  19
ATOM     19  CA  SER d   1      62.898 -10.265   1.066  0.00  0.00     0.195 C 
ATOM     20  H   SER d   1      61.859 -10.444   0.790  0.00  0.00     0.102 H 
BRANCH  19  21
ATOM     21  N   SER d   1      63.678 -11.469   0.663  0.00  0.00    -0.064 N 
ATOM     22  H   SER d   1      63.626 -11.584  -0.349  0.00  0.00     0.275 HD
ATOM     23  H   SER d   1      64.652 -11.351   0.943  0.00  0.00     0.275 HD
ATOM     24  H   SER d   1      63.289 -12.293   1.120  0.00  0.00     0.275 HD
ENDBRANCH  19  21
BRANCH  19  25
ATOM     25  CB  SER d   1      62.948 -10.054   2.573  0.00  0.00     0.051 C 
ATOM     26  H   SER d   1      62.382  -9.158   2.828  0.00  0.00     0.077 H 
ATOM     27  H   SER d   1      63.986  -9.941   2.885  0.00  0.00     0.077 H 
BRANCH  25  28
ATOM     28  OG  SER d   1      62.379 -11.172   3.241  0.00  0.00    -0.398 OA
ATOM     29  H   SER d   1      62.415 -11.029   4.190  0.00  0.00     0.209 HD
ENDBRANCH  25  28
ENDBRANCH  19  25
ENDBRANCH  16  19
ENDBRANCH  13  15
BRANCH  13  30
ATOM     30  CB  TRP d   1      61.361  -7.444  -2.034  0.00  0.00    -0.012 C 
ATOM     31  H   TRP d   1      60.890  -6.481  -2.230  0.00  0.00     0.044 H 
ATOM     32  H   TRP d   1      60.681  -8.154  -1.563  0.00  0.00     0.044 H 
BRANCH  30  33
ATOM     33  CG  TRP d   1      61.788  -8.013  -3.327  0.00  0.00    -0.028 A 
ATOM     34  CD1 TRP d   1      62.385  -7.343  -4.362  0.00  0.00    -0.015 A 
ATOM     35  NE1 TRP d   1      62.628  -8.207  -5.399  0.00  0.00    -0.365 N 
ATOM     36  H   TRP d   1      62.630  -6.281  -4.362  0.00  0.00     0.112 H 
ATOM     37  CE2 TRP d   1      62.184  -9.458  -5.048  0.00  0.00     0.042 A 
ATOM     38  H   TRP d   1      63.067  -7.960  -6.286  0.00  0.00     0.165 HD
ATOM     39  CD2 TRP d   1      61.651  -9.370  -3.746  0.00  0.00    -0.002 A 
ATOM     40  CZ2 TRP d   1      62.207 -10.660  -5.765  0.00  0.00    -0.056 A 
ATOM     41  CE3 TRP d   1      61.126 -10.520  -3.150  0.00  0.00    -0.070 A 
ATOM     42  CZ3 TRP d   1      61.148 -11.703  -3.856  0.00  0.00    -0.082 A 
ATOM     43  H   TRP d   1      60.707 -10.482  -2.145  0.00  0.00     0.084 H 
ATOM     44  CH2 TRP d   1      61.686 -11.769  -5.149  0.00  0.00    -0.081 A 
ATOM     45  H   TRP d   1      60.739 -12.605  -3.401  0.00  0.00     0.083 H 
ATOM     46  H   TRP d   1      61.690 -12.723  -5.676  0.00  0.00     0.083 H 
ATOM     47  H   TRP d   1      62.622 -10.712  -6.772  0.00  0.00     0.086 H 
ENDBRANCH  30  33
ENDBRANCH  13  30
ENDBRANCH  10  13
ENDBRANCH   7   9
BRANCH   7  48
ATOM     48  CB  VAL d   1      62.946  -2.837  -3.136  0.00  0.00    -0.033 C 
ATOM     49  H   VAL d   1      63.499  -1.936  -2.870  0.00  0.00     0.042 H 
BRANCH  48  50
ATOM     50  CG1 VAL d   1      63.907  -3.780  -3.859  0.00  0.00    -0.071 C 
ATOM     51  H   VAL d   1      64.753  -4.003  -3.209  0.00  0.00     0.028 H 
ATOM     52  H   VAL d   1      63.387  -4.705  -4.110  0.00  0.00     0.028 H 
ATOM     53  H   VAL d   1      64.264  -3.303  -4.772  0.00  0.00     0.028 H 
ENDBRANCH  48  50
BRANCH  48  54
ATOM     54  CG2 VAL d   1      61.792  -2.414  -4.041  0.00  0.00    -0.071 C 
ATOM     55  H   VAL d   1      61.197  -3.289  -4.302  0.00  0.00     0.028 H 
ATOM     56  H   VAL d   1      61.167  -1.691  -3.517  0.00  0.00     0.028 H 
ATOM     57  H   VAL d   1      62.191  -1.960  -4.948  0.00  0.00     0.028 H 
ENDBRANCH  48  54
ENDBRANCH   7  48
ENDBRANCH   4   7
ENDBRANCH   1   3
BRANCH   1  58
ATOM     58  C   TYR d   1      58.836  -0.785  -1.656  0.00  0.00     0.241 C 
ATOM     59  O   TYR d   1      59.545  -0.290  -2.524  0.00  0.00    -0.271 OA
ATOM     60  N   SER d   1      57.508  -0.736  -1.684  0.00  0.00    -0.344 N 
ATOM     61  H   SER d   1      56.986  -1.286  -1.001  0.00  0.00     0.163 HD
BRANCH  60  62
ATOM     62  CA  SER d   1      56.762   0.067  -2.646  0.00  0.00     0.109 C 
ATOM     63  H   SER d   1      57.471   0.651  -3.233  0.00  0.00     0.090 H 
BRANCH  62  64
ATOM     64  C   SER d   1      55.801   0.969  -1.896  0.00  0.00     0.245 C 
ATOM     65  O   SER d   1      55.427   0.666  -0.760  0.00  0.00    -0.271 OA
ATOM     66  N   PRO d   1      55.384   2.080  -2.532  0.00  0.00    -0.337 N 
ATOM     67  CA  PRO d   1      54.385   2.933  -1.899  0.00  0.00     0.091 C 
ATOM     68  CD  PRO d   1      55.694   2.509  -3.906  0.00  0.00    -0.001 C 
ATOM     69  CB  PRO d   1      54.118   4.018  -2.948  0.00  0.00    -0.036 C 
ATOM     70  H   PRO d   1      54.694   3.352  -0.941  0.00  0.00     0.087 H 
ATOM     71  CG  PRO d   1      55.217   3.912  -3.932  0.00  0.00    -0.048 C 
ATOM     72  H   PRO d   1      54.089   5.008  -2.494  0.00  0.00     0.036 H 
ATOM     73  H   PRO d   1      53.147   3.877  -3.423  0.00  0.00     0.036 H 
ATOM     74  H   PRO d   1      56.026   4.597  -3.679  0.00  0.00     0.035 H 
ATOM     75  H   PRO d   1      54.867   4.180  -4.929  0.00  0.00     0.035 H 
ATOM     76  H   PRO d   1      55.215   1.886  -4.662  0.00  0.00     0.064 H 
ATOM     77  H   PRO d   1      56.753   2.418  -4.149  0.00  0.00     0.064 H 
BRANCH  67  78
ATOM     78  C   PRO d   1      53.133   2.101  -1.674  0.00  0.00     0.241 C 
ATOM     79  O   PRO d   1      52.782   1.281  -2.520  0.00  0.00    -0.271 OA
ATOM     80  N   LEU d   1      52.448   2.296  -0.569  0.00  0.00    -0.346 N 
ATOM     81  H   LEU d   1      52.757   3.000   0.101  0.00  0.00     0.163 HD
BRANCH  80  82
ATOM     82  CA  LEU d   1      51.265   1.523  -0.299  0.00  0.00     0.089 C 
ATOM     83  H   LEU d   1      51.543   0.470  -0.250  0.00  0.00     0.087 H 
BRANCH  82  84
ATOM     84  C   LEU d   1      50.254   1.717  -1.388  0.00  0.00     0.241 C 
ATOM     85  O   LEU d   1      49.630   0.775  -1.829  0.00  0.00    -0.271 OA
ATOM     86  N   HIS d   1      50.071   2.958  -1.802  0.00  0.00    -0.344 N 
ATOM     87  H   HIS d   1      50.559   3.718  -1.328  0.00  0.00     0.163 HD
BRANCH  86  88
ATOM     88  CA  HIS d   1      49.193   3.265  -2.914  0.00  0.00     0.101 C 
ATOM     89  H   HIS d   1      48.768   2.328  -3.273  0.00  0.00     0.090 H 
BRANCH  88  90
ATOM     90  C   HIS d   1      49.968   3.938  -4.019  0.00  0.00     0.197 C 
ATOM     91  O   HIS d   1      50.174   3.362  -5.068  0.00  0.00    -0.646 OA
ATOM     92  OXT HIS d   1      50.404   5.080  -3.877  0.00  0.00    -0.646 OA
ENDBRANCH  88  90
BRANCH  88  93
ATOM     93  CB  HIS d   1      48.080   4.192  -2.475  0.00  0.00     0.005 C 
ATOM     94  H   HIS d   1      47.353   4.234  -3.286  0.00  0.00     0.046 H 
ATOM     95  H   HIS d   1      48.533   5.155  -2.240  0.00  0.00     0.046 H 
BRANCH  93  96
ATOM     96  CG  HIS d   1      47.359   3.732  -1.257  0.00  0.00     0.053 A 
ATOM     97  ND1 HIS d   1      47.601   4.260  -0.010  0.00  0.00    -0.247 NA
ATOM     98  CE1 HIS d   1      46.820   3.669   0.872  0.00  0.00     0.064 A 
ATOM     99  NE2 HIS d   1      46.076   2.784   0.238  0.00  0.00    -0.359 N 
ATOM    100  H   HIS d   1      46.794   3.876   1.942  0.00  0.00     0.143 H 
ATOM    101  CD2 HIS d   1      46.394   2.805  -1.094  0.00  0.00     0.002 A 
ATOM    102  H   HIS d   1      45.376   2.181   0.670  0.00  0.00     0.166 HD
ATOM    103  H   HIS d   1      45.950   2.188  -1.875  0.00  0.00     0.114 H 
ENDBRANCH  93  96
ENDBRANCH  88  93
ENDBRANCH  86  88
ENDBRANCH  82  84
BRANCH  82 104
ATOM    104  CB  LEU d   1      50.663   1.956   1.011  0.00  0.00    -0.035 C 
ATOM    105  H   LEU d   1      50.128   2.887   0.825  0.00  0.00     0.037 H 
ATOM    106  H   LEU d   1      51.481   2.042   1.726  0.00  0.00     0.037 H 
BRANCH 104 107
ATOM    107  CG  LEU d   1      49.670   0.983   1.590  0.00  0.00    -0.059 C 
ATOM    108  H   LEU d   1      48.710   1.021   1.076  0.00  0.00     0.038 H 
BRANCH 107 109
ATOM    109  CD1 LEU d   1      50.267  -0.338   1.470  0.00  0.00    -0.073 C 
ATOM    110  H   LEU d   1      50.458  -0.555   0.419  0.00  0.00     0.028 H 
ATOM    111  H   LEU d   1      51.206  -0.363   2.024  0.00  0.00     0.028 H 
ATOM    112  H   LEU d   1      49.583  -1.083   1.878  0.00  0.00     0.028 H 
ENDBRANCH 107 109
BRANCH 107 113
ATOM    113  CD2 LEU d   1      49.464   1.312   3.000  0.00  0.00    -0.073 C 
ATOM    114  H   LEU d   1      50.413   1.236   3.532  0.00  0.00     0.028 H 
ATOM    115  H   LEU d   1      49.080   2.329   3.082  0.00  0.00     0.028 H 
ATOM    116  H   LEU d   1      48.746   0.615   3.433  0.00  0.00     0.028 H 
ENDBRANCH 107 113
ENDBRANCH 104 107
ENDBRANCH  82 104
ENDBRANCH  80  82
ENDBRANCH  67  78
ENDBRANCH  62  64
BRANCH  62 117
ATOM    117  CB  SER d   1      55.950  -0.822  -3.578  0.00  0.00     0.044 C 
ATOM    118  H   SER d   1      55.162  -0.223  -4.033  0.00  0.00     0.077 H 
ATOM    119  H   SER d   1      55.531  -1.645  -2.999  0.00  0.00     0.077 H 
BRANCH 117 120
ATOM    120  OG  SER d   1      56.759  -1.356  -4.601  0.00  0.00    -0.398 OA
ATOM    121  H   SER d   1      56.224  -1.911  -5.173  0.00  0.00     0.209 HD
ENDBRANCH 117 120
ENDBRANCH  62 117
ENDBRANCH  60  62
ENDBRANCH   1  58
BRANCH   1 122
ATOM    122  CB  TYR d   1      59.500  -0.605   0.744  0.00  0.00    -0.014 C 
ATOM    123  H   TYR d   1      58.539  -0.093   0.803  0.00  0.00     0.043 H 
ATOM    124  H   TYR d   1      60.350   0.064   0.610  0.00  0.00     0.043 H 
BRANCH 122 125
ATOM    125  CG  TYR d   1      59.702  -1.330   2.051  0.00  0.00    -0.056 A 
ATOM    126  CD1 TYR d   1      58.638  -1.979   2.681  0.00  0.00    -0.074 A 
ATOM    127  CE1 TYR d   1      58.811  -2.643   3.887  0.00  0.00    -0.051 A 
ATOM    128  H   TYR d   1      57.652  -1.964   2.216  0.00  0.00     0.084 H 
ATOM    129  CZ  TYR d   1      60.057  -2.664   4.480  0.00  0.00     0.065 A 
ATOM    130  H   TYR d   1      57.968  -3.145   4.363  0.00  0.00     0.087 H 
ATOM    131  CE2 TYR d   1      61.131  -2.023   3.877  0.00  0.00    -0.051 A 
ATOM    132  CD2 TYR d   1      60.947  -1.358   2.669  0.00  0.00    -0.074 A 
ATOM    133  H   TYR d   1      62.114  -2.041   4.348  0.00  0.00     0.087 H 
ATOM    134  H   TYR d   1      61.791  -0.852   2.200  0.00  0.00     0.084 H 
BRANCH 129 135
ATOM    135  OH  TYR d   1      60.225  -3.316   5.683  0.00  0.00    -0.361 OA
ATOM    136  H   TYR d   1      59.389  -3.701   5.956  0.00  0.00     0.217 HD
ENDBRANCH 129 135
ENDBRANCH 122 125
ENDBRANCH   1 122
TORSDOF 33
