REMARK  21 active torsions:
REMARK  status: ('A' for Active; 'I' for Inactive)
REMARK    1  A    between atoms: C2_2  and  C1_1 
REMARK    2  A    between atoms: C1_1  and  C7_7 
REMARK       I    between atoms: N16_16  and  C2_2 
REMARK    3  A    between atoms: C4_4  and  C12_12 
REMARK    4  A    between atoms: C17_17  and  N16_16 
REMARK    5  A    between atoms: C18_18  and  C17_17 
REMARK    6  A    between atoms: C17_17  and  C20_20 
REMARK       I    between atoms: N29_22  and  C18_18 
REMARK    7  A    between atoms: C20_20  and  SG2_53 
REMARK    8  A    between atoms: SG2_53  and  C22_21 
REMARK    9  A    between atoms: C30_23  and  N29_22 
REMARK   10  A    between atoms: C30_23  and  C31_24 
REMARK   11  A    between atoms: C38_31  and  C30_23 
REMARK   12  A    between atoms: C31_24  and  C32_25 
REMARK   13  A    between atoms: C32_25  and  C33_26 
REMARK   14  A    between atoms: C33_26  and  N34_27 
REMARK       I    between atoms: N34_27  and  C35_28 
REMARK       I    between atoms: C35_28  and  N36_29 
REMARK       I    between atoms: C35_28  and  N37_30 
REMARK       I    between atoms: N40_33  and  C38_31 
REMARK   15  A    between atoms: C41_34  and  N40_33 
REMARK   16  A    between atoms: C42_35  and  C41_34 
REMARK   17  A    between atoms: C41_34  and  C44_37 
REMARK       I    between atoms: N60_52  and  C42_35 
REMARK   18  A    between atoms: C44_37  and  C45_38 
REMARK   19  A    between atoms: C58_50  and  C52_44 
REMARK   20  A    between atoms: C59_51  and  C58_50 
REMARK   21  A    between atoms: C59_51  and  N60_52 
ROOT
ATOM      1  C30 NSZ d   1      -5.234  -1.155 -38.814  0.00  0.00     0.077 C 
ATOM      2  H20 NSZ d   1      -6.024  -1.659 -38.238  0.00  0.00     0.085 H 
ENDROOT
BRANCH   1   3
ATOM      3  N29 NSZ d   1      -4.961  -2.321 -39.489  0.00  0.00    -0.347 N 
ATOM      4  C18 NSZ d   1      -4.169  -2.403 -40.616  0.00  0.00     0.241 C 
ATOM      5  O19 NSZ d   1      -3.623  -1.324 -41.093  0.00  0.00    -0.271 OA
ATOM      6  H19 NSZ d   1      -5.364  -3.167 -39.140  0.00  0.00     0.163 HD
BRANCH   4   7
ATOM      7  C17 NSZ d   1      -3.857  -3.570 -41.443  0.00  0.00     0.097 C 
ATOM      8  H13 NSZ d   1      -3.472  -4.094 -40.555  0.00  0.00     0.088 H 
BRANCH   7   9
ATOM      9  N16 NSZ d   1      -4.772  -4.590 -41.672  0.00  0.00    -0.347 N 
ATOM     10  C2  NSZ d   1      -5.873  -4.378 -42.413  0.00  0.00     0.222 C 
ATOM     11  O3  NSZ d   1      -6.060  -3.254 -42.904  0.00  0.00    -0.273 OA
ATOM     12  H12 NSZ d   1      -4.609  -5.495 -41.280  0.00  0.00     0.163 HD
BRANCH  10  13
ATOM     13  C1  NSZ d   1      -6.820  -5.203 -42.725  0.00  0.00     0.033 C 
ATOM     14  H1  NSZ d   1      -7.394  -4.704 -43.520  0.00  0.00     0.054 H 
ATOM     15  H2  NSZ d   1      -7.443  -5.289 -41.822  0.00  0.00     0.054 H 
BRANCH  13  16
ATOM     16  C7  NSZ d   1      -6.613  -6.607 -43.203  0.00  0.00    -0.049 A 
ATOM     17  C6  NSZ d   1      -7.433  -7.685 -42.484  0.00  0.00    -0.076 A 
ATOM     18  C5  NSZ d   1      -7.244  -9.083 -42.907  0.00  0.00    -0.072 A 
ATOM     19  H4  NSZ d   1      -8.127  -7.427 -41.692  0.00  0.00     0.084 H 
ATOM     20  C4  NSZ d   1      -6.255  -9.469 -44.041  0.00  0.00    -0.026 A 
ATOM     21  H3  NSZ d   1      -7.811  -9.864 -42.413  0.00  0.00     0.084 H 
ATOM     22  C9  NSZ d   1      -5.477  -8.334 -44.722  0.00  0.00    -0.072 A 
ATOM     23  C8  NSZ d   1      -5.646  -6.926 -44.314  0.00  0.00    -0.076 A 
ATOM     24  H6  NSZ d   1      -4.786  -8.573 -45.523  0.00  0.00     0.084 H 
ATOM     25  H5  NSZ d   1      -5.086  -6.137 -44.803  0.00  0.00     0.084 H 
BRANCH  20  26
ATOM     26  C12 NSZ d   1      -6.073 -10.898 -44.452  0.00  0.00    -0.026 A 
ATOM     27  C11 NSZ d   1      -6.921 -11.973 -43.660  0.00  0.00    -0.072 A 
ATOM     28  C13 NSZ d   1      -6.795 -13.410 -44.011  0.00  0.00    -0.082 A 
ATOM     29  H8  NSZ d   1      -7.590 -11.662 -42.866  0.00  0.00     0.084 H 
ATOM     30  C10 NSZ d   1      -5.854 -13.881 -45.134  0.00  0.00    -0.083 A 
ATOM     31  H9  NSZ d   1      -7.378 -14.143 -43.465  0.00  0.00     0.083 H 
ATOM     32  C15 NSZ d   1      -5.035 -12.821 -45.893  0.00  0.00    -0.082 A 
ATOM     33  H7  NSZ d   1      -5.770 -14.932 -45.384  0.00  0.00     0.083 H 
ATOM     34  C14 NSZ d   1      -5.120 -11.337 -45.576  0.00  0.00    -0.072 A 
ATOM     35  H11 NSZ d   1      -4.371 -13.146 -46.686  0.00  0.00     0.083 H 
ATOM     36  H10 NSZ d   1      -4.529 -10.612 -46.124  0.00  0.00     0.084 H 
ENDBRANCH  20  26
ENDBRANCH  13  16
ENDBRANCH  10  13
ENDBRANCH   7   9
BRANCH   7  37
ATOM     37  C20 NSZ d   1      -2.580  -3.692 -42.103  0.00  0.00     0.003 C 
ATOM     38  H14 NSZ d   1      -1.836  -3.449 -41.330  0.00  0.00     0.052 H 
ATOM     39  H15 NSZ d   1      -2.581  -2.905 -42.872  0.00  0.00     0.052 H 
BRANCH  37  40
ATOM     40  SG2 NSZ d   1      -1.960  -5.084 -42.893  0.00  0.00    -0.171 SA
BRANCH  40  41
ATOM     41  C22 NSZ d   1      -1.026  -4.791 -44.332  0.00  0.00    -0.035 C 
ATOM     42  H16 NSZ d   1      -0.684  -5.750 -44.748  0.00  0.00     0.041 H 
ATOM     43  H17 NSZ d   1      -0.155  -4.167 -44.083  0.00  0.00     0.041 H 
ATOM     44  H18 NSZ d   1      -1.649  -4.271 -45.074  0.00  0.00     0.041 H 
ENDBRANCH  40  41
ENDBRANCH  37  40
ENDBRANCH   7  37
ENDBRANCH   4   7
ENDBRANCH   1   3
BRANCH   1  45
ATOM     45  C31 NSZ d   1      -6.309  -0.120 -39.365  0.00  0.00    -0.037 C 
ATOM     46  H21 NSZ d   1      -6.402   0.682 -38.618  0.00  0.00     0.036 H 
ATOM     47  H22 NSZ d   1      -7.266  -0.656 -39.448  0.00  0.00     0.036 H 
BRANCH  45  48
ATOM     48  C32 NSZ d   1      -6.022   0.601 -40.827  0.00  0.00    -0.048 C 
ATOM     49  H23 NSZ d   1      -6.982   0.971 -41.217  0.00  0.00     0.035 H 
ATOM     50  H24 NSZ d   1      -5.619  -0.163 -41.508  0.00  0.00     0.035 H 
BRANCH  48  51
ATOM     51  C33 NSZ d   1      -5.017   1.802 -40.801  0.00  0.00     0.009 C 
ATOM     52  H25 NSZ d   1      -4.093   1.395 -40.364  0.00  0.00     0.064 H 
ATOM     53  H26 NSZ d   1      -5.460   2.533 -40.108  0.00  0.00     0.064 H 
BRANCH  51  54
ATOM     54  N34 NSZ d   1      -4.576   2.594 -41.969  0.00  0.00    -0.227 N 
ATOM     55  C35 NSZ d   1      -4.334   2.122 -43.320  0.00  0.00     0.665 C 
ATOM     56  N36 NSZ d   1      -4.479   0.814 -43.784  0.00  0.00    -0.235 N 
ATOM     57  N37 NSZ d   1      -3.913   2.962 -44.316  0.00  0.00    -0.235 N 
ATOM     58  H28 NSZ d   1      -4.278   0.592 -44.770  0.00  0.00     0.174 HD
ATOM     59  H29 NSZ d   1      -4.787   0.071 -43.141  0.00  0.00     0.174 HD
ATOM     60  H30 NSZ d   1      -3.763   3.962 -44.117  0.00  0.00     0.174 HD
ATOM     61  H31 NSZ d   1      -3.747   2.594 -45.264  0.00  0.00     0.174 HD
ATOM     62  H27 NSZ d   1      -4.422   3.599 -41.805  0.00  0.00     0.177 HD
ENDBRANCH  51  54
ENDBRANCH  48  51
ENDBRANCH  45  48
ENDBRANCH   1  45
BRANCH   1  63
ATOM     63  C38 NSZ d   1      -4.474  -0.907 -37.577  0.00  0.00     0.175 C 
ATOM     64  O39 NSZ d   1      -5.235  -0.420 -36.598  0.00  0.00    -0.175 OA
ATOM     65  N40 NSZ d   1      -3.083  -1.188 -37.598  0.00  0.00    -0.357 N 
ATOM     66  H32 NSZ d   1      -2.613  -1.560 -38.398  0.00  0.00     0.162 HD
BRANCH  65  67
ATOM     67  C41 NSZ d   1      -2.426  -0.895 -36.388  0.00  0.00     0.092 C 
ATOM     68  H33 NSZ d   1      -3.081  -1.163 -35.546  0.00  0.00     0.088 H 
BRANCH  67  69
ATOM     69  C42 NSZ d   1      -2.242   0.686 -36.562  0.00  0.00     0.240 C 
ATOM     70  O43 NSZ d   1      -1.779   1.162 -37.666  0.00  0.00    -0.271 OA
ATOM     71  N60 NSZ d   1      -2.629   1.502 -35.363  0.00  0.00    -0.359 N 
ATOM     72  H50 NSZ d   1      -2.974   1.058 -34.536  0.00  0.00     0.162 HD
BRANCH  71  73
ATOM     73  C59 NSZ d   1      -2.494   2.946 -35.424  0.00  0.00    -0.001 C 
ATOM     74  H48 NSZ d   1      -2.418   3.319 -34.392  0.00  0.00     0.064 H 
ATOM     75  H49 NSZ d   1      -1.563   3.173 -35.965  0.00  0.00     0.064 H 
BRANCH  73  76
ATOM     76  C58 NSZ d   1      -3.491   3.613 -36.028  0.00  0.00    -0.026 C 
ATOM     77  H46 NSZ d   1      -3.183   4.668 -36.087  0.00  0.00     0.042 H 
ATOM     78  H47 NSZ d   1      -3.585   3.201 -37.044  0.00  0.00     0.042 H 
BRANCH  76  79
ATOM     79  C52 NSZ d   1      -4.884   3.588 -35.406  0.00  0.00    -0.057 A 
ATOM     80  C53 NSZ d   1      -5.060   3.814 -33.890  0.00  0.00    -0.077 A 
ATOM     81  C54 NSZ d   1      -6.416   3.801 -33.272  0.00  0.00    -0.082 A 
ATOM     82  H41 NSZ d   1      -4.189   3.984 -33.268  0.00  0.00     0.084 H 
ATOM     83  C55 NSZ d   1      -7.624   3.570 -34.128  0.00  0.00    -0.083 A 
ATOM     84  H42 NSZ d   1      -6.528   3.958 -32.205  0.00  0.00     0.083 H 
ATOM     85  C56 NSZ d   1      -7.458   3.347 -35.614  0.00  0.00    -0.082 A 
ATOM     86  H43 NSZ d   1      -8.613   3.563 -33.684  0.00  0.00     0.083 H 
ATOM     87  C57 NSZ d   1      -6.093   3.355 -36.251  0.00  0.00    -0.077 A 
ATOM     88  H44 NSZ d   1      -8.334   3.179 -36.230  0.00  0.00     0.083 H 
ATOM     89  H45 NSZ d   1      -5.989   3.192 -37.318  0.00  0.00     0.084 H 
ENDBRANCH  76  79
ENDBRANCH  73  76
ENDBRANCH  71  73
ENDBRANCH  67  69
BRANCH  67  90
ATOM     90  C44 NSZ d   1      -1.071  -1.383 -36.094  0.00  0.00    -0.014 C 
ATOM     91  H34 NSZ d   1      -0.494  -1.240 -37.020  0.00  0.00     0.043 H 
ATOM     92  H35 NSZ d   1      -1.178  -2.459 -35.891  0.00  0.00     0.043 H 
BRANCH  90  93
ATOM     93  C45 NSZ d   1      -0.287  -0.891 -35.087  0.00  0.00    -0.056 A 
ATOM     94  C46 NSZ d   1      -0.575  -1.368 -33.676  0.00  0.00    -0.077 A 
ATOM     95  C48 NSZ d   1       0.211  -0.869 -32.597  0.00  0.00    -0.082 A 
ATOM     96  H36 NSZ d   1      -1.370  -2.081 -33.490  0.00  0.00     0.084 H 
ATOM     97  C50 NSZ d   1       1.327   0.131 -32.857  0.00  0.00    -0.083 A 
ATOM     98  H38 NSZ d   1       0.012  -1.204 -31.585  0.00  0.00     0.083 H 
ATOM     99  C49 NSZ d   1       1.630   0.611 -34.222  0.00  0.00    -0.082 A 
ATOM    100  H40 NSZ d   1       1.913   0.500 -32.023  0.00  0.00     0.083 H 
ATOM    101  C47 NSZ d   1       0.917   0.168 -35.248  0.00  0.00    -0.077 A 
ATOM    102  H39 NSZ d   1       2.432   1.322 -34.383  0.00  0.00     0.083 H 
ATOM    103  H37 NSZ d   1       1.155   0.535 -36.240  0.00  0.00     0.084 H 
ENDBRANCH  90  93
ENDBRANCH  67  90
ENDBRANCH  65  67
ENDBRANCH   1  63
TORSDOF 21
