REMARK  10 active torsions:
REMARK  status: ('A' for Active; 'I' for Inactive)
REMARK    1  A    between atoms: C2_2  and  C1_1 
REMARK    2  A    between atoms: C2_2  and  C3_3 
REMARK    3  A    between atoms: C4_4  and  C2_2 
REMARK    4  A    between atoms: C5_5  and  C4_4 
REMARK    5  A    between atoms: N1_8  and  C5_5 
REMARK    6  A    between atoms: C12_17  and  C7_7 
REMARK    7  A    between atoms: C8_11  and  O2_12 
REMARK    8  A    between atoms: S2_22  and  C18_24 
REMARK    9  A    between atoms: N6_25  and  S2_22 
REMARK   10  A    between atoms: C17_26  and  N6_25 
ROOT
ATOM      1  C6  B5P d   1       8.978  -8.945 -12.463  0.00  0.00     0.254 C 
ATOM      2  C7  B5P d   1       9.585  -7.688 -12.966  0.00  0.00     0.125 C 
ATOM      3  N1  B5P d   1       9.109  -9.231 -11.089  0.00  0.00    -0.148 N 
ATOM      4  N2  B5P d   1      10.513  -7.342 -10.718  0.00  0.00    -0.162 N 
ATOM      5  O1  B5P d   1       8.303  -9.634 -13.229  0.00  0.00    -0.271 OA
ATOM      6  C8  B5P d   1      10.453  -6.973 -12.007  0.00  0.00     0.142 C 
ATOM      7  N3  B5P d   1      10.103  -8.613  -9.025  0.00  0.00    -0.075 NA
ATOM      8  C9  B5P d   1      11.153  -6.804  -9.672  0.00  0.00     0.017 A 
ATOM      9  C10 B5P d   1      10.899  -7.613  -8.605  0.00  0.00     0.036 A 
ATOM     10  C11 B5P d   1       9.880  -8.432 -10.323  0.00  0.00     0.713 A 
ATOM     11  H12 B5P d   1       8.703  -7.048 -12.821  0.00  0.00     0.073 H 
ATOM     12  H13 B5P d   1      11.321  -7.596 -12.268  0.00  0.00     0.121 H 
ATOM     13  H15 B5P d   1      11.758  -5.898  -9.674  0.00  0.00     0.114 H 
ATOM     14  H16 B5P d   1      11.274  -7.474  -7.592  0.00  0.00     0.117 H 
ENDROOT
BRANCH   2  15
ATOM     15  C12 B5P d   1       9.662  -7.493 -14.390  0.00  0.00     0.135 C 
ATOM     16  N4  B5P d   1      10.541  -6.575 -14.810  0.00  0.00    -0.145 NA
ATOM     17  S1  B5P d   1      10.780  -6.399 -16.389  0.00  0.00     0.287 S 
ATOM     18  C13 B5P d   1      10.194  -7.657 -17.247  0.00  0.00     0.110 A 
ATOM     19  O4  B5P d   1       9.978  -5.213 -16.736  0.00  0.00    -0.198 OA
ATOM     20  O3  B5P d   1      12.146  -6.255 -16.768  0.00  0.00    -0.198 OA
ATOM     21  C14 B5P d   1       9.405  -8.644 -16.524  0.00  0.00     0.057 A 
ATOM     22  C19 B5P d   1      10.361  -7.805 -18.637  0.00  0.00    -0.032 A 
ATOM     23  C15 B5P d   1       8.795  -9.657 -17.248  0.00  0.00    -0.053 A 
ATOM     24  N5  B5P d   1       9.187  -8.484 -15.192  0.00  0.00    -0.342 N 
ATOM     25  C16 B5P d   1       8.944  -9.788 -18.605  0.00  0.00    -0.054 A 
ATOM     26  H17 B5P d   1       8.176 -10.374 -16.721  0.00  0.00     0.087 H 
ATOM     27  C17 B5P d   1       9.743  -8.885 -19.309  0.00  0.00     0.043 A 
ATOM     28  H23 B5P d   1       8.442 -10.592 -19.131  0.00  0.00     0.087 H 
ATOM     29  H24 B5P d   1       8.595  -9.194 -14.738  0.00  0.00     0.167 HD
ATOM     30  H22 B5P d   1      10.962  -7.093 -19.191  0.00  0.00     0.089 H 
BRANCH  27  31
ATOM     31  N6  B5P d   1       9.864  -9.142 -20.638  0.00  0.00    -0.285 N 
ATOM     32  H21 B5P d   1       9.656 -10.080 -20.917  0.00  0.00     0.178 HD
BRANCH  31  33
ATOM     33  S2  B5P d   1      10.294  -8.148 -21.819  0.00  0.00     0.227 S 
ATOM     34  O6  B5P d   1       9.828  -8.735 -23.042  0.00  0.00    -0.206 OA
ATOM     35  O5  B5P d   1       9.750  -6.913 -21.446  0.00  0.00    -0.206 OA
BRANCH  33  36
ATOM     36  C18 B5P d   1      11.979  -8.091 -21.957  0.00  0.00     0.033 C 
ATOM     37  H18 B5P d   1      12.357  -9.082 -22.251  0.00  0.00     0.051 H 
ATOM     38  H19 B5P d   1      12.417  -7.804 -20.989  0.00  0.00     0.051 H 
ATOM     39  H20 B5P d   1      12.260  -7.351 -22.721  0.00  0.00     0.051 H 
ENDBRANCH  33  36
ENDBRANCH  31  33
ENDBRANCH  27  31
ENDBRANCH   2  15
BRANCH   6  40
ATOM     40  O2  B5P d   1      11.067  -5.858 -12.388  0.00  0.00    -0.374 OA
ATOM     41  H14 B5P d   1      10.937  -5.729 -13.320  0.00  0.00     0.212 HD
ENDBRANCH   6  40
BRANCH   3  42
ATOM     42  C5  B5P d   1       8.451 -10.425 -10.527  0.00  0.00     0.020 C 
ATOM     43  H10 B5P d   1       8.712 -11.300 -11.141  0.00  0.00     0.066 H 
ATOM     44  H11 B5P d   1       8.808 -10.579  -9.498  0.00  0.00     0.066 H 
BRANCH  42  45
ATOM     45  C4  B5P d   1       6.948 -10.269 -10.507  0.00  0.00    -0.046 C 
ATOM     46  H8  B5P d   1       6.601 -10.070 -11.532  0.00  0.00     0.035 H 
ATOM     47  H9  B5P d   1       6.502 -11.207 -10.145  0.00  0.00     0.035 H 
BRANCH  45  48
ATOM     48  C2  B5P d   1       6.490  -9.139  -9.614  0.00  0.00    -0.060 C 
ATOM     49  H4  B5P d   1       7.029  -8.229  -9.914  0.00  0.00     0.038 H 
BRANCH  48  50
ATOM     50  C1  B5P d   1       4.982  -8.896  -9.694  0.00  0.00    -0.073 C 
ATOM     51  H1  B5P d   1       4.708  -8.066  -9.026  0.00  0.00     0.028 H 
ATOM     52  H2  B5P d   1       4.447  -9.806  -9.386  0.00  0.00     0.028 H 
ATOM     53  H3  B5P d   1       4.706  -8.641 -10.728  0.00  0.00     0.028 H 
ENDBRANCH  48  50
BRANCH  48  54
ATOM     54  C3  B5P d   1       6.738  -9.422  -8.130  0.00  0.00    -0.073 C 
ATOM     55  H5  B5P d   1       7.809  -9.612  -7.967  0.00  0.00     0.028 H 
ATOM     56  H6  B5P d   1       6.158 -10.305  -7.823  0.00  0.00     0.028 H 
ATOM     57  H7  B5P d   1       6.425  -8.552  -7.534  0.00  0.00     0.028 H 
ENDBRANCH  48  54
ENDBRANCH  45  48
ENDBRANCH  42  45
ENDBRANCH   3  42
TORSDOF 10
