REMARK  8 active torsions:
REMARK  status: ('A' for Active; 'I' for Inactive)
REMARK    1  A    between atoms: CAV_8  and  OAW_9 
REMARK    2  A    between atoms: CAR_13  and  NAS_12 
REMARK    3  A    between atoms: CBA_15  and  OBB_16 
REMARK    4  A    between atoms: OBB_16  and  CBC_17 
REMARK    5  A    between atoms: NAN_21  and  CAO_20 
REMARK    6  A    between atoms: NAN_21  and  C2_22 
REMARK    7  A    between atoms: NBG_23  and  CBH_24 
REMARK    8  A    between atoms: NAE_29  and  CAF_30 
ROOT
ATOM      1  C4  92M d   1       1.609  20.611  45.904  0.00  0.00     0.174 A 
ATOM      2  C5  92M d   1       1.879  21.936  45.624  0.00  0.00     0.102 A 
ATOM      3  C6  92M d   1       1.269  22.926  46.381  0.00  0.00     0.051 A 
ATOM      4  N1  92M d   1       0.448  22.569  47.345  0.00  0.00    -0.073 NA
ATOM      5  N3  92M d   1       0.764  20.312  46.893  0.00  0.00    -0.043 NA
ATOM      6  C2  92M d   1       0.197  21.274  47.616  0.00  0.00     0.728 A 
ATOM      7  NBG 92M d   1       2.678  22.416  44.683  0.00  0.00    -0.318 N 
ATOM      8  CAB 92M d   1       2.832  21.859  43.487  0.00  0.00     0.225 C 
ATOM      9  OAA 92M d   1       3.615  22.374  42.677  0.00  0.00    -0.273 OA
ATOM     10  CAC 92M d   1       2.074  20.629  43.108  0.00  0.00     0.025 C 
ATOM     11  CAD 92M d   1       2.603  19.457  43.937  0.00  0.00     0.005 C 
ATOM     12  NAE 92M d   1       2.055  19.514  45.292  0.00  0.00    -0.358 N 
ATOM     13  H   92M d   1       1.466  23.979  46.181  0.00  0.00     0.119 H 
ATOM     14  H   92M d   1       2.207  20.423  42.046  0.00  0.00     0.049 H 
ATOM     15  H   92M d   1       1.011  20.772  43.303  0.00  0.00     0.049 H 
ATOM     16  H   92M d   1       3.690  19.516  43.987  0.00  0.00     0.065 H 
ATOM     17  H   92M d   1       2.301  18.521  43.468  0.00  0.00     0.065 H 
ENDROOT
BRANCH   6  18
ATOM     18  NAN 92M d   1      -0.622  20.975  48.621  0.00  0.00    -0.185 N 
ATOM     19  H   92M d   1      -1.179  21.727  49.027  0.00  0.00     0.184 HD
BRANCH  18  20
ATOM     20  CAO 92M d   1      -0.757  19.748  49.128  0.00  0.00     0.082 A 
ATOM     21  CBA 92M d   1      -0.765  19.586  50.515  0.00  0.00     0.097 A 
ATOM     22  CAZ 92M d   1      -0.955  18.330  51.102  0.00  0.00    -0.023 A 
ATOM     23  CAR 92M d   1      -1.128  17.214  50.281  0.00  0.00     0.033 A 
ATOM     24  H   92M d   1      -0.968  18.224  52.187  0.00  0.00     0.091 H 
ATOM     25  CAQ 92M d   1      -1.122  17.380  48.897  0.00  0.00    -0.055 A 
ATOM     26  CAP 92M d   1      -0.954  18.640  48.317  0.00  0.00    -0.052 A 
ATOM     27  H   92M d   1      -1.251  16.509  48.254  0.00  0.00     0.087 H 
ATOM     28  H   92M d   1      -0.978  18.752  47.233  0.00  0.00     0.087 H 
BRANCH  21  29
ATOM     29  OBB 92M d   1      -0.574  20.693  51.257  0.00  0.00    -0.354 OA
BRANCH  29  30
ATOM     30  CBC 92M d   1      -0.649  20.483  52.649  0.00  0.00     0.010 C 
ATOM     31  H   92M d   1      -1.635  20.096  52.904  0.00  0.00     0.066 H 
ATOM     32  H   92M d   1       0.114  19.764  52.948  0.00  0.00     0.066 H 
ATOM     33  H   92M d   1      -0.483  21.427  53.167  0.00  0.00     0.066 H 
ENDBRANCH  29  30
ENDBRANCH  21  29
BRANCH  23  34
ATOM     34  NAS 92M d   1      -1.291  15.940  50.822  0.00  0.00    -0.381 N 
ATOM     35  CAT 92M d   1      -1.492  15.729  52.268  0.00  0.00    -0.003 C 
ATOM     36  CAU 92M d   1      -0.951  14.324  52.550  0.00  0.00    -0.026 C 
ATOM     37  H   92M d   1      -0.975  16.484  52.860  0.00  0.00     0.064 H 
ATOM     38  H   92M d   1      -2.543  15.818  52.544  0.00  0.00     0.064 H 
ATOM     39  CAV 92M d   1      -1.918  13.292  51.924  0.00  0.00     0.038 C 
ATOM     40  H   92M d   1      -0.878  14.162  53.625  0.00  0.00     0.039 H 
ATOM     41  H   92M d   1       0.043  14.214  52.116  0.00  0.00     0.039 H 
ATOM     42  CAX 92M d   1      -2.145  13.624  50.430  0.00  0.00    -0.026 C 
ATOM     43  H   92M d   1      -2.865  13.352  52.460  0.00  0.00     0.083 H 
ATOM     44  CAY 92M d   1      -1.233  14.757  49.932  0.00  0.00    -0.003 C 
ATOM     45  H   92M d   1      -3.179  13.948  50.312  0.00  0.00     0.039 H 
ATOM     46  H   92M d   1      -1.918  12.730  49.849  0.00  0.00     0.039 H 
ATOM     47  H   92M d   1      -1.570  15.057  48.940  0.00  0.00     0.064 H 
ATOM     48  H   92M d   1      -0.207  14.390  49.916  0.00  0.00     0.064 H 
BRANCH  39  49
ATOM     49  OAW 92M d   1      -1.423  11.946  52.062  0.00  0.00    -0.395 OA
ATOM     50  H   92M d   1      -1.320  11.738  52.993  0.00  0.00     0.210 HD
ENDBRANCH  39  49
ENDBRANCH  23  34
ENDBRANCH  18  20
ENDBRANCH   6  18
BRANCH  12  51
ATOM     51  CAF 92M d   1       1.830  18.195  45.935  0.00  0.00     0.013 C 
ATOM     52  CAG 92M d   1       3.062  17.288  45.828  0.00  0.00    -0.046 C 
ATOM     53  CAH 92M d   1       2.532  15.876  45.736  0.00  0.00    -0.063 C 
ATOM     54  H   92M d   1       3.717  17.409  46.691  0.00  0.00     0.036 H 
ATOM     55  H   92M d   1       3.665  17.541  44.956  0.00  0.00     0.036 H 
ATOM     56  CAI 92M d   1       1.141  15.993  45.152  0.00  0.00    -0.063 C 
ATOM     57  H   92M d   1       2.511  15.396  46.715  0.00  0.00     0.033 H 
ATOM     58  H   92M d   1       3.172  15.253  45.112  0.00  0.00     0.033 H 
ATOM     59  CAJ 92M d   1       0.785  17.487  45.130  0.00  0.00    -0.046 C 
ATOM     60  H   92M d   1       0.423  15.435  45.753  0.00  0.00     0.033 H 
ATOM     61  H   92M d   1       1.110  15.575  44.146  0.00  0.00     0.033 H 
ATOM     62  H   92M d   1       0.763  17.864  44.108  0.00  0.00     0.036 H 
ATOM     63  H   92M d   1      -0.206  17.654  45.551  0.00  0.00     0.036 H 
ATOM     64  H   92M d   1       1.572  18.372  46.979  0.00  0.00     0.072 H 
ENDBRANCH  12  51
BRANCH   7  65
ATOM     65  CBH 92M d   1       3.469  23.624  44.978  0.00  0.00    -0.011 C 
ATOM     66  H   92M d   1       4.531  23.389  44.904  0.00  0.00     0.057 H 
ATOM     67  H   92M d   1       3.218  24.405  44.261  0.00  0.00     0.057 H 
ATOM     68  H   92M d   1       3.242  23.968  45.987  0.00  0.00     0.057 H 
ENDBRANCH   7  65
TORSDOF 8
