REMARK  5 active torsions:
REMARK  status: ('A' for Active; 'I' for Inactive)
REMARK    1  A    between atoms: N1_1  and  C1'_10 
REMARK    2  A    between atoms: C3'_12  and  O3'_14 
REMARK    3  A    between atoms: C4'_13  and  C5'_16 
REMARK    4  A    between atoms: C5'_16  and  O5'_17 
REMARK    5  A    between atoms: O5'_17  and  P_18 
ROOT
ATOM      1  C1' UFP d   1      25.370 -10.402 102.215  0.00  0.00     0.116 C 
ATOM      2  C2' UFP d   1      26.521  -9.490 102.710  0.00  0.00     0.002 C 
ATOM      3  C3' UFP d   1      25.786  -8.599 103.766  0.00  0.00     0.066 C 
ATOM      4  C4' UFP d   1      24.348  -9.163 103.716  0.00  0.00     0.087 C 
ATOM      5  O4' UFP d   1      24.217  -9.553 102.328  0.00  0.00    -0.356 OA
ATOM      6  H3  UFP d   1      25.264 -11.243 102.916  0.00  0.00     0.118 H 
ATOM      7  H4  UFP d   1      26.933  -8.883 101.890  0.00  0.00     0.043 H 
ATOM      8  H5  UFP d   1      27.328 -10.078 103.173  0.00  0.00     0.043 H 
ATOM      9  H6  UFP d   1      25.817  -7.534 103.494  0.00  0.00     0.087 H 
ATOM     10  H7  UFP d   1      24.258 -10.043 104.369  0.00  0.00     0.090 H 
ENDROOT
BRANCH   1  11
ATOM     11  N1  UFP d   1      25.553 -11.003 100.859  0.00  0.00    -0.279 N 
ATOM     12  C2  UFP d   1      25.887 -10.255  99.736  0.00  0.00     0.331 A 
ATOM     13  N3  UFP d   1      26.031 -10.867  98.531  0.00  0.00    -0.273 N 
ATOM     14  O2  UFP d   1      26.035  -9.049  99.809  0.00  0.00    -0.246 OA
ATOM     15  C4  UFP d   1      25.871 -12.222  98.397  0.00  0.00     0.289 A 
ATOM     16  H1  UFP d   1      26.258 -10.318  97.727  0.00  0.00     0.173 HD
ATOM     17  C5  UFP d   1      25.532 -13.015  99.552  0.00  0.00     0.199 A 
ATOM     18  O4  UFP d   1      26.002 -12.764  97.314  0.00  0.00    -0.265 OA
ATOM     19  C6  UFP d   1      25.387 -12.382 100.753  0.00  0.00     0.029 A 
ATOM     20  F5  UFP d   1      25.364 -14.360  99.449  0.00  0.00    -0.199 F 
ATOM     21  H2  UFP d   1      25.138 -12.963 101.640  0.00  0.00     0.117 H 
ENDBRANCH   1  11
BRANCH   3  22
ATOM     22  O3' UFP d   1      26.354  -8.792 105.069  0.00  0.00    -0.393 OA
ATOM     23  H8  UFP d   1      27.236  -8.441 105.084  0.00  0.00     0.210 HD
ENDBRANCH   3  22
BRANCH   4  24
ATOM     24  C5' UFP d   1      23.298  -8.125 104.154  0.00  0.00     0.059 C 
ATOM     25  H9  UFP d   1      23.348  -7.256 103.482  0.00  0.00     0.079 H 
ATOM     26  H10 UFP d   1      23.515  -7.805 105.184  0.00  0.00     0.079 H 
BRANCH  24  27
ATOM     27  O5' UFP d   1      21.973  -8.685 104.103  0.00  0.00    -0.280 OA
BRANCH  27  28
ATOM     28  P   UFP d   1      20.882  -7.628 104.613  0.00  0.00     0.422 P 
ATOM     29  O1P UFP d   1      20.909  -6.314 103.718  0.00  0.00    -0.617 OA
ATOM     30  O2P UFP d   1      19.426  -8.266 104.527  0.00  0.00    -0.617 OA
ATOM     31  O3P UFP d   1      21.195  -7.234 106.118  0.00  0.00    -0.617 OA
ENDBRANCH  27  28
ENDBRANCH  24  27
ENDBRANCH   4  24
TORSDOF 5
