REMARK  9 active torsions:
REMARK  status: ('A' for Active; 'I' for Inactive)
REMARK    1  A    between atoms: O1_8  and  C1_1 
REMARK    2  A    between atoms: C2_2  and  O1_8 
REMARK    3  A    between atoms: C3_9  and  C2_2 
REMARK    4  A    between atoms: C9_4  and  O3_15 
REMARK    5  A    between atoms: O2_10  and  C3_9 
REMARK    6  A    between atoms: C4_11  and  O2_10 
REMARK    7  A    between atoms: O3_15  and  C10_16 
REMARK    8  A    between atoms: N4_24  and  C13_18 
REMARK    9  A    between atoms: C14_20  and  N3_23 
ROOT
ATOM      1  C6  9BD d   1      38.668 -14.340  12.897  0.00  0.00     0.070 A 
ATOM      2  C9  9BD d   1      37.655 -16.849  13.683  0.00  0.00     0.102 A 
ATOM      3  C12 9BD d   1      41.715 -16.366  12.015  0.00  0.00    -0.026 A 
ATOM      4  C15 9BD d   1      41.205 -14.015  11.851  0.00  0.00     0.038 A 
ATOM      5  C4  9BD d   1      36.866 -15.693  13.810  0.00  0.00     0.104 A 
ATOM      6  C5  9BD d   1      37.393 -14.463  13.417  0.00  0.00    -0.019 A 
ATOM      7  C7  9BD d   1      39.479 -15.480  12.761  0.00  0.00     0.007 A 
ATOM      8  C8  9BD d   1      38.940 -16.726  13.158  0.00  0.00    -0.035 A 
ATOM      9  C11 9BD d   1      40.795 -15.312  12.215  0.00  0.00    -0.004 A 
ATOM     10  C13 9BD d   1      42.972 -16.090  11.479  0.00  0.00     0.138 A 
ATOM     11  N1  9BD d   1      43.352 -14.835  11.133  0.00  0.00    -0.213 NA
ATOM     12  C14 9BD d   1      42.488 -13.821  11.321  0.00  0.00     0.136 A 
ATOM     13  C16 9BD d   1      40.303 -12.972  12.049  0.00  0.00     0.017 A 
ATOM     14  N2  9BD d   1      39.064 -13.111  12.552  0.00  0.00    -0.259 NA
ATOM     15  H6  9BD d   1      41.445 -17.383  12.277  0.00  0.00     0.090 H 
ATOM     16  H10 9BD d   1      36.782 -13.574  13.523  0.00  0.00     0.091 H 
ATOM     17  H11 9BD d   1      39.548 -17.617  13.050  0.00  0.00     0.089 H 
ATOM     18  H15 9BD d   1      40.624 -11.973  11.777  0.00  0.00     0.116 H 
ENDROOT
BRANCH   5  19
ATOM     19  O2  9BD d   1      35.613 -15.872  14.326  0.00  0.00    -0.346 OA
BRANCH  19  20
ATOM     20  C3  9BD d   1      34.770 -14.750  14.557  0.00  0.00     0.046 C 
ATOM     21  H8  9BD d   1      35.305 -14.006  15.165  0.00  0.00     0.078 H 
ATOM     22  H9  9BD d   1      34.483 -14.300  13.595  0.00  0.00     0.078 H 
BRANCH  20  23
ATOM     23  C2  9BD d   1      33.521 -15.211  15.298  0.00  0.00     0.039 C 
ATOM     24  H4  9BD d   1      33.544 -16.304  15.423  0.00  0.00     0.077 H 
ATOM     25  H5  9BD d   1      33.475 -14.730  16.286  0.00  0.00     0.077 H 
BRANCH  23  26
ATOM     26  O1  9BD d   1      32.380 -14.836  14.523  0.00  0.00    -0.394 OA
BRANCH  26  27
ATOM     27  C1  9BD d   1      31.633 -15.974  14.090  0.00  0.00     0.004 C 
ATOM     28  H1  9BD d   1      30.767 -15.641  13.499  0.00  0.00     0.066 H 
ATOM     29  H2  9BD d   1      31.283 -16.538  14.967  0.00  0.00     0.066 H 
ATOM     30  H3  9BD d   1      32.273 -16.619  13.470  0.00  0.00     0.066 H 
ENDBRANCH  26  27
ENDBRANCH  23  26
ENDBRANCH  20  23
ENDBRANCH  19  20
ENDBRANCH   5  19
BRANCH   2  31
ATOM     31  O3  9BD d   1      37.106 -18.042  14.076  0.00  0.00    -0.353 OA
BRANCH  31  32
ATOM     32  C10 9BD d   1      37.397 -19.203  13.305  0.00  0.00     0.010 C 
ATOM     33  H12 9BD d   1      36.887 -20.073  13.745  0.00  0.00     0.066 H 
ATOM     34  H13 9BD d   1      38.483 -19.378  13.301  0.00  0.00     0.066 H 
ATOM     35  H14 9BD d   1      37.046 -19.055  12.273  0.00  0.00     0.066 H 
ENDBRANCH  31  32
ENDBRANCH   2  31
BRANCH  10  36
ATOM     36  N4  9BD d   1      43.935 -17.126  11.289  0.00  0.00    -0.300 N 
ATOM     37  C17 9BD d   1      43.795 -18.503  11.297  0.00  0.00     0.004 A 
ATOM     38  C18 9BD d   1      45.060 -19.015  11.065  0.00  0.00     0.019 A 
ATOM     39  H18 9BD d   1      42.877 -19.068  11.454  0.00  0.00     0.114 H 
ATOM     40  N5  9BD d   1      45.984 -18.015  10.916  0.00  0.00    -0.254 NA
ATOM     41  H7  9BD d   1      45.291 -20.078  11.008  0.00  0.00     0.117 H 
ATOM     42  C19 9BD d   1      45.285 -16.903  11.056  0.00  0.00     0.071 A 
ATOM     43  H19 9BD d   1      45.725 -15.909  10.995  0.00  0.00     0.144 H 
ENDBRANCH  10  36
BRANCH  12  44
ATOM     44  N3  9BD d   1      42.946 -12.577  10.933  0.00  0.00    -0.383 N 
ATOM     45  H16 9BD d   1      43.896 -12.475  10.548  0.00  0.00     0.157 HD
ATOM     46  H17 9BD d   1      42.338 -11.751  11.029  0.00  0.00     0.157 HD
ENDBRANCH  12  44
TORSDOF 9
