REMARK  12 active torsions:
REMARK  status: ('A' for Active; 'I' for Inactive)
REMARK    1  A    between atoms: C17_9  and  C16_23 
REMARK    2  A    between atoms: N33_33  and  C17_9 
REMARK    3  A    between atoms: N35_35  and  C20_10 
REMARK    4  A    between atoms: C16_23  and  C21_11 
REMARK    5  A    between atoms: C26_14  and  N33_33 
REMARK    6  A    between atoms: C28_15  and  N35_35 
REMARK    7  A    between atoms: O36_36  and  C1_16 
REMARK    8  A    between atoms: O37_37  and  C2_17 
REMARK    9  A    between atoms: N34_34  and  C19_25 
REMARK   10  A    between atoms: C23_26  and  O36_36 
REMARK   11  A    between atoms: C25_27  and  O37_37 
REMARK   12  A    between atoms: C27_28  and  N34_34 
ROOT
ATOM      1  C26 2JZ d   1     -27.767  21.234   4.010  0.00  0.00     0.754 A 
ATOM      2  C28 2JZ d   1     -28.273  22.517   5.821  0.00  0.00     0.758 A 
ATOM      3  C27 2JZ d   1     -29.938  21.714   4.499  0.00  0.00     0.758 A 
ATOM      4  N30 2JZ d   1     -29.060  21.099   3.695  0.00  0.00     0.131 NA
ATOM      5  N31 2JZ d   1     -27.339  21.936   5.065  0.00  0.00     0.131 NA
ATOM      6  N32 2JZ d   1     -29.584  22.435   5.574  0.00  0.00     0.131 NA
ENDROOT
BRANCH   2   7
ATOM      7  N35 2JZ d   1     -27.793  23.239   6.919  0.00  0.00    -0.187 N 
ATOM      8  H26 2JZ d   1     -26.772  23.318   7.028  0.00  0.00     0.184 HD
BRANCH   7   9
ATOM      9  C20 2JZ d   1     -28.599  23.863   7.882  0.00  0.00     0.052 A 
ATOM     10  C10 2JZ d   1     -29.620  24.727   7.533  0.00  0.00    -0.054 A 
ATOM     11  C12 2JZ d   1     -30.393  25.329   8.504  0.00  0.00    -0.046 A 
ATOM     12  H6  2JZ d   1     -29.815  24.933   6.487  0.00  0.00     0.087 H 
ATOM     13  C23 2JZ d   1     -30.137  25.064   9.834  0.00  0.00     0.101 A 
ATOM     14  H20 2JZ d   1     -31.194  26.004   8.225  0.00  0.00     0.087 H 
ATOM     15  C25 2JZ d   1     -29.113  24.212  10.192  0.00  0.00     0.103 A 
ATOM     16  C15 2JZ d   1     -28.346  23.612   9.214  0.00  0.00    -0.022 A 
ATOM     17  H8  2JZ d   1     -27.542  22.941   9.494  0.00  0.00     0.091 H 
BRANCH  13  18
ATOM     18  O36 2JZ d   1     -30.882  25.648  10.845  0.00  0.00    -0.353 OA
BRANCH  18  19
ATOM     19  C1  2JZ d   1     -32.056  26.195  10.244  0.00  0.00     0.010 C 
ATOM     20  H11 2JZ d   1     -32.677  26.670  11.018  0.00  0.00     0.066 H 
ATOM     21  H12 2JZ d   1     -32.628  25.391   9.758  0.00  0.00     0.066 H 
ATOM     22  H13 2JZ d   1     -31.768  26.946   9.493  0.00  0.00     0.066 H 
ENDBRANCH  18  19
ENDBRANCH  13  18
BRANCH  15  23
ATOM     23  O37 2JZ d   1     -28.889  23.976  11.542  0.00  0.00    -0.353 OA
BRANCH  23  24
ATOM     24  C2  2JZ d   1     -27.830  23.028  11.666  0.00  0.00     0.010 C 
ATOM     25  H14 2JZ d   1     -27.639  22.829  12.731  0.00  0.00     0.066 H 
ATOM     26  H15 2JZ d   1     -26.919  23.432  11.199  0.00  0.00     0.066 H 
ATOM     27  H16 2JZ d   1     -28.115  22.092  11.164  0.00  0.00     0.066 H 
ENDBRANCH  23  24
ENDBRANCH  15  23
ENDBRANCH   7   9
ENDBRANCH   2   7
BRANCH   1  28
ATOM     28  N33 2JZ d   1     -26.820  20.604   3.182  0.00  0.00    -0.221 N 
ATOM     29  H24 2JZ d   1     -27.033  20.121   2.297  0.00  0.00     0.177 HD
BRANCH  28  30
ATOM     30  C17 2JZ d   1     -25.491  20.739   3.768  0.00  0.00     0.013 C 
ATOM     31  H9  2JZ d   1     -25.577  21.142   4.788  0.00  0.00     0.065 H 
ATOM     32  H10 2JZ d   1     -25.002  19.755   3.803  0.00  0.00     0.065 H 
BRANCH  30  33
ATOM     33  C16 2JZ d   1     -24.660  21.696   2.906  0.00  0.00    -0.023 C 
ATOM     34  H22 2JZ d   1     -25.333  22.361   2.345  0.00  0.00     0.042 H 
ATOM     35  H23 2JZ d   1     -24.048  21.114   2.201  0.00  0.00     0.042 H 
BRANCH  33  36
ATOM     36  C21 2JZ d   1     -23.765  22.518   3.781  0.00  0.00    -0.018 A 
ATOM     37  C6  2JZ d   1     -22.587  21.974   4.258  0.00  0.00    -0.074 A 
ATOM     38  C3  2JZ d   1     -21.753  22.728   5.061  0.00  0.00    -0.082 A 
ATOM     39  H3  2JZ d   1     -22.318  20.956   4.002  0.00  0.00     0.084 H 
ATOM     40  C4  2JZ d   1     -22.088  24.031   5.394  0.00  0.00    -0.080 A 
ATOM     41  H17 2JZ d   1     -20.830  22.297   5.433  0.00  0.00     0.083 H 
ATOM     42  C7  2JZ d   1     -23.261  24.581   4.922  0.00  0.00    -0.045 A 
ATOM     43  H1  2JZ d   1     -21.429  24.617   6.024  0.00  0.00     0.083 H 
ATOM     44  C24 2JZ d   1     -24.091  23.824   4.119  0.00  0.00     0.122 A 
ATOM     45  H4  2JZ d   1     -23.529  25.599   5.179  0.00  0.00     0.088 H 
ATOM     46  F38 2JZ d   1     -25.231  24.382   3.669  0.00  0.00    -0.206 F 
ENDBRANCH  33  36
ENDBRANCH  30  33
ENDBRANCH  28  30
ENDBRANCH   1  28
BRANCH   3  47
ATOM     47  N34 2JZ d   1     -31.289  21.564   4.150  0.00  0.00    -0.187 N 
ATOM     48  H25 2JZ d   1     -31.483  21.040   3.285  0.00  0.00     0.184 HD
BRANCH  47  49
ATOM     49  C19 2JZ d   1     -32.407  22.050   4.851  0.00  0.00     0.050 A 
ATOM     50  C9  2JZ d   1     -33.643  21.936   4.254  0.00  0.00    -0.054 A 
ATOM     51  C11 2JZ d   1     -34.777  22.386   4.890  0.00  0.00    -0.052 A 
ATOM     52  H18 2JZ d   1     -33.723  21.486   3.271  0.00  0.00     0.087 H 
ATOM     53  C22 2JZ d   1     -34.728  22.966   6.139  0.00  0.00     0.066 A 
ATOM     54  H19 2JZ d   1     -35.736  22.281   4.395  0.00  0.00     0.087 H 
ATOM     55  C18 2JZ d   1     -33.483  23.075   6.734  0.00  0.00    -0.005 A 
ATOM     56  N29 2JZ d   1     -35.853  23.394   6.730  0.00  0.00    -0.260 NA
ATOM     57  C8  2JZ d   1     -33.385  23.645   7.985  0.00  0.00    -0.069 A 
ATOM     58  C14 2JZ d   1     -32.342  22.625   6.102  0.00  0.00    -0.044 A 
ATOM     59  C5  2JZ d   1     -34.532  24.091   8.606  0.00  0.00    -0.065 A 
ATOM     60  H5  2JZ d   1     -32.422  23.741   8.473  0.00  0.00     0.085 H 
ATOM     61  C13 2JZ d   1     -35.727  23.944   7.940  0.00  0.00     0.003 A 
ATOM     62  H2  2JZ d   1     -34.494  24.544   9.590  0.00  0.00     0.085 H 
ATOM     63  H7  2JZ d   1     -36.626  24.299   8.431  0.00  0.00     0.114 H 
ATOM     64  H21 2JZ d   1     -31.382  22.725   6.596  0.00  0.00     0.088 H 
ENDBRANCH  47  49
ENDBRANCH   3  47
TORSDOF 12
