REMARK  4 active torsions:
REMARK  status: ('A' for Active; 'I' for Inactive)
REMARK    1  A    between atoms: C3_9  and  C9_10 
REMARK    2  A    between atoms: C14_12  and  N23_13 
REMARK    3  A    between atoms: C21_23  and  S24_24 
REMARK    4  A    between atoms: S24_24  and  C27_27 
ROOT
ATOM      1  C9  677 d   1      38.604  50.722  36.288  0.00  0.00     0.010 C 
ATOM      2  C10 677 d   1      39.635  49.863  37.055  0.00  0.00    -0.001 C 
ATOM      3  C14 677 d   1      39.069  51.008  34.846  0.00  0.00     0.123 C 
ATOM      4  C13 677 d   1      40.433  51.717  34.786  0.00  0.00     0.028 C 
ATOM      5  N12 677 d   1      41.398  51.128  35.718  0.00  0.00    -0.331 N 
ATOM      6  C11 677 d   1      41.058  50.304  36.748  0.00  0.00     0.108 A 
ATOM      7  N18 677 d   1      42.165  49.942  37.451  0.00  0.00    -0.233 NA
ATOM      8  C29 677 d   1      42.735  51.323  35.722  0.00  0.00     0.065 A 
ATOM      9  C23 677 d   1      43.655  52.060  34.947  0.00  0.00    -0.053 A 
ATOM     10  C22 677 d   1      45.034  52.008  35.273  0.00  0.00    -0.060 A 
ATOM     11  C19 677 d   1      43.250  50.529  36.868  0.00  0.00     0.087 A 
ATOM     12  C20 677 d   1      44.622  50.528  37.146  0.00  0.00    -0.032 A 
ATOM     13  C21 677 d   1      45.529  51.259  36.364  0.00  0.00     0.061 A 
ATOM     14  H3  677 d   1      38.534  51.683  36.819  0.00  0.00     0.051 H 
ATOM     15  H4  677 d   1      39.515  48.810  36.760  0.00  0.00     0.045 H 
ATOM     16  H5  677 d   1      39.453  49.965  38.135  0.00  0.00     0.045 H 
ATOM     17  H6  677 d   1      39.165  50.045  34.323  0.00  0.00     0.087 H 
ATOM     18  H10 677 d   1      40.294  52.778  35.042  0.00  0.00     0.068 H 
ATOM     19  H11 677 d   1      40.831  51.636  33.764  0.00  0.00     0.068 H 
ATOM     20  H12 677 d   1      43.312  52.659  34.112  0.00  0.00     0.087 H 
ATOM     21  H13 677 d   1      45.735  52.564  34.662  0.00  0.00     0.085 H 
ATOM     22  H14 677 d   1      44.992  49.949  37.985  0.00  0.00     0.089 H 
ENDROOT
BRANCH   1  23
ATOM     23  C3  677 d   1      37.213  50.136  36.234  0.00  0.00    -0.010 A 
ATOM     24  C2  677 d   1      36.093  50.916  36.547  0.00  0.00     0.126 A 
ATOM     25  C1  677 d   1      34.785  50.407  36.480  0.00  0.00    -0.005 A 
ATOM     26  F22 677 d   1      36.257  52.178  36.947  0.00  0.00    -0.205 F 
ATOM     27  C6  677 d   1      34.609  49.084  36.090  0.00  0.00     0.157 A 
ATOM     28  H1  677 d   1      33.934  51.031  36.727  0.00  0.00     0.093 H 
ATOM     29  F27 677 d   1      33.386  48.536  36.017  0.00  0.00    -0.203 F 
ATOM     30  C5  677 d   1      35.715  48.308  35.762  0.00  0.00     0.155 A 
ATOM     31  F21 677 d   1      35.514  47.044  35.379  0.00  0.00    -0.203 F 
ATOM     32  C4  677 d   1      37.008  48.821  35.821  0.00  0.00    -0.033 A 
ATOM     33  H2  677 d   1      37.853  48.199  35.547  0.00  0.00     0.089 H 
ENDBRANCH   1  23
BRANCH   3  34
ATOM     34  N23 677 d   1      38.058  51.818  34.153  0.00  0.00    -0.073 N 
ATOM     35  H7  677 d   1      38.364  52.004  33.211  0.00  0.00     0.274 HD
ATOM     36  H8  677 d   1      37.932  52.690  34.643  0.00  0.00     0.274 HD
ATOM     37  H9  677 d   1      37.184  51.316  34.130  0.00  0.00     0.274 HD
ENDBRANCH   3  34
BRANCH  13  38
ATOM     38  S24 677 d   1      47.133  51.237  36.715  0.00  0.00     0.172 S 
ATOM     39  O26 677 d   1      47.885  51.031  35.509  0.00  0.00    -0.223 OA
ATOM     40  O25 677 d   1      47.437  52.573  37.194  0.00  0.00    -0.223 OA
BRANCH  38  41
ATOM     41  C27 677 d   1      47.506  50.138  37.875  0.00  0.00     0.020 C 
ATOM     42  H15 677 d   1      48.588  50.165  38.071  0.00  0.00     0.049 H 
ATOM     43  H16 677 d   1      47.220  49.132  37.533  0.00  0.00     0.049 H 
ATOM     44  H17 677 d   1      46.960  50.380  38.799  0.00  0.00     0.049 H 
ENDBRANCH  38  41
ENDBRANCH  13  38
TORSDOF 4
