REMARK  2 active torsions:
REMARK  status: ('A' for Active; 'I' for Inactive)
REMARK    1  A    between atoms: C3_6  and  C9_10 
REMARK    2  A    between atoms: C14_11  and  N23_12 
ROOT
ATOM      1  C9  361 d   1      38.636  50.713  36.189  0.00  0.00     0.010 C 
ATOM      2  C14 361 d   1      39.068  51.087  34.760  0.00  0.00     0.123 C 
ATOM      3  C13 361 d   1      40.378  51.880  34.785  0.00  0.00     0.028 C 
ATOM      4  N12 361 d   1      41.370  51.181  35.612  0.00  0.00    -0.331 N 
ATOM      5  C29 361 d   1      42.693  51.393  35.582  0.00  0.00     0.067 A 
ATOM      6  C19 361 d   1      43.271  50.488  36.596  0.00  0.00     0.103 A 
ATOM      7  N18 361 d   1      42.217  49.826  37.172  0.00  0.00    -0.232 NA
ATOM      8  C11 361 d   1      41.079  50.248  36.562  0.00  0.00     0.108 A 
ATOM      9  C10 361 d   1      39.667  49.781  36.880  0.00  0.00    -0.001 C 
ATOM     10  C20 361 d   1      44.658  50.499  36.779  0.00  0.00     0.032 A 
ATOM     11  N21 361 d   1      45.422  51.309  36.024  0.00  0.00    -0.271 NA
ATOM     12  C22 361 d   1      44.919  52.148  35.079  0.00  0.00     0.004 A 
ATOM     13  C23 361 d   1      43.538  52.220  34.837  0.00  0.00    -0.038 A 
ATOM     14  H3  361 d   1      38.587  51.640  36.780  0.00  0.00     0.051 H 
ATOM     15  H4  361 d   1      39.242  50.153  34.205  0.00  0.00     0.087 H 
ATOM     16  H8  361 d   1      40.191  52.879  35.206  0.00  0.00     0.068 H 
ATOM     17  H9  361 d   1      40.764  51.980  33.760  0.00  0.00     0.068 H 
ATOM     18  H10 361 d   1      39.532  48.752  36.514  0.00  0.00     0.045 H 
ATOM     19  H11 361 d   1      39.511  49.807  37.968  0.00  0.00     0.045 H 
ATOM     20  H12 361 d   1      45.114  49.858  37.525  0.00  0.00     0.118 H 
ATOM     21  H13 361 d   1      45.595  52.771  34.504  0.00  0.00     0.114 H 
ATOM     22  H14 361 d   1      43.138  52.899  34.092  0.00  0.00     0.089 H 
ENDROOT
BRANCH   1  23
ATOM     23  C3  361 d   1      37.256  50.118  36.155  0.00  0.00    -0.010 A 
ATOM     24  C4  361 d   1      37.043  48.811  35.730  0.00  0.00    -0.033 A 
ATOM     25  C5  361 d   1      35.744  48.295  35.715  0.00  0.00     0.155 A 
ATOM     26  H1  361 d   1      37.878  48.197  35.413  0.00  0.00     0.089 H 
ATOM     27  F21 361 d   1      35.533  47.031  35.305  0.00  0.00    -0.203 F 
ATOM     28  C6  361 d   1      34.664  49.076  36.098  0.00  0.00     0.157 A 
ATOM     29  F27 361 d   1      33.430  48.558  36.055  0.00  0.00    -0.203 F 
ATOM     30  C1  361 d   1      34.861  50.394  36.507  0.00  0.00    -0.005 A 
ATOM     31  C2  361 d   1      36.159  50.897  36.527  0.00  0.00     0.126 A 
ATOM     32  H2  361 d   1      34.022  51.014  36.803  0.00  0.00     0.093 H 
ATOM     33  F22 361 d   1      36.353  52.149  36.932  0.00  0.00    -0.205 F 
ENDBRANCH   1  23
BRANCH   2  34
ATOM     34  N23 361 d   1      38.033  51.846  34.054  0.00  0.00    -0.073 N 
ATOM     35  H5  361 d   1      38.355  52.070  33.126  0.00  0.00     0.274 HD
ATOM     36  H6  361 d   1      37.839  52.698  34.557  0.00  0.00     0.274 HD
ATOM     37  H7  361 d   1      37.193  51.293  33.994  0.00  0.00     0.274 HD
ENDBRANCH   2  34
TORSDOF 2
