REMARK WARNING: 32 MAX_TORS EXCEEDED!!!
REMARK  36 active torsions:
REMARK  status: ('A' for Active; 'I' for Inactive)
REMARK    1  A    between atoms: C_1  and  CH3_3 
REMARK       I    between atoms: C_1  and  N_4 
REMARK    2  A    between atoms: N_4  and  CA_5 
REMARK    3  A    between atoms: CA_5  and  C1_6 
REMARK    4  A    between atoms: CA_5  and  CB_8 
REMARK       I    between atoms: C1_6  and  N1_11 
REMARK    5  A    between atoms: CB_8  and  OG1_9 
REMARK    6  A    between atoms: CB_8  and  CG2_10 
REMARK    7  A    between atoms: N1_11  and  CA1_12 
REMARK    8  A    between atoms: CA1_12  and  C2_13 
REMARK    9  A    between atoms: CA1_12  and  CB1_15 
REMARK       I    between atoms: C2_13  and  N2_19 
REMARK   10  A    between atoms: CB1_15  and  CG1_16 
REMARK   11  A    between atoms: CB1_15  and  CG21_17 
REMARK   12  A    between atoms: CG1_16  and  CD1_18 
REMARK   13  A    between atoms: N2_19  and  CA2_20 
REMARK   14  A    between atoms: CA2_20  and  C3_21 
REMARK   15  A    between atoms: CA2_20  and  CB2_22 
REMARK   16  A    between atoms: C3_21  and  N3_26 
REMARK   17  A    between atoms: CB2_22  and  CG_23 
REMARK   18  A    between atoms: CG_23  and  CD_24 
REMARK   19  A    between atoms: CD_24  and  CE_25 
REMARK   20  A    between atoms: N3_26  and  CA3_27 
REMARK   21  A    between atoms: CA3_27  and  C4_28 
REMARK   22  A    between atoms: CA3_27  and  CB3_30 
REMARK       I    between atoms: C4_28  and  N4_34 
REMARK   23  A    between atoms: CB3_30  and  CG3_31 
REMARK   24  A    between atoms: CG3_31  and  CD2_32 
REMARK   25  A    between atoms: CD2_32  and  CE1_33 
REMARK   26  A    between atoms: N4_34  and  CA4_35 
REMARK   27  A    between atoms: CA4_35  and  C5_36 
REMARK   28  A    between atoms: CA4_35  and  CB4_38 
REMARK       I    between atoms: C5_36  and  N5_43 
REMARK   29  A    between atoms: CB4_38  and  CG4_39 
REMARK   30  A    between atoms: CG4_39  and  CD3_40 
REMARK       I    between atoms: CD3_40  and  NE2_42 
REMARK   31  A    between atoms: N5_43  and  CA5_44 
REMARK   32  A    between atoms: CA5_44  and  C6_45 
REMARK   33  A    between atoms: CA5_44  and  CB5_47 
REMARK       I    between atoms: C6_45  and  N6_54 
REMARK   34  A    between atoms: CB5_47  and  CG5_48 
REMARK   35  A    between atoms: CG5_48  and  CD4_49 
REMARK   36  A    between atoms: CD4_49  and  NE_50 
REMARK       I    between atoms: NE_50  and  CZ_51 
REMARK       I    between atoms: CZ_51  and  NH1_52 
ROOT
ATOM      1  N3  2NC d   1       5.757  -0.919  14.992  0.00  0.00    -0.060 N 
ATOM      2  H   2NC d   1       5.933  -1.681  14.337  0.00  0.00     0.278 HD
ATOM      3  H   2NC d   1       6.470  -0.799  15.711  0.00  0.00     0.278 HD
ENDROOT
BRANCH   1   4
ATOM      4  C3  2NC d   1       4.504  -1.235  15.684  0.00  0.00     0.101 C 
ATOM      5  H   2NC d   1       4.533  -0.796  16.681  0.00  0.00     0.078 H 
ATOM      6  H   2NC d   1       3.672  -0.831  15.107  0.00  0.00     0.078 H 
BRANCH   4   7
ATOM      7  CA2 2NC d   1       4.325  -2.734  15.815  0.00  0.00     0.035 C 
ATOM      8  H   2NC d   1       4.192  -3.144  14.814  0.00  0.00     0.075 H 
BRANCH   7   9
ATOM      9  N2  2NC d   1       5.523  -3.390  16.358  0.00  0.00    -0.353 N 
ATOM     10  C2  2NC d   1       6.286  -4.146  15.602  0.00  0.00     0.241 C 
ATOM     11  O2  2NC d   1       6.191  -4.153  14.374  0.00  0.00    -0.271 OA
ATOM     12  H   2NC d   1       5.766  -3.256  17.339  0.00  0.00     0.163 HD
BRANCH  10  13
ATOM     13  CA1 2NC d   1       7.355  -4.959  16.315  0.00  0.00     0.092 C 
ATOM     14  H   2NC d   1       7.624  -4.481  17.257  0.00  0.00     0.088 H 
BRANCH  13  15
ATOM     15  N1  2NC d   1       6.825  -6.259  16.615  0.00  0.00    -0.346 N 
ATOM     16  C1  2NC d   1       6.720  -6.743  17.842  0.00  0.00     0.243 C 
ATOM     17  O1  2NC d   1       6.994  -6.089  18.822  0.00  0.00    -0.271 OA
ATOM     18  H   2NC d   1       6.512  -6.842  15.839  0.00  0.00     0.163 HD
BRANCH  16  19
ATOM     19  CA  2NC d   1       6.150  -8.173  17.998  0.00  0.00     0.113 C 
ATOM     20  H   2NC d   1       5.269  -8.093  18.635  0.00  0.00     0.091 H 
BRANCH  19  21
ATOM     21  N   2NC d   1       5.648  -8.783  16.784  0.00  0.00    -0.346 N 
ATOM     22  C   2NC d   1       4.359  -9.051  16.579  0.00  0.00     0.214 C 
ATOM     23  O   2NC d   1       3.536  -8.663  17.391  0.00  0.00    -0.274 OA
ATOM     24  H   2NC d   1       6.315  -9.019  16.049  0.00  0.00     0.163 HD
BRANCH  22  25
ATOM     25  CH3 2NC d   1       4.038  -9.777  15.307  0.00  0.00    -0.003 C 
ATOM     26  H   2NC d   1       3.517 -10.705  15.541  0.00  0.00     0.040 H 
ATOM     27  H   2NC d   1       3.402  -9.149  14.682  0.00  0.00     0.040 H 
ATOM     28  H   2NC d   1       4.963 -10.003  14.776  0.00  0.00     0.040 H 
ENDBRANCH  22  25
ENDBRANCH  19  21
BRANCH  19  29
ATOM     29  CB  2NC d   1       7.244  -9.047  18.623  0.00  0.00     0.060 C 
ATOM     30  H   2NC d   1       7.596  -8.595  19.550  0.00  0.00     0.086 H 
BRANCH  29  31
ATOM     31  OG1 2NC d   1       8.337  -9.129  17.719  0.00  0.00    -0.393 OA
ATOM     32  H   2NC d   1       8.040  -9.520  16.894  0.00  0.00     0.210 HD
ENDBRANCH  29  31
BRANCH  29  33
ATOM     33  CG2 2NC d   1       6.691 -10.437  19.004  0.00  0.00    -0.050 C 
ATOM     34  H   2NC d   1       6.348 -10.949  18.105  0.00  0.00     0.031 H 
ATOM     35  H   2NC d   1       7.479 -11.022  19.479  0.00  0.00     0.031 H 
ATOM     36  H   2NC d   1       5.858 -10.318  19.696  0.00  0.00     0.031 H 
ENDBRANCH  29  33
ENDBRANCH  19  29
ENDBRANCH  16  19
ENDBRANCH  13  15
BRANCH  13  37
ATOM     37  CB1 2NC d   1       8.658  -5.007  15.496  0.00  0.00    -0.030 C 
ATOM     38  H   2NC d   1       8.368  -5.378  14.513  0.00  0.00     0.043 H 
BRANCH  37  39
ATOM     39  CG1 2NC d   1       9.690  -5.975  16.069  0.00  0.00    -0.063 C 
ATOM     40  H   2NC d   1      10.565  -5.859  15.430  0.00  0.00     0.033 H 
ATOM     41  H   2NC d   1       9.179  -6.937  16.105  0.00  0.00     0.033 H 
BRANCH  39  42
ATOM     42  CD1 2NC d   1      10.210  -5.759  17.482  0.00  0.00    -0.076 C 
ATOM     43  H   2NC d   1      10.690  -4.782  17.546  0.00  0.00     0.027 H 
ATOM     44  H   2NC d   1       9.378  -5.803  18.185  0.00  0.00     0.027 H 
ATOM     45  H   2NC d   1      10.934  -6.537  17.724  0.00  0.00     0.027 H 
ENDBRANCH  39  42
ENDBRANCH  37  39
BRANCH  37  46
ATOM     46  CG2 2NC d   1       9.276  -3.632  15.343  0.00  0.00    -0.071 C 
ATOM     47  H   2NC d   1       8.573  -2.974  14.832  0.00  0.00     0.028 H 
ATOM     48  H   2NC d   1       9.505  -3.226  16.328  0.00  0.00     0.028 H 
ATOM     49  H   2NC d   1      10.193  -3.710  14.759  0.00  0.00     0.028 H 
ENDBRANCH  37  46
ENDBRANCH  13  37
ENDBRANCH  10  13
ENDBRANCH   7   9
BRANCH   7  50
ATOM     50  CB2 2NC d   1       3.072  -3.058  16.606  0.00  0.00    -0.045 C 
ATOM     51  H   2NC d   1       2.232  -2.666  16.032  0.00  0.00     0.036 H 
ATOM     52  H   2NC d   1       3.208  -2.622  17.596  0.00  0.00     0.036 H 
BRANCH  50  53
ATOM     53  CG  2NC d   1       2.793  -4.558  16.822  0.00  0.00    -0.064 C 
ATOM     54  H   2NC d   1       1.812  -4.621  17.294  0.00  0.00     0.033 H 
ATOM     55  H   2NC d   1       3.631  -4.944  17.403  0.00  0.00     0.033 H 
BRANCH  53  56
ATOM     56  CD  2NC d   1       2.717  -5.415  15.562  0.00  0.00    -0.068 C 
ATOM     57  H   2NC d   1       2.481  -6.439  15.851  0.00  0.00     0.032 H 
ATOM     58  H   2NC d   1       3.676  -5.362  15.047  0.00  0.00     0.032 H 
BRANCH  56  59
ATOM     59  CE  2NC d   1       1.630  -4.913  14.620  0.00  0.00    -0.077 C 
ATOM     60  H   2NC d   1       0.666  -4.952  15.127  0.00  0.00     0.027 H 
ATOM     61  H   2NC d   1       1.849  -3.885  14.330  0.00  0.00     0.027 H 
ATOM     62  H   2NC d   1       1.601  -5.544  13.732  0.00  0.00     0.027 H 
ENDBRANCH  56  59
ENDBRANCH  53  56
ENDBRANCH  50  53
ENDBRANCH   7  50
ENDBRANCH   4   7
ENDBRANCH   1   4
BRANCH   1  63
ATOM     63  CA3 2NC d   1       5.731   0.348  14.190  0.00  0.00     0.178 C 
ATOM     64  H   2NC d   1       5.465   1.184  14.837  0.00  0.00     0.099 H 
BRANCH  63  65
ATOM     65  C4  2NC d   1       4.669   0.293  13.102  0.00  0.00     0.249 C 
ATOM     66  O3  2NC d   1       4.409  -0.740  12.499  0.00  0.00    -0.271 OA
ATOM     67  N4  2NC d   1       4.073   1.446  12.790  0.00  0.00    -0.346 N 
ATOM     68  H   2NC d   1       4.266   2.279  13.346  0.00  0.00     0.163 HD
BRANCH  67  69
ATOM     69  CA4 2NC d   1       3.149   1.528  11.663  0.00  0.00     0.090 C 
ATOM     70  H   2NC d   1       3.443   0.812  10.896  0.00  0.00     0.087 H 
BRANCH  69  71
ATOM     71  C5  2NC d   1       3.201   2.926  11.055  0.00  0.00     0.241 C 
ATOM     72  O4  2NC d   1       3.313   3.961  11.749  0.00  0.00    -0.271 OA
ATOM     73  N5  2NC d   1       3.139   2.967   9.732  0.00  0.00    -0.346 N 
ATOM     74  H   2NC d   1       3.013   2.097   9.215  0.00  0.00     0.163 HD
BRANCH  73  75
ATOM     75  CA5 2NC d   1       3.243   4.189   9.011  0.00  0.00     0.089 C 
ATOM     76  H   2NC d   1       3.154   5.015   9.717  0.00  0.00     0.087 H 
BRANCH  75  77
ATOM     77  C6  2NC d   1       2.150   4.328   8.012  0.00  0.00     0.238 C 
ATOM     78  O5  2NC d   1       1.833   3.360   7.304  0.00  0.00    -0.271 OA
ATOM     79  N6  2NC d   1       1.440   5.461   8.088  0.00  0.00    -0.368 N 
ATOM     80  H   2NC d   1       0.584   5.564   7.543  0.00  0.00     0.159 HD
ATOM     81  H   2NC d   1       1.756   6.221   8.690  0.00  0.00     0.159 HD
ENDBRANCH  75  77
BRANCH  75  82
ATOM     82  CB5 2NC d   1       4.571   4.238   8.320  0.00  0.00    -0.036 C 
ATOM     83  H   2NC d   1       4.520   5.033   7.576  0.00  0.00     0.036 H 
ATOM     84  H   2NC d   1       4.754   3.249   7.899  0.00  0.00     0.036 H 
BRANCH  82  85
ATOM     85  CG5 2NC d   1       5.732   4.557   9.240  0.00  0.00    -0.048 C 
ATOM     86  H   2NC d   1       5.471   4.319  10.271  0.00  0.00     0.035 H 
ATOM     87  H   2NC d   1       5.971   5.619   9.189  0.00  0.00     0.035 H 
BRANCH  85  88
ATOM     88  CD4 2NC d   1       6.912   3.738   8.801  0.00  0.00     0.009 C 
ATOM     89  H   2NC d   1       6.644   3.372   7.810  0.00  0.00     0.064 H 
ATOM     90  H   2NC d   1       7.070   3.023   9.608  0.00  0.00     0.064 H 
BRANCH  88  91
ATOM     91  NE  2NC d   1       8.198   4.386   8.622  0.00  0.00    -0.227 N 
ATOM     92  CZ  2NC d   1       8.444   5.497   7.908  0.00  0.00     0.665 C 
ATOM     93  NH1 2NC d   1       7.481   6.223   7.353  0.00  0.00    -0.235 N 
ATOM     94  NH2 2NC d   1       9.689   5.919   7.762  0.00  0.00    -0.235 N 
ATOM     95  H   2NC d   1       6.506   5.944   7.460  0.00  0.00     0.174 HD
ATOM     96  H   2NC d   1       7.716   7.060   6.819  0.00  0.00     0.174 HD
ATOM     97  H   2NC d   1      10.457   5.402   8.191  0.00  0.00     0.174 HD
ATOM     98  H   2NC d   1       9.882   6.762   7.221  0.00  0.00     0.174 HD
ATOM     99  H   2NC d   1       8.997   3.954   9.086  0.00  0.00     0.177 HD
ENDBRANCH  88  91
ENDBRANCH  85  88
ENDBRANCH  82  85
ENDBRANCH  75  82
ENDBRANCH  73  75
ENDBRANCH  69  71
BRANCH  69 100
ATOM    100  CB4 2NC d   1       1.760   1.181  12.114  0.00  0.00    -0.030 C 
ATOM    101  H   2NC d   1       1.518   1.870  12.923  0.00  0.00     0.037 H 
ATOM    102  H   2NC d   1       1.778   0.124  12.380  0.00  0.00     0.037 H 
BRANCH 100 103
ATOM    103  CG4 2NC d   1       0.652   1.345  11.058  0.00  0.00     0.011 C 
ATOM    104  H   2NC d   1      -0.175   0.708  11.372  0.00  0.00     0.047 H 
ATOM    105  H   2NC d   1       1.097   1.089  10.096  0.00  0.00     0.047 H 
BRANCH 103 106
ATOM    106  CD3 2NC d   1       0.096   2.739  10.920  0.00  0.00     0.215 C 
ATOM    107  OE1 2NC d   1       0.132   3.491  11.872  0.00  0.00    -0.274 OA
ATOM    108  NE2 2NC d   1      -0.434   3.077   9.749  0.00  0.00    -0.370 N 
ATOM    109  H   2NC d   1      -0.835   4.006   9.620  0.00  0.00     0.159 HD
ATOM    110  H   2NC d   1      -0.440   2.408   8.979  0.00  0.00     0.159 HD
ENDBRANCH 103 106
ENDBRANCH 100 103
ENDBRANCH  69 100
ENDBRANCH  67  69
ENDBRANCH  63  65
BRANCH  63 111
ATOM    111  CB3 2NC d   1       7.121   0.586  13.609  0.00  0.00    -0.030 C 
ATOM    112  H   2NC d   1       7.319  -0.273  12.968  0.00  0.00     0.036 H 
ATOM    113  H   2NC d   1       7.773   0.740  14.469  0.00  0.00     0.036 H 
BRANCH 111 114
ATOM    114  CG3 2NC d   1       7.320   1.804  12.726  0.00  0.00    -0.063 C 
ATOM    115  H   2NC d   1       8.214   2.335  13.053  0.00  0.00     0.033 H 
ATOM    116  H   2NC d   1       6.442   2.445  12.805  0.00  0.00     0.033 H 
BRANCH 114 117
ATOM    117  CD2 2NC d   1       7.499   1.386  11.262  0.00  0.00    -0.068 C 
ATOM    118  H   2NC d   1       7.778   2.309  10.754  0.00  0.00     0.032 H 
ATOM    119  H   2NC d   1       6.569   0.873  11.016  0.00  0.00     0.032 H 
BRANCH 117 120
ATOM    120  CE1 2NC d   1       8.603   0.382  10.854  0.00  0.00    -0.077 C 
ATOM    121  H   2NC d   1       9.578   0.786  11.126  0.00  0.00     0.027 H 
ATOM    122  H   2NC d   1       8.442  -0.563  11.372  0.00  0.00     0.027 H 
ATOM    123  H   2NC d   1       8.564   0.218   9.777  0.00  0.00     0.027 H 
ENDBRANCH 117 120
ENDBRANCH 114 117
ENDBRANCH 111 114
ENDBRANCH  63 111
ENDBRANCH   1  63
TORSDOF 36
