REMARK WARNING: 32 MAX_TORS EXCEEDED!!!
REMARK  36 active torsions:
REMARK  status: ('A' for Active; 'I' for Inactive)
REMARK    1  A    between atoms: C_1  and  CH3_3 
REMARK       I    between atoms: C_1  and  N_4 
REMARK    2  A    between atoms: N_4  and  CA_5 
REMARK    3  A    between atoms: CA_5  and  C1_6 
REMARK    4  A    between atoms: CA_5  and  CB_8 
REMARK       I    between atoms: C1_6  and  N1_11 
REMARK    5  A    between atoms: CB_8  and  OG1_9 
REMARK    6  A    between atoms: CB_8  and  CG2_10 
REMARK    7  A    between atoms: N1_11  and  CA1_12 
REMARK    8  A    between atoms: CA1_12  and  C2_13 
REMARK    9  A    between atoms: CA1_12  and  CB1_15 
REMARK       I    between atoms: C2_13  and  N2_19 
REMARK   10  A    between atoms: CB1_15  and  CG1_16 
REMARK   11  A    between atoms: CB1_15  and  CG21_17 
REMARK   12  A    between atoms: CG1_16  and  CD1_18 
REMARK   13  A    between atoms: N2_19  and  CA2_20 
REMARK   14  A    between atoms: CA2_20  and  C3_21 
REMARK   15  A    between atoms: CA2_20  and  CB2_22 
REMARK   16  A    between atoms: C3_21  and  N3_26 
REMARK   17  A    between atoms: CB2_22  and  CG_23 
REMARK   18  A    between atoms: CG_23  and  CD_24 
REMARK   19  A    between atoms: CD_24  and  CE_25 
REMARK   20  A    between atoms: N3_26  and  CA3_27 
REMARK   21  A    between atoms: CA3_27  and  C4_28 
REMARK   22  A    between atoms: CA3_27  and  CB3_30 
REMARK       I    between atoms: C4_28  and  N4_34 
REMARK   23  A    between atoms: CB3_30  and  CG3_31 
REMARK   24  A    between atoms: CG3_31  and  CD2_32 
REMARK   25  A    between atoms: CD2_32  and  CE1_33 
REMARK   26  A    between atoms: N4_34  and  CA4_35 
REMARK   27  A    between atoms: CA4_35  and  C5_36 
REMARK   28  A    between atoms: CA4_35  and  CB4_38 
REMARK       I    between atoms: C5_36  and  N5_43 
REMARK   29  A    between atoms: CB4_38  and  CG4_39 
REMARK   30  A    between atoms: CG4_39  and  CD3_40 
REMARK       I    between atoms: CD3_40  and  NE2_42 
REMARK   31  A    between atoms: N5_43  and  CA5_44 
REMARK   32  A    between atoms: CA5_44  and  C6_45 
REMARK   33  A    between atoms: CA5_44  and  CB5_47 
REMARK       I    between atoms: C6_45  and  N6_54 
REMARK   34  A    between atoms: CB5_47  and  CG5_48 
REMARK   35  A    between atoms: CG5_48  and  CD4_49 
REMARK   36  A    between atoms: CD4_49  and  NE_50 
REMARK       I    between atoms: NE_50  and  CZ_51 
REMARK       I    between atoms: CZ_51  and  NH1_52 
ROOT
ATOM      1  N3  2NC d   1       5.884  -0.663  14.879  0.00  0.00    -0.060 N 
ATOM      2  H   2NC d   1       6.132  -1.461  14.294  0.00  0.00     0.278 HD
ATOM      3  H   2NC d   1       6.533  -0.465  15.640  0.00  0.00     0.278 HD
ENDROOT
BRANCH   1   4
ATOM      4  C3  2NC d   1       4.602  -0.978  15.494  0.00  0.00     0.101 C 
ATOM      5  H   2NC d   1       4.564  -0.490  16.468  0.00  0.00     0.078 H 
ATOM      6  H   2NC d   1       3.812  -0.630  14.829  0.00  0.00     0.078 H 
BRANCH   4   7
ATOM      7  CA2 2NC d   1       4.420  -2.468  15.705  0.00  0.00     0.035 C 
ATOM      8  H   2NC d   1       4.358  -2.827  14.678  0.00  0.00     0.075 H 
BRANCH   7   9
ATOM      9  N2  2NC d   1       5.586  -3.228  16.264  0.00  0.00    -0.353 N 
ATOM     10  C2  2NC d   1       6.428  -3.842  15.474  0.00  0.00     0.241 C 
ATOM     11  O2  2NC d   1       6.326  -3.752  14.270  0.00  0.00    -0.271 OA
ATOM     12  H   2NC d   1       5.724  -3.266  17.274  0.00  0.00     0.163 HD
BRANCH  10  13
ATOM     13  CA1 2NC d   1       7.471  -4.719  16.151  0.00  0.00     0.092 C 
ATOM     14  H   2NC d   1       7.735  -4.278  17.112  0.00  0.00     0.088 H 
BRANCH  13  15
ATOM     15  N1  2NC d   1       6.928  -6.036  16.447  0.00  0.00    -0.346 N 
ATOM     16  C1  2NC d   1       6.758  -6.505  17.660  0.00  0.00     0.243 C 
ATOM     17  O1  2NC d   1       7.049  -5.853  18.628  0.00  0.00    -0.271 OA
ATOM     18  H   2NC d   1       6.663  -6.631  15.662  0.00  0.00     0.163 HD
BRANCH  16  19
ATOM     19  CA  2NC d   1       6.113  -7.923  17.804  0.00  0.00     0.113 C 
ATOM     20  H   2NC d   1       5.230  -7.797  18.430  0.00  0.00     0.091 H 
BRANCH  19  21
ATOM     21  N   2NC d   1       5.541  -8.526  16.575  0.00  0.00    -0.346 N 
ATOM     22  C   2NC d   1       4.249  -8.784  16.376  0.00  0.00     0.214 C 
ATOM     23  O   2NC d   1       3.399  -8.419  17.188  0.00  0.00    -0.274 OA
ATOM     24  H   2NC d   1       6.188  -8.762  15.823  0.00  0.00     0.163 HD
BRANCH  22  25
ATOM     25  CH3 2NC d   1       3.852  -9.235  14.985  0.00  0.00    -0.003 C 
ATOM     26  H   2NC d   1       3.184 -10.093  15.059  0.00  0.00     0.040 H 
ATOM     27  H   2NC d   1       3.342  -8.420  14.472  0.00  0.00     0.040 H 
ATOM     28  H   2NC d   1       4.745  -9.515  14.427  0.00  0.00     0.040 H 
ENDBRANCH  22  25
ENDBRANCH  19  21
BRANCH  19  29
ATOM     29  CB  2NC d   1       7.163  -8.850  18.449  0.00  0.00     0.060 C 
ATOM     30  H   2NC d   1       7.508  -8.373  19.366  0.00  0.00     0.086 H 
BRANCH  29  31
ATOM     31  OG1 2NC d   1       8.246  -9.035  17.550  0.00  0.00    -0.393 OA
ATOM     32  H   2NC d   1       7.922  -9.433  16.738  0.00  0.00     0.210 HD
ENDBRANCH  29  31
BRANCH  29  33
ATOM     33  CG2 2NC d   1       6.568 -10.227  18.831  0.00  0.00    -0.050 C 
ATOM     34  H   2NC d   1       6.213 -10.730  17.932  0.00  0.00     0.031 H 
ATOM     35  H   2NC d   1       7.337 -10.834  19.308  0.00  0.00     0.031 H 
ATOM     36  H   2NC d   1       5.737 -10.083  19.521  0.00  0.00     0.031 H 
ENDBRANCH  29  33
ENDBRANCH  19  29
ENDBRANCH  16  19
ENDBRANCH  13  15
BRANCH  13  37
ATOM     37  CB1 2NC d   1       8.757  -4.759  15.340  0.00  0.00    -0.030 C 
ATOM     38  H   2NC d   1       8.492  -5.085  14.334  0.00  0.00     0.043 H 
BRANCH  37  39
ATOM     39  CG1 2NC d   1       9.753  -5.756  15.894  0.00  0.00    -0.063 C 
ATOM     40  H   2NC d   1      10.655  -5.604  15.300  0.00  0.00     0.033 H 
ATOM     41  H   2NC d   1       9.236  -6.715  15.852  0.00  0.00     0.033 H 
BRANCH  39  42
ATOM     42  CD1 2NC d   1      10.225  -5.630  17.362  0.00  0.00    -0.076 C 
ATOM     43  H   2NC d   1      10.706  -4.662  17.506  0.00  0.00     0.027 H 
ATOM     44  H   2NC d   1       9.365  -5.712  18.027  0.00  0.00     0.027 H 
ATOM     45  H   2NC d   1      10.935  -6.427  17.584  0.00  0.00     0.027 H 
ENDBRANCH  39  42
ENDBRANCH  37  39
BRANCH  37  46
ATOM     46  CG2 2NC d   1       9.376  -3.396  15.274  0.00  0.00    -0.071 C 
ATOM     47  H   2NC d   1       8.679  -2.704  14.801  0.00  0.00     0.028 H 
ATOM     48  H   2NC d   1       9.603  -3.052  16.283  0.00  0.00     0.028 H 
ATOM     49  H   2NC d   1      10.295  -3.444  14.690  0.00  0.00     0.028 H 
ENDBRANCH  37  46
ENDBRANCH  13  37
ENDBRANCH  10  13
ENDBRANCH   7   9
BRANCH   7  50
ATOM     50  CB2 2NC d   1       3.115  -2.824  16.409  0.00  0.00    -0.045 C 
ATOM     51  H   2NC d   1       2.326  -2.501  15.730  0.00  0.00     0.036 H 
ATOM     52  H   2NC d   1       3.180  -2.351  17.389  0.00  0.00     0.036 H 
BRANCH  50  53
ATOM     53  CG  2NC d   1       2.825  -4.281  16.690  0.00  0.00    -0.064 C 
ATOM     54  H   2NC d   1       1.885  -4.328  17.240  0.00  0.00     0.033 H 
ATOM     55  H   2NC d   1       3.673  -4.683  17.244  0.00  0.00     0.033 H 
BRANCH  53  56
ATOM     56  CD  2NC d   1       2.661  -5.121  15.430  0.00  0.00    -0.068 C 
ATOM     57  H   2NC d   1       2.480  -6.164  15.690  0.00  0.00     0.032 H 
ATOM     58  H   2NC d   1       3.569  -5.083  14.828  0.00  0.00     0.032 H 
BRANCH  56  59
ATOM     59  CE  2NC d   1       1.488  -4.560  14.652  0.00  0.00    -0.077 C 
ATOM     60  H   2NC d   1       0.588  -4.614  15.264  0.00  0.00     0.027 H 
ATOM     61  H   2NC d   1       1.690  -3.521  14.392  0.00  0.00     0.027 H 
ATOM     62  H   2NC d   1       1.345  -5.143  13.742  0.00  0.00     0.027 H 
ENDBRANCH  56  59
ENDBRANCH  53  56
ENDBRANCH  50  53
ENDBRANCH   7  50
ENDBRANCH   4   7
ENDBRANCH   1   4
BRANCH   1  63
ATOM     63  CA3 2NC d   1       5.885   0.509  14.012  0.00  0.00     0.178 C 
ATOM     64  H   2NC d   1       5.644   1.397  14.597  0.00  0.00     0.099 H 
BRANCH  63  65
ATOM     65  C4  2NC d   1       4.801   0.394  12.952  0.00  0.00     0.249 C 
ATOM     66  O3  2NC d   1       4.590  -0.653  12.318  0.00  0.00    -0.271 OA
ATOM     67  N4  2NC d   1       4.150   1.498  12.654  0.00  0.00    -0.346 N 
ATOM     68  H   2NC d   1       4.342   2.340  13.197  0.00  0.00     0.163 HD
BRANCH  67  69
ATOM     69  CA4 2NC d   1       3.149   1.569  11.562  0.00  0.00     0.090 C 
ATOM     70  H   2NC d   1       3.397   0.847  10.784  0.00  0.00     0.087 H 
BRANCH  69  71
ATOM     71  C5  2NC d   1       3.201   2.963  10.913  0.00  0.00     0.241 C 
ATOM     72  O4  2NC d   1       3.291   4.026  11.579  0.00  0.00    -0.271 OA
ATOM     73  N5  2NC d   1       3.093   2.979   9.590  0.00  0.00    -0.346 N 
ATOM     74  H   2NC d   1       2.925   2.105   9.092  0.00  0.00     0.163 HD
BRANCH  73  75
ATOM     75  CA5 2NC d   1       3.208   4.208   8.841  0.00  0.00     0.089 C 
ATOM     76  H   2NC d   1       3.262   5.050   9.531  0.00  0.00     0.087 H 
BRANCH  75  77
ATOM     77  C6  2NC d   1       2.021   4.312   7.963  0.00  0.00     0.238 C 
ATOM     78  O5  2NC d   1       1.663   3.338   7.264  0.00  0.00    -0.271 OA
ATOM     79  N6  2NC d   1       1.354   5.460   7.992  0.00  0.00    -0.368 N 
ATOM     80  H   2NC d   1       0.511   5.575   7.429  0.00  0.00     0.159 HD
ATOM     81  H   2NC d   1       1.684   6.227   8.578  0.00  0.00     0.159 HD
ENDBRANCH  75  77
BRANCH  75  82
ATOM     82  CB5 2NC d   1       4.499   4.228   7.981  0.00  0.00    -0.036 C 
ATOM     83  H   2NC d   1       4.868   5.252   8.037  0.00  0.00     0.036 H 
ATOM     84  H   2NC d   1       4.202   3.844   7.005  0.00  0.00     0.036 H 
BRANCH  82  85
ATOM     85  CG5 2NC d   1       5.666   3.352   8.423  0.00  0.00    -0.048 C 
ATOM     86  H   2NC d   1       5.669   2.486   7.761  0.00  0.00     0.035 H 
ATOM     87  H   2NC d   1       5.509   3.139   9.480  0.00  0.00     0.035 H 
BRANCH  85  88
ATOM     88  CD4 2NC d   1       7.065   3.993   8.310  0.00  0.00     0.009 C 
ATOM     89  H   2NC d   1       7.766   3.193   8.073  0.00  0.00     0.064 H 
ATOM     90  H   2NC d   1       7.263   4.499   9.255  0.00  0.00     0.064 H 
BRANCH  88  91
ATOM     91  NE  2NC d   1       7.185   5.001   7.247  0.00  0.00    -0.227 N 
ATOM     92  CZ  2NC d   1       8.327   5.494   6.752  0.00  0.00     0.665 C 
ATOM     93  NH1 2NC d   1       9.500   5.086   7.191  0.00  0.00    -0.235 N 
ATOM     94  NH2 2NC d   1       8.286   6.428   5.804  0.00  0.00    -0.235 N 
ATOM     95  H   2NC d   1       9.552   4.379   7.924  0.00  0.00     0.174 HD
ATOM     96  H   2NC d   1      10.356   5.477   6.798  0.00  0.00     0.174 HD
ATOM     97  H   2NC d   1       7.387   6.765   5.458  0.00  0.00     0.174 HD
ATOM     98  H   2NC d   1       9.153   6.807   5.423  0.00  0.00     0.174 HD
ATOM     99  H   2NC d   1       6.316   5.359   6.849  0.00  0.00     0.177 HD
ENDBRANCH  88  91
ENDBRANCH  85  88
ENDBRANCH  82  85
ENDBRANCH  75  82
ENDBRANCH  73  75
ENDBRANCH  69  71
BRANCH  69 100
ATOM    100  CB4 2NC d   1       1.776   1.152  12.034  0.00  0.00    -0.030 C 
ATOM    101  H   2NC d   1       1.517   1.798  12.873  0.00  0.00     0.037 H 
ATOM    102  H   2NC d   1       1.832   0.092  12.281  0.00  0.00     0.037 H 
BRANCH 100 103
ATOM    103  CG4 2NC d   1       0.688   1.308  11.005  0.00  0.00     0.011 C 
ATOM    104  H   2NC d   1      -0.124   0.638  11.288  0.00  0.00     0.047 H 
ATOM    105  H   2NC d   1       1.127   1.084  10.033  0.00  0.00     0.047 H 
BRANCH 103 106
ATOM    106  CD3 2NC d   1       0.114   2.702  10.928  0.00  0.00     0.215 C 
ATOM    107  OE1 2NC d   1       0.132   3.422  11.892  0.00  0.00    -0.274 OA
ATOM    108  NE2 2NC d   1      -0.444   3.060   9.797  0.00  0.00    -0.370 N 
ATOM    109  H   2NC d   1      -0.883   3.977   9.713  0.00  0.00     0.159 HD
ATOM    110  H   2NC d   1      -0.439   2.422   9.001  0.00  0.00     0.159 HD
ENDBRANCH 103 106
ENDBRANCH 100 103
ENDBRANCH  69 100
ENDBRANCH  67  69
ENDBRANCH  63  65
BRANCH  63 111
ATOM    111  CB3 2NC d   1       7.278   0.731  13.431  0.00  0.00    -0.030 C 
ATOM    112  H   2NC d   1       7.517  -0.153  12.840  0.00  0.00     0.036 H 
ATOM    113  H   2NC d   1       7.944   0.916  14.274  0.00  0.00     0.036 H 
BRANCH 111 114
ATOM    114  CG3 2NC d   1       7.405   1.941  12.490  0.00  0.00    -0.063 C 
ATOM    115  H   2NC d   1       8.383   2.394  12.653  0.00  0.00     0.033 H 
ATOM    116  H   2NC d   1       6.587   2.627  12.710  0.00  0.00     0.033 H 
BRANCH 114 117
ATOM    117  CD2 2NC d   1       7.307   1.546  11.018  0.00  0.00    -0.068 C 
ATOM    118  H   2NC d   1       7.204   2.462  10.436  0.00  0.00     0.032 H 
ATOM    119  H   2NC d   1       6.456   0.874  10.912  0.00  0.00     0.032 H 
BRANCH 117 120
ATOM    120  CE1 2NC d   1       8.536   0.816  10.515  0.00  0.00    -0.077 C 
ATOM    121  H   2NC d   1       9.410   1.458  10.628  0.00  0.00     0.027 H 
ATOM    122  H   2NC d   1       8.677  -0.097  11.094  0.00  0.00     0.027 H 
ATOM    123  H   2NC d   1       8.402   0.564   9.463  0.00  0.00     0.027 H 
ENDBRANCH 117 120
ENDBRANCH 114 117
ENDBRANCH 111 114
ENDBRANCH  63 111
ENDBRANCH   1  63
TORSDOF 36
