REMARK WARNING: 32 MAX_TORS EXCEEDED!!!
REMARK  36 active torsions:
REMARK  status: ('A' for Active; 'I' for Inactive)
REMARK    1  A    between atoms: C_1  and  CH3_3 
REMARK       I    between atoms: C_1  and  N_4 
REMARK    2  A    between atoms: N_4  and  CA_5 
REMARK    3  A    between atoms: CA_5  and  C1_6 
REMARK    4  A    between atoms: CA_5  and  CB_8 
REMARK       I    between atoms: C1_6  and  N1_11 
REMARK    5  A    between atoms: CB_8  and  OG1_9 
REMARK    6  A    between atoms: CB_8  and  CG2_10 
REMARK    7  A    between atoms: N1_11  and  CA1_12 
REMARK    8  A    between atoms: CA1_12  and  C2_13 
REMARK    9  A    between atoms: CA1_12  and  CB1_15 
REMARK       I    between atoms: C2_13  and  N2_19 
REMARK   10  A    between atoms: CB1_15  and  CG1_16 
REMARK   11  A    between atoms: CB1_15  and  CG21_17 
REMARK   12  A    between atoms: CG1_16  and  CD1_18 
REMARK   13  A    between atoms: N2_19  and  CA2_20 
REMARK   14  A    between atoms: CA2_20  and  C3_21 
REMARK   15  A    between atoms: CA2_20  and  CB2_22 
REMARK   16  A    between atoms: C3_21  and  N3_26 
REMARK   17  A    between atoms: CB2_22  and  CG_23 
REMARK   18  A    between atoms: CG_23  and  CD_24 
REMARK   19  A    between atoms: CD_24  and  CE_25 
REMARK   20  A    between atoms: N3_26  and  CA3_27 
REMARK   21  A    between atoms: CA3_27  and  C4_28 
REMARK   22  A    between atoms: CA3_27  and  CB3_30 
REMARK       I    between atoms: C4_28  and  N4_34 
REMARK   23  A    between atoms: CB3_30  and  CG3_31 
REMARK   24  A    between atoms: CG3_31  and  CD2_32 
REMARK   25  A    between atoms: CD2_32  and  CE1_33 
REMARK   26  A    between atoms: N4_34  and  CA4_35 
REMARK   27  A    between atoms: CA4_35  and  C5_36 
REMARK   28  A    between atoms: CA4_35  and  CB4_38 
REMARK       I    between atoms: C5_36  and  N5_43 
REMARK   29  A    between atoms: CB4_38  and  CG4_39 
REMARK   30  A    between atoms: CG4_39  and  CD3_40 
REMARK       I    between atoms: CD3_40  and  NE2_42 
REMARK   31  A    between atoms: N5_43  and  CA5_44 
REMARK   32  A    between atoms: CA5_44  and  C6_45 
REMARK   33  A    between atoms: CA5_44  and  CB5_47 
REMARK       I    between atoms: C6_45  and  N6_54 
REMARK   34  A    between atoms: CB5_47  and  CG5_48 
REMARK   35  A    between atoms: CG5_48  and  CD4_49 
REMARK   36  A    between atoms: CD4_49  and  NE_50 
REMARK       I    between atoms: NE_50  and  CZ_51 
REMARK       I    between atoms: CZ_51  and  NH1_52 
ROOT
ATOM      1  N3  2NC d   1       5.842  -0.726  14.855  0.00  0.00    -0.060 N 
ATOM      2  H   2NC d   1       6.036  -1.525  14.251  0.00  0.00     0.278 HD
ATOM      3  H   2NC d   1       6.521  -0.498  15.582  0.00  0.00     0.278 HD
ENDROOT
BRANCH   1   4
ATOM      4  C3  2NC d   1       4.615  -1.069  15.566  0.00  0.00     0.101 C 
ATOM      5  H   2NC d   1       4.722  -0.712  16.590  0.00  0.00     0.078 H 
ATOM      6  H   2NC d   1       3.787  -0.611  15.025  0.00  0.00     0.078 H 
BRANCH   4   7
ATOM      7  CA2 2NC d   1       4.344  -2.557  15.632  0.00  0.00     0.035 C 
ATOM      8  H   2NC d   1       4.217  -2.880  14.599  0.00  0.00     0.075 H 
BRANCH   7   9
ATOM      9  N2  2NC d   1       5.471  -3.267  16.270  0.00  0.00    -0.353 N 
ATOM     10  C2  2NC d   1       6.343  -3.906  15.501  0.00  0.00     0.241 C 
ATOM     11  O2  2NC d   1       6.267  -3.889  14.282  0.00  0.00    -0.271 OA
ATOM     12  H   2NC d   1       5.577  -3.266  17.285  0.00  0.00     0.163 HD
BRANCH  10  13
ATOM     13  CA1 2NC d   1       7.388  -4.781  16.182  0.00  0.00     0.092 C 
ATOM     14  H   2NC d   1       7.645  -4.355  17.152  0.00  0.00     0.088 H 
BRANCH  13  15
ATOM     15  N1  2NC d   1       6.827  -6.105  16.387  0.00  0.00    -0.346 N 
ATOM     16  C1  2NC d   1       6.692  -6.549  17.627  0.00  0.00     0.243 C 
ATOM     17  O1  2NC d   1       6.989  -5.860  18.599  0.00  0.00    -0.271 OA
ATOM     18  H   2NC d   1       6.543  -6.680  15.594  0.00  0.00     0.163 HD
BRANCH  16  19
ATOM     19  CA  2NC d   1       6.119  -7.950  17.829  0.00  0.00     0.113 C 
ATOM     20  H   2NC d   1       5.208  -7.844  18.418  0.00  0.00     0.091 H 
BRANCH  19  21
ATOM     21  N   2NC d   1       5.681  -8.604  16.604  0.00  0.00    -0.346 N 
ATOM     22  C   2NC d   1       4.419  -8.914  16.331  0.00  0.00     0.214 C 
ATOM     23  O   2NC d   1       3.477  -8.450  16.970  0.00  0.00    -0.274 OA
ATOM     24  H   2NC d   1       6.390  -8.839  15.910  0.00  0.00     0.163 HD
BRANCH  22  25
ATOM     25  CH3 2NC d   1       4.219  -9.747  15.086  0.00  0.00    -0.003 C 
ATOM     26  H   2NC d   1       3.636 -10.634  15.334  0.00  0.00     0.040 H 
ATOM     27  H   2NC d   1       3.688  -9.159  14.338  0.00  0.00     0.040 H 
ATOM     28  H   2NC d   1       5.190 -10.047  14.691  0.00  0.00     0.040 H 
ENDBRANCH  22  25
ENDBRANCH  19  21
BRANCH  19  29
ATOM     29  CB  2NC d   1       7.147  -8.801  18.583  0.00  0.00     0.060 C 
ATOM     30  H   2NC d   1       7.397  -8.295  19.515  0.00  0.00     0.086 H 
BRANCH  29  31
ATOM     31  OG1 2NC d   1       8.329  -8.957  17.794  0.00  0.00    -0.393 OA
ATOM     32  H   2NC d   1       8.106  -9.391  16.967  0.00  0.00     0.210 HD
ENDBRANCH  29  31
BRANCH  29  33
ATOM     33  CG2 2NC d   1       6.547 -10.219  18.905  0.00  0.00    -0.050 C 
ATOM     34  H   2NC d   1       6.300 -10.728  17.973  0.00  0.00     0.031 H 
ATOM     35  H   2NC d   1       7.281 -10.806  19.458  0.00  0.00     0.031 H 
ATOM     36  H   2NC d   1       5.646 -10.103  19.507  0.00  0.00     0.031 H 
ENDBRANCH  29  33
ENDBRANCH  19  29
ENDBRANCH  16  19
ENDBRANCH  13  15
BRANCH  13  37
ATOM     37  CB1 2NC d   1       8.692  -4.821  15.383  0.00  0.00    -0.030 C 
ATOM     38  H   2NC d   1       8.426  -5.113  14.367  0.00  0.00     0.043 H 
BRANCH  37  39
ATOM     39  CG1 2NC d   1       9.668  -5.890  15.905  0.00  0.00    -0.063 C 
ATOM     40  H   2NC d   1      10.539  -5.850  15.251  0.00  0.00     0.033 H 
ATOM     41  H   2NC d   1       9.112  -6.827  15.916  0.00  0.00     0.033 H 
BRANCH  39  42
ATOM     42  CD1 2NC d   1      10.202  -5.691  17.342  0.00  0.00    -0.076 C 
ATOM     43  H   2NC d   1      10.737  -4.743  17.401  0.00  0.00     0.027 H 
ATOM     44  H   2NC d   1       9.366  -5.682  18.041  0.00  0.00     0.027 H 
ATOM     45  H   2NC d   1      10.879  -6.508  17.593  0.00  0.00     0.027 H 
ENDBRANCH  39  42
ENDBRANCH  37  39
BRANCH  37  46
ATOM     46  CG2 2NC d   1       9.353  -3.436  15.303  0.00  0.00    -0.071 C 
ATOM     47  H   2NC d   1       8.673  -2.738  14.815  0.00  0.00     0.028 H 
ATOM     48  H   2NC d   1       9.578  -3.083  16.310  0.00  0.00     0.028 H 
ATOM     49  H   2NC d   1      10.276  -3.508  14.727  0.00  0.00     0.028 H 
ENDBRANCH  37  46
ENDBRANCH  13  37
ENDBRANCH  10  13
ENDBRANCH   7   9
BRANCH   7  50
ATOM     50  CB2 2NC d   1       3.073  -2.895  16.411  0.00  0.00    -0.045 C 
ATOM     51  H   2NC d   1       2.230  -2.559  15.807  0.00  0.00     0.036 H 
ATOM     52  H   2NC d   1       3.156  -2.408  17.383  0.00  0.00     0.036 H 
BRANCH  50  53
ATOM     53  CG  2NC d   1       2.867  -4.391  16.675  0.00  0.00    -0.064 C 
ATOM     54  H   2NC d   1       1.930  -4.510  17.219  0.00  0.00     0.033 H 
ATOM     55  H   2NC d   1       3.727  -4.754  17.237  0.00  0.00     0.033 H 
BRANCH  53  56
ATOM     56  CD  2NC d   1       2.769  -5.207  15.386  0.00  0.00    -0.068 C 
ATOM     57  H   2NC d   1       2.518  -6.235  15.646  0.00  0.00     0.032 H 
ATOM     58  H   2NC d   1       3.726  -5.150  14.867  0.00  0.00     0.032 H 
BRANCH  56  59
ATOM     59  CE  2NC d   1       1.686  -4.663  14.464  0.00  0.00    -0.077 C 
ATOM     60  H   2NC d   1       0.723  -4.703  14.973  0.00  0.00     0.027 H 
ATOM     61  H   2NC d   1       1.918  -3.630  14.203  0.00  0.00     0.027 H 
ATOM     62  H   2NC d   1       1.645  -5.267  13.558  0.00  0.00     0.027 H 
ENDBRANCH  56  59
ENDBRANCH  53  56
ENDBRANCH  50  53
ENDBRANCH   7  50
ENDBRANCH   4   7
ENDBRANCH   1   4
BRANCH   1  63
ATOM     63  CA3 2NC d   1       5.820   0.452  13.954  0.00  0.00     0.178 C 
ATOM     64  H   2NC d   1       5.579   1.342  14.535  0.00  0.00     0.099 H 
BRANCH  63  65
ATOM     65  C4  2NC d   1       4.707   0.376  12.899  0.00  0.00     0.249 C 
ATOM     66  O3  2NC d   1       4.436  -0.661  12.315  0.00  0.00    -0.271 OA
ATOM     67  N4  2NC d   1       4.094   1.516  12.594  0.00  0.00    -0.346 N 
ATOM     68  H   2NC d   1       4.322   2.361  13.118  0.00  0.00     0.163 HD
BRANCH  67  69
ATOM     69  CA4 2NC d   1       3.096   1.584  11.519  0.00  0.00     0.090 C 
ATOM     70  H   2NC d   1       3.347   0.845  10.758  0.00  0.00     0.087 H 
BRANCH  69  71
ATOM     71  C5  2NC d   1       3.121   2.972  10.897  0.00  0.00     0.241 C 
ATOM     72  O4  2NC d   1       3.278   3.978  11.583  0.00  0.00    -0.271 OA
ATOM     73  N5  2NC d   1       3.037   3.008   9.579  0.00  0.00    -0.346 N 
ATOM     74  H   2NC d   1       2.927   2.134   9.065  0.00  0.00     0.163 HD
BRANCH  73  75
ATOM     75  CA5 2NC d   1       3.097   4.267   8.837  0.00  0.00     0.089 C 
ATOM     76  H   2NC d   1       3.121   5.121   9.514  0.00  0.00     0.087 H 
BRANCH  75  77
ATOM     77  C6  2NC d   1       1.882   4.311   7.946  0.00  0.00     0.238 C 
ATOM     78  O5  2NC d   1       1.674   3.387   7.156  0.00  0.00    -0.271 OA
ATOM     79  N6  2NC d   1       1.258   5.466   7.705  0.00  0.00    -0.368 N 
ATOM     80  H   2NC d   1       0.642   5.554   6.897  0.00  0.00     0.159 HD
ATOM     81  H   2NC d   1       1.397   6.261   8.329  0.00  0.00     0.159 HD
ENDBRANCH  75  77
BRANCH  75  82
ATOM     82  CB5 2NC d   1       4.360   4.285   7.970  0.00  0.00    -0.036 C 
ATOM     83  H   2NC d   1       4.373   5.240   7.445  0.00  0.00     0.036 H 
ATOM     84  H   2NC d   1       4.312   3.412   7.319  0.00  0.00     0.036 H 
BRANCH  82  85
ATOM     85  CG5 2NC d   1       5.641   4.190   8.736  0.00  0.00    -0.048 C 
ATOM     86  H   2NC d   1       6.503   4.367   8.093  0.00  0.00     0.035 H 
ATOM     87  H   2NC d   1       5.783   3.192   9.152  0.00  0.00     0.035 H 
BRANCH  85  88
ATOM     88  CD4 2NC d   1       5.545   5.223   9.816  0.00  0.00     0.009 C 
ATOM     89  H   2NC d   1       4.619   5.011  10.350  0.00  0.00     0.064 H 
ATOM     90  H   2NC d   1       5.614   6.188   9.314  0.00  0.00     0.064 H 
BRANCH  88  91
ATOM     91  NE  2NC d   1       6.600   5.221  10.827  0.00  0.00    -0.227 N 
ATOM     92  CZ  2NC d   1       7.754   5.838  10.677  0.00  0.00     0.665 C 
ATOM     93  NH1 2NC d   1       8.063   6.434   9.514  0.00  0.00    -0.235 N 
ATOM     94  NH2 2NC d   1       8.624   5.824  11.658  0.00  0.00    -0.235 N 
ATOM     95  H   2NC d   1       7.402   6.411   8.738  0.00  0.00     0.174 HD
ATOM     96  H   2NC d   1       8.959   6.910   9.407  0.00  0.00     0.174 HD
ATOM     97  H   2NC d   1       8.404   5.338  12.528  0.00  0.00     0.174 HD
ATOM     98  H   2NC d   1       9.520   6.299  11.552  0.00  0.00     0.174 HD
ATOM     99  H   2NC d   1       6.434   4.714  11.696  0.00  0.00     0.177 HD
ENDBRANCH  88  91
ENDBRANCH  85  88
ENDBRANCH  82  85
ENDBRANCH  75  82
ENDBRANCH  73  75
ENDBRANCH  69  71
BRANCH  69 100
ATOM    100  CB4 2NC d   1       1.686   1.239  12.040  0.00  0.00    -0.030 C 
ATOM    101  H   2NC d   1       1.446   1.958  12.823  0.00  0.00     0.037 H 
ATOM    102  H   2NC d   1       1.712   0.204  12.382  0.00  0.00     0.037 H 
BRANCH 100 103
ATOM    103  CG4 2NC d   1       0.585   1.340  10.975  0.00  0.00     0.011 C 
ATOM    104  H   2NC d   1      -0.226   0.671  11.264  0.00  0.00     0.047 H 
ATOM    105  H   2NC d   1       1.022   1.073  10.013  0.00  0.00     0.047 H 
BRANCH 103 106
ATOM    106  CD3 2NC d   1       0.021   2.735  10.860  0.00  0.00     0.215 C 
ATOM    107  OE1 2NC d   1       0.102   3.505  11.795  0.00  0.00    -0.274 OA
ATOM    108  NE2 2NC d   1      -0.624   3.043   9.735  0.00  0.00    -0.370 N 
ATOM    109  H   2NC d   1      -1.072   3.954   9.637  0.00  0.00     0.159 HD
ATOM    110  H   2NC d   1      -0.669   2.368   8.972  0.00  0.00     0.159 HD
ENDBRANCH 103 106
ENDBRANCH 100 103
ENDBRANCH  69 100
ENDBRANCH  67  69
ENDBRANCH  63  65
BRANCH  63 111
ATOM    111  CB3 2NC d   1       7.219   0.615  13.336  0.00  0.00    -0.030 C 
ATOM    112  H   2NC d   1       7.379  -0.256  12.700  0.00  0.00     0.036 H 
ATOM    113  H   2NC d   1       7.914   0.725  14.169  0.00  0.00     0.036 H 
BRANCH 111 114
ATOM    114  CG3 2NC d   1       7.410   1.838  12.450  0.00  0.00    -0.063 C 
ATOM    115  H   2NC d   1       8.366   2.305  12.684  0.00  0.00     0.033 H 
ATOM    116  H   2NC d   1       6.598   2.543  12.630  0.00  0.00     0.033 H 
BRANCH 114 117
ATOM    117  CD2 2NC d   1       7.399   1.420  10.971  0.00  0.00    -0.068 C 
ATOM    118  H   2NC d   1       7.356   2.327  10.368  0.00  0.00     0.032 H 
ATOM    119  H   2NC d   1       6.540   0.768  10.815  0.00  0.00     0.032 H 
BRANCH 117 120
ATOM    120  CE1 2NC d   1       8.649   0.649  10.565  0.00  0.00    -0.077 C 
ATOM    121  H   2NC d   1       9.528   1.272  10.729  0.00  0.00     0.027 H 
ATOM    122  H   2NC d   1       8.727  -0.257  11.167  0.00  0.00     0.027 H 
ATOM    123  H   2NC d   1       8.583   0.382   9.510  0.00  0.00     0.027 H 
ENDBRANCH 117 120
ENDBRANCH 114 117
ENDBRANCH 111 114
ENDBRANCH  63 111
ENDBRANCH   1  63
TORSDOF 36
