REMARK  13 active torsions:
REMARK  status: ('A' for Active; 'I' for Inactive)
REMARK    1  A    between atoms: C_1  and  C13_21 
REMARK    2  A    between atoms: C5_8  and  N3_12 
REMARK    3  A    between atoms: N2_10  and  C18_27 
REMARK    4  A    between atoms: N3_12  and  C7_13 
REMARK    5  A    between atoms: C7_13  and  C8_14 
REMARK    6  A    between atoms: C8_14  and  N4_15 
REMARK    7  A    between atoms: C16_24  and  O2_28 
REMARK    8  A    between atoms: C18_27  and  C19_29 
REMARK    9  A    between atoms: O2_28  and  C23_34 
REMARK   10  A    between atoms: C19_29  and  O3_30 
REMARK   11  A    between atoms: O3_30  and  C20_31 
REMARK   12  A    between atoms: C20_31  and  C21_32 
REMARK   13  A    between atoms: C21_32  and  C22_33 
ROOT
ATOM      1  C   PD4 d   1      17.234  -5.882  12.869  0.00  0.00     0.071 A 
ATOM      2  C1  PD4 d   1      17.377  -5.628  14.233  0.00  0.00    -0.052 A 
ATOM      3  C2  PD4 d   1      18.283  -6.381  14.992  0.00  0.00    -0.051 A 
ATOM      4  C3  PD4 d   1      19.035  -7.377  14.372  0.00  0.00     0.080 A 
ATOM      5  C4  PD4 d   1      18.871  -7.607  12.995  0.00  0.00     0.159 A 
ATOM      6  N   PD4 d   1      17.984  -6.853  12.323  0.00  0.00    -0.228 NA
ATOM      7  N1  PD4 d   1      19.920  -8.131  15.053  0.00  0.00    -0.335 N 
ATOM      8  C5  PD4 d   1      20.628  -9.102  14.432  0.00  0.00     0.178 A 
ATOM      9  C6  PD4 d   1      20.450  -9.320  13.053  0.00  0.00     0.228 A 
ATOM     10  N2  PD4 d   1      19.585  -8.549  12.351  0.00  0.00    -0.303 N 
ATOM     11  O   PD4 d   1      21.150 -10.257  12.447  0.00  0.00    -0.168 OA
ATOM     12  H1  PD4 d   1      16.788  -4.850  14.705  0.00  0.00     0.087 H 
ATOM     13  H2  PD4 d   1      18.398  -6.190  16.053  0.00  0.00     0.087 H 
ATOM     14  H3  PD4 d   1      20.059  -7.966  16.060  0.00  0.00     0.168 HD
ENDROOT
BRANCH   8  15
ATOM     15  N3  PD4 d   1      21.509  -9.874  15.093  0.00  0.00    -0.267 NA
BRANCH  15  16
ATOM     16  C7  PD4 d   1      21.901  -9.844  16.508  0.00  0.00     0.040 C 
ATOM     17  H4  PD4 d   1      22.075  -8.796  16.792  0.00  0.00     0.070 H 
ATOM     18  H5  PD4 d   1      22.836 -10.413  16.615  0.00  0.00     0.070 H 
BRANCH  16  19
ATOM     19  C8  PD4 d   1      20.873 -10.434  17.477  0.00  0.00     0.100 C 
ATOM     20  H6  PD4 d   1      20.450 -11.338  17.014  0.00  0.00     0.078 H 
ATOM     21  H7  PD4 d   1      20.077  -9.689  17.622  0.00  0.00     0.078 H 
BRANCH  19  22
ATOM     22  N4  PD4 d   1      21.406 -10.811  18.827  0.00  0.00    -0.066 N 
ATOM     23  C9  PD4 d   1      21.727  -9.718  19.795  0.00  0.00     0.103 C 
ATOM     24  C10 PD4 d   1      20.772  -9.784  20.997  0.00  0.00     0.042 C 
ATOM     25  H9  PD4 d   1      21.617  -8.744  19.295  0.00  0.00     0.079 H 
ATOM     26  H10 PD4 d   1      22.763  -9.835  20.146  0.00  0.00     0.079 H 
ATOM     27  O1  PD4 d   1      20.721 -11.113  21.549  0.00  0.00    -0.388 OA
ATOM     28  H11 PD4 d   1      19.763  -9.492  20.670  0.00  0.00     0.076 H 
ATOM     29  H12 PD4 d   1      21.122  -9.087  21.772  0.00  0.00     0.076 H 
ATOM     30  C11 PD4 d   1      20.329 -12.151  20.633  0.00  0.00     0.042 C 
ATOM     31  C12 PD4 d   1      21.220 -12.196  19.381  0.00  0.00     0.103 C 
ATOM     32  H13 PD4 d   1      19.290 -11.972  20.320  0.00  0.00     0.076 H 
ATOM     33  H14 PD4 d   1      20.395 -13.120  21.148  0.00  0.00     0.076 H 
ATOM     34  H15 PD4 d   1      22.201 -12.616  19.648  0.00  0.00     0.079 H 
ATOM     35  H16 PD4 d   1      20.745 -12.831  18.619  0.00  0.00     0.079 H 
ATOM     36  H8  PD4 d   1      22.353 -10.959  18.515  0.00  0.00     0.280 HD
ENDBRANCH  19  22
ENDBRANCH  16  19
ENDBRANCH  15  16
ENDBRANCH   8  15
BRANCH  10  37
ATOM     37  C18 PD4 d   1      19.378  -8.795  10.904  0.00  0.00     0.023 C 
ATOM     38  H20 PD4 d   1      18.515  -8.197  10.575  0.00  0.00     0.068 H 
ATOM     39  H21 PD4 d   1      19.158  -9.864  10.766  0.00  0.00     0.068 H 
BRANCH  37  40
ATOM     40  C19 PD4 d   1      20.569  -8.437  10.020  0.00  0.00     0.035 C 
ATOM     41  H22 PD4 d   1      20.464  -8.902   9.029  0.00  0.00     0.076 H 
ATOM     42  H23 PD4 d   1      21.507  -8.774  10.486  0.00  0.00     0.076 H 
BRANCH  40  43
ATOM     43  O3  PD4 d   1      20.553  -7.029   9.907  0.00  0.00    -0.390 OA
BRANCH  43  44
ATOM     44  C20 PD4 d   1      21.523  -6.491   9.002  0.00  0.00     0.019 C 
ATOM     45  H24 PD4 d   1      21.459  -7.015   8.037  0.00  0.00     0.074 H 
ATOM     46  H25 PD4 d   1      22.532  -6.619   9.422  0.00  0.00     0.074 H 
BRANCH  44  47
ATOM     47  C21 PD4 d   1      21.235  -4.998   8.798  0.00  0.00    -0.049 C 
ATOM     48  H26 PD4 d   1      21.965  -4.598   8.079  0.00  0.00     0.035 H 
ATOM     49  H27 PD4 d   1      21.354  -4.486   9.764  0.00  0.00     0.035 H 
BRANCH  47  50
ATOM     50  C22 PD4 d   1      19.828  -4.712   8.269  0.00  0.00    -0.075 C 
ATOM     51  H28 PD4 d   1      19.695  -3.627   8.149  0.00  0.00     0.027 H 
ATOM     52  H29 PD4 d   1      19.083  -5.096   8.982  0.00  0.00     0.027 H 
ATOM     53  H30 PD4 d   1      19.694  -5.208   7.296  0.00  0.00     0.027 H 
ENDBRANCH  47  50
ENDBRANCH  44  47
ENDBRANCH  43  44
ENDBRANCH  40  43
ENDBRANCH  37  40
ENDBRANCH  10  37
BRANCH   1  54
ATOM     54  C13 PD4 d   1      16.309  -5.186  11.947  0.00  0.00     0.010 A 
ATOM     55  C14 PD4 d   1      15.246  -4.398  12.397  0.00  0.00    -0.065 A 
ATOM     56  C15 PD4 d   1      14.377  -3.753  11.528  0.00  0.00    -0.031 A 
ATOM     57  H17 PD4 d   1      15.095  -4.286  13.465  0.00  0.00     0.085 H 
ATOM     58  C16 PD4 d   1      14.592  -3.946  10.174  0.00  0.00     0.163 A 
ATOM     59  H18 PD4 d   1      13.569  -3.128  11.892  0.00  0.00     0.090 H 
ATOM     60  N5  PD4 d   1      15.603  -4.723   9.731  0.00  0.00    -0.236 NA
ATOM     61  C17 PD4 d   1      16.442  -5.344  10.572  0.00  0.00     0.017 A 
ATOM     62  H19 PD4 d   1      17.230  -5.974  10.177  0.00  0.00     0.116 H 
BRANCH  58  63
ATOM     63  O2  PD4 d   1      13.740  -3.326   9.377  0.00  0.00    -0.339 OA
BRANCH  63  64
ATOM     64  C23 PD4 d   1      13.939  -3.305   7.939  0.00  0.00     0.012 C 
ATOM     65  H31 PD4 d   1      13.123  -2.741   7.464  0.00  0.00     0.067 H 
ATOM     66  H32 PD4 d   1      13.944  -4.336   7.554  0.00  0.00     0.067 H 
ATOM     67  H33 PD4 d   1      14.900  -2.823   7.709  0.00  0.00     0.067 H 
ENDBRANCH  63  64
ENDBRANCH  58  63
ENDBRANCH   1  54
TORSDOF 13
