REMARK  12 active torsions:
REMARK  status: ('A' for Active; 'I' for Inactive)
REMARK    1  A    between atoms: S29_2  and  C29_4 
REMARK    2  A    between atoms: S29_2  and  C37_10 
REMARK    3  A    between atoms: C37_10  and  C10_11 
REMARK    4  A    between atoms: C10_11  and  C11_12 
REMARK    5  A    between atoms: C11_12  and  C20_13 
REMARK    6  A    between atoms: C11_12  and  N12_17 
REMARK    7  A    between atoms: C20_13  and  C21_14 
REMARK    8  A    between atoms: C21_14  and  C23_15 
REMARK    9  A    between atoms: C23_15  and  C24_16 
REMARK   10  A    between atoms: C13_18  and  C14_20 
REMARK   11  A    between atoms: C19_25  and  C39_26 
REMARK   12  A    between atoms: C39_26  and  C40_28 
ROOT
ATOM      1  C11 25B d   1      14.277   8.507  -4.936  0.00  0.00     0.012 C 
ATOM      2  H10 25B d   1      15.377   8.519  -4.932  0.00  0.00     0.072 H 
ENDROOT
BRANCH   1   3
ATOM      3  C10 25B d   1      13.776   8.437  -3.483  0.00  0.00    -0.034 C 
ATOM      4  H8  25B d   1      14.037   7.447  -3.083  0.00  0.00     0.037 H 
ATOM      5  H9  25B d   1      14.299   9.215  -2.907  0.00  0.00     0.037 H 
BRANCH   3   6
ATOM      6  C37 25B d   1      12.280   8.639  -3.292  0.00  0.00     0.035 C 
ATOM      7  H6  25B d   1      11.802   8.633  -4.283  0.00  0.00     0.056 H 
ATOM      8  H7  25B d   1      11.893   7.801  -2.693  0.00  0.00     0.056 H 
BRANCH   6   9
ATOM      9  S29 25B d   1      11.864  10.099  -2.504  0.00  0.00     0.175 S 
ATOM     10  O38 25B d   1      11.883   9.861  -1.140  0.00  0.00    -0.223 OA
ATOM     11  O37 25B d   1      12.637  11.205  -3.004  0.00  0.00    -0.223 OA
BRANCH   9  12
ATOM     12  C29 25B d   1      10.277  10.400  -2.902  0.00  0.00     0.059 A 
ATOM     13  C30 25B d   1       9.773  11.685  -3.047  0.00  0.00    -0.062 A 
ATOM     14  C31 25B d   1       8.408  11.915  -3.356  0.00  0.00    -0.082 A 
ATOM     15  H1  25B d   1      10.438  12.532  -2.921  0.00  0.00     0.085 H 
ATOM     16  C32 25B d   1       7.513  10.854  -3.524  0.00  0.00    -0.083 A 
ATOM     17  H2  25B d   1       8.052  12.933  -3.464  0.00  0.00     0.083 H 
ATOM     18  C33 25B d   1       8.006   9.592  -3.383  0.00  0.00    -0.082 A 
ATOM     19  H3  25B d   1       6.469  11.029  -3.757  0.00  0.00     0.083 H 
ATOM     20  C34 25B d   1       9.351   9.385  -3.034  0.00  0.00    -0.062 A 
ATOM     21  H4  25B d   1       7.355   8.740  -3.542  0.00  0.00     0.083 H 
ATOM     22  H5  25B d   1       9.681   8.368  -2.858  0.00  0.00     0.085 H 
ENDBRANCH   9  12
ENDBRANCH   6   9
ENDBRANCH   3   6
ENDBRANCH   1   3
BRANCH   1  23
ATOM     23  C20 25B d   1      13.803   9.773  -5.709  0.00  0.00    -0.046 C 
ATOM     24  H11 25B d   1      13.976  10.668  -5.093  0.00  0.00     0.035 H 
ATOM     25  H12 25B d   1      12.730   9.686  -5.936  0.00  0.00     0.035 H 
BRANCH  23  26
ATOM     26  C21 25B d   1      14.588   9.887  -7.000  0.00  0.00    -0.064 C 
ATOM     27  H13 25B d   1      14.436   8.959  -7.571  0.00  0.00     0.033 H 
ATOM     28  H14 25B d   1      15.652   9.988  -6.740  0.00  0.00     0.033 H 
BRANCH  26  29
ATOM     29  C23 25B d   1      14.207  11.079  -7.918  0.00  0.00    -0.068 C 
ATOM     30  H15 25B d   1      13.246  10.862  -8.407  0.00  0.00     0.032 H 
ATOM     31  H16 25B d   1      14.987  11.206  -8.683  0.00  0.00     0.032 H 
BRANCH  29  32
ATOM     32  C24 25B d   1      14.081  12.343  -7.140  0.00  0.00    -0.077 C 
ATOM     33  H17 25B d   1      13.811  13.166  -7.818  0.00  0.00     0.027 H 
ATOM     34  H18 25B d   1      15.040  12.570  -6.652  0.00  0.00     0.027 H 
ATOM     35  H19 25B d   1      13.299  12.226  -6.375  0.00  0.00     0.027 H 
ENDBRANCH  29  32
ENDBRANCH  26  29
ENDBRANCH  23  26
ENDBRANCH   1  23
BRANCH   1  36
ATOM     36  N12 25B d   1      13.807   7.245  -5.564  0.00  0.00    -0.367 N 
ATOM     37  C13 25B d   1      14.592   6.259  -6.035  0.00  0.00     0.156 C 
ATOM     38  O39 25B d   1      15.895   6.369  -6.058  0.00  0.00    -0.177 OA
ATOM     39  H20 25B d   1      12.818   7.117  -5.644  0.00  0.00     0.161 HD
BRANCH  37  40
ATOM     40  C14 25B d   1      13.952   4.983  -6.579  0.00  0.00     0.021 C 
ATOM     41  C15 25B d   1      14.092   3.899  -5.499  0.00  0.00    -0.054 C 
ATOM     42  C16 25B d   1      13.500   2.565  -5.953  0.00  0.00    -0.064 C 
ATOM     43  H22 25B d   1      13.567   4.231  -4.591  0.00  0.00     0.034 H 
ATOM     44  H23 25B d   1      15.159   3.757  -5.274  0.00  0.00     0.034 H 
ATOM     45  C17 25B d   1      13.985   2.151  -7.328  0.00  0.00    -0.064 C 
ATOM     46  H24 25B d   1      12.404   2.656  -5.979  0.00  0.00     0.033 H 
ATOM     47  H25 25B d   1      13.787   1.788  -5.229  0.00  0.00     0.033 H 
ATOM     48  C18 25B d   1      13.859   3.259  -8.350  0.00  0.00    -0.054 C 
ATOM     49  H26 25B d   1      13.389   1.290  -7.667  0.00  0.00     0.033 H 
ATOM     50  H27 25B d   1      15.043   1.859  -7.255  0.00  0.00     0.033 H 
ATOM     51  C19 25B d   1      14.586   4.567  -7.882  0.00  0.00     0.019 C 
ATOM     52  H28 25B d   1      12.793   3.480  -8.506  0.00  0.00     0.034 H 
ATOM     53  H29 25B d   1      14.306   2.922  -9.297  0.00  0.00     0.034 H 
ATOM     54  H30 25B d   1      15.649   4.342  -7.712  0.00  0.00     0.053 H 
ATOM     55  H21 25B d   1      12.883   5.168  -6.762  0.00  0.00     0.054 H 
BRANCH  51  56
ATOM     56  C39 25B d   1      14.500   5.663  -8.888  0.00  0.00     0.164 C 
ATOM     57  O41 25B d   1      13.419   6.310  -9.042  0.00  0.00    -0.292 OA
BRANCH  56  58
ATOM     58  C40 25B d   1      15.719   6.018  -9.690  0.00  0.00     0.010 A 
ATOM     59  C41 25B d   1      16.836   5.164  -9.789  0.00  0.00    -0.068 A 
ATOM     60  C42 25B d   1      17.929   5.508 -10.566  0.00  0.00    -0.061 A 
ATOM     61  H31 25B d   1      16.839   4.224  -9.249  0.00  0.00     0.085 H 
ATOM     62  C43 25B d   1      17.872   6.707 -11.225  0.00  0.00     0.034 A 
ATOM     63  H34 25B d   1      18.792   4.857 -10.649  0.00  0.00     0.086 H 
ATOM     64  C44 25B d   1      16.814   7.553 -11.134  0.00  0.00    -0.061 A 
ATOM     65 CL22 25B d   1      19.252   7.288 -12.185  0.00  0.00    -0.084 Cl
ATOM     66  C45 25B d   1      15.705   7.206 -10.363  0.00  0.00    -0.068 A 
ATOM     67  H33 25B d   1      16.831   8.500 -11.662  0.00  0.00     0.086 H 
ATOM     68  H32 25B d   1      14.848   7.867 -10.299  0.00  0.00     0.085 H 
ENDBRANCH  56  58
ENDBRANCH  51  56
ENDBRANCH  37  40
ENDBRANCH   1  36
TORSDOF 12
