REMARK WARNING: 32 MAX_TORS EXCEEDED!!!
REMARK  36 active torsions:
REMARK  status: ('A' for Active; 'I' for Inactive)
REMARK    1  A    between atoms: C_1  and  CH3_3 
REMARK       I    between atoms: C_1  and  N_4 
REMARK    2  A    between atoms: N_4  and  CA_5 
REMARK    3  A    between atoms: CA_5  and  C1_6 
REMARK    4  A    between atoms: CA_5  and  CB_8 
REMARK       I    between atoms: C1_6  and  N1_11 
REMARK    5  A    between atoms: CB_8  and  OG1_9 
REMARK    6  A    between atoms: CB_8  and  CG2_10 
REMARK    7  A    between atoms: N1_11  and  CA1_12 
REMARK    8  A    between atoms: CA1_12  and  C2_13 
REMARK    9  A    between atoms: CA1_12  and  CB1_15 
REMARK       I    between atoms: C2_13  and  N2_19 
REMARK   10  A    between atoms: CB1_15  and  CG1_16 
REMARK   11  A    between atoms: CB1_15  and  CG21_17 
REMARK   12  A    between atoms: CG1_16  and  CD1_18 
REMARK   13  A    between atoms: N2_19  and  CA2_20 
REMARK   14  A    between atoms: CA2_20  and  C3_21 
REMARK   15  A    between atoms: CA2_20  and  CB2_22 
REMARK   16  A    between atoms: C3_21  and  N3_26 
REMARK   17  A    between atoms: CB2_22  and  CG_23 
REMARK   18  A    between atoms: CG_23  and  CD_24 
REMARK   19  A    between atoms: CD_24  and  CE_25 
REMARK   20  A    between atoms: N3_26  and  CA3_27 
REMARK   21  A    between atoms: CA3_27  and  C4_28 
REMARK   22  A    between atoms: CA3_27  and  CB3_30 
REMARK       I    between atoms: C4_28  and  N4_34 
REMARK   23  A    between atoms: CB3_30  and  CG3_31 
REMARK   24  A    between atoms: CG3_31  and  CD2_32 
REMARK   25  A    between atoms: CD2_32  and  CE1_33 
REMARK   26  A    between atoms: N4_34  and  CA4_35 
REMARK   27  A    between atoms: CA4_35  and  C5_36 
REMARK   28  A    between atoms: CA4_35  and  CB4_38 
REMARK       I    between atoms: C5_36  and  N5_43 
REMARK   29  A    between atoms: CB4_38  and  CG4_39 
REMARK   30  A    between atoms: CG4_39  and  CD3_40 
REMARK       I    between atoms: CD3_40  and  NE2_42 
REMARK   31  A    between atoms: N5_43  and  CA5_44 
REMARK   32  A    between atoms: CA5_44  and  C6_45 
REMARK   33  A    between atoms: CA5_44  and  CB5_47 
REMARK       I    between atoms: C6_45  and  N6_54 
REMARK   34  A    between atoms: CB5_47  and  CG5_48 
REMARK   35  A    between atoms: CG5_48  and  CD4_49 
REMARK   36  A    between atoms: CD4_49  and  NE_50 
REMARK       I    between atoms: NE_50  and  CZ_51 
REMARK       I    between atoms: CZ_51  and  NH1_52 
ROOT
ATOM      1  N3  2NC d   1       5.851  -0.635  14.878  0.00  0.00    -0.060 N 
ATOM      2  H   2NC d   1       6.007  -1.398  14.220  0.00  0.00     0.278 HD
ATOM      3  H   2NC d   1       6.514  -0.434  15.626  0.00  0.00     0.278 HD
ENDROOT
BRANCH   1   4
ATOM      4  C3  2NC d   1       4.718  -1.000  15.537  0.00  0.00     0.101 C 
ATOM      5  H   2NC d   1       4.812  -0.611  16.551  0.00  0.00     0.078 H 
ATOM      6  H   2NC d   1       3.883  -0.609  14.956  0.00  0.00     0.078 H 
BRANCH   4   7
ATOM      7  CA2 2NC d   1       4.482  -2.520  15.672  0.00  0.00     0.035 C 
ATOM      8  H   2NC d   1       4.362  -2.842  14.637  0.00  0.00     0.075 H 
BRANCH   7   9
ATOM      9  N2  2NC d   1       5.614  -3.261  16.255  0.00  0.00    -0.353 N 
ATOM     10  C2  2NC d   1       6.487  -3.839  15.456  0.00  0.00     0.241 C 
ATOM     11  O2  2NC d   1       6.456  -3.665  14.262  0.00  0.00    -0.271 OA
ATOM     12  H   2NC d   1       5.721  -3.326  17.267  0.00  0.00     0.163 HD
BRANCH  10  13
ATOM     13  CA1 2NC d   1       7.533  -4.765  16.118  0.00  0.00     0.092 C 
ATOM     14  H   2NC d   1       7.832  -4.333  17.073  0.00  0.00     0.088 H 
BRANCH  13  15
ATOM     15  N1  2NC d   1       6.931  -6.051  16.341  0.00  0.00    -0.346 N 
ATOM     16  C1  2NC d   1       6.815  -6.525  17.580  0.00  0.00     0.243 C 
ATOM     17  O1  2NC d   1       7.155  -5.871  18.582  0.00  0.00    -0.271 OA
ATOM     18  H   2NC d   1       6.593  -6.600  15.551  0.00  0.00     0.163 HD
BRANCH  16  19
ATOM     19  CA  2NC d   1       6.225  -7.940  17.759  0.00  0.00     0.113 C 
ATOM     20  H   2NC d   1       5.304  -7.855  18.336  0.00  0.00     0.091 H 
BRANCH  19  21
ATOM     21  N   2NC d   1       5.767  -8.586  16.529  0.00  0.00    -0.346 N 
ATOM     22  C   2NC d   1       4.490  -8.885  16.248  0.00  0.00     0.214 C 
ATOM     23  O   2NC d   1       3.546  -8.291  16.775  0.00  0.00    -0.274 OA
ATOM     24  H   2NC d   1       6.472  -8.827  15.832  0.00  0.00     0.163 HD
BRANCH  22  25
ATOM     25  CH3 2NC d   1       4.260  -9.694  14.999  0.00  0.00    -0.003 C 
ATOM     26  H   2NC d   1       3.533 -10.479  15.205  0.00  0.00     0.040 H 
ATOM     27  H   2NC d   1       3.881  -9.043  14.211  0.00  0.00     0.040 H 
ATOM     28  H   2NC d   1       5.201 -10.143  14.680  0.00  0.00     0.040 H 
ENDBRANCH  22  25
ENDBRANCH  19  21
BRANCH  19  29
ATOM     29  CB  2NC d   1       7.260  -8.763  18.492  0.00  0.00     0.060 C 
ATOM     30  H   2NC d   1       7.448  -8.277  19.449  0.00  0.00     0.086 H 
BRANCH  29  31
ATOM     31  OG1 2NC d   1       8.468  -8.823  17.745  0.00  0.00    -0.393 OA
ATOM     32  H   2NC d   1       8.295  -9.226  16.891  0.00  0.00     0.210 HD
ENDBRANCH  29  31
BRANCH  29  33
ATOM     33  CG2 2NC d   1       6.744 -10.214  18.761  0.00  0.00    -0.050 C 
ATOM     34  H   2NC d   1       6.561 -10.715  17.811  0.00  0.00     0.031 H 
ATOM     35  H   2NC d   1       7.495 -10.767  19.326  0.00  0.00     0.031 H 
ATOM     36  H   2NC d   1       5.818 -10.168  19.334  0.00  0.00     0.031 H 
ENDBRANCH  29  33
ENDBRANCH  19  29
ENDBRANCH  16  19
ENDBRANCH  13  15
BRANCH  13  37
ATOM     37  CB1 2NC d   1       8.859  -4.873  15.279  0.00  0.00    -0.030 C 
ATOM     38  H   2NC d   1       8.584  -5.221  14.283  0.00  0.00     0.043 H 
BRANCH  37  39
ATOM     39  CG1 2NC d   1       9.830  -5.926  15.846  0.00  0.00    -0.063 C 
ATOM     40  H   2NC d   1      10.745  -5.844  15.259  0.00  0.00     0.033 H 
ATOM     41  H   2NC d   1       9.308  -6.881  15.793  0.00  0.00     0.033 H 
BRANCH  39  42
ATOM     42  CD1 2NC d   1      10.248  -5.743  17.326  0.00  0.00    -0.076 C 
ATOM     43  H   2NC d   1      10.744  -4.780  17.446  0.00  0.00     0.027 H 
ATOM     44  H   2NC d   1       9.362  -5.778  17.959  0.00  0.00     0.027 H 
ATOM     45  H   2NC d   1      10.931  -6.543  17.611  0.00  0.00     0.027 H 
ENDBRANCH  39  42
ENDBRANCH  37  39
BRANCH  37  46
ATOM     46  CG2 2NC d   1       9.528  -3.495  15.127  0.00  0.00    -0.071 C 
ATOM     47  H   2NC d   1       8.845  -2.815  14.617  0.00  0.00     0.028 H 
ATOM     48  H   2NC d   1       9.769  -3.099  16.113  0.00  0.00     0.028 H 
ATOM     49  H   2NC d   1      10.442  -3.599  14.543  0.00  0.00     0.028 H 
ENDBRANCH  37  46
ENDBRANCH  13  37
ENDBRANCH  10  13
ENDBRANCH   7   9
BRANCH   7  50
ATOM     50  CB2 2NC d   1       3.207  -2.867  16.471  0.00  0.00    -0.045 C 
ATOM     51  H   2NC d   1       2.361  -2.468  15.911  0.00  0.00     0.036 H 
ATOM     52  H   2NC d   1       3.329  -2.442  17.468  0.00  0.00     0.036 H 
BRANCH  50  53
ATOM     53  CG  2NC d   1       2.954  -4.402  16.654  0.00  0.00    -0.064 C 
ATOM     54  H   2NC d   1       2.014  -4.536  17.190  0.00  0.00     0.033 H 
ATOM     55  H   2NC d   1       3.792  -4.827  17.206  0.00  0.00     0.033 H 
BRANCH  53  56
ATOM     56  CD  2NC d   1       2.849  -5.119  15.303  0.00  0.00    -0.068 C 
ATOM     57  H   2NC d   1       2.692  -6.183  15.478  0.00  0.00     0.032 H 
ATOM     58  H   2NC d   1       3.770  -4.957  14.743  0.00  0.00     0.032 H 
BRANCH  56  59
ATOM     59  CE  2NC d   1       1.689  -4.576  14.507  0.00  0.00    -0.077 C 
ATOM     60  H   2NC d   1       0.764  -4.730  15.063  0.00  0.00     0.027 H 
ATOM     61  H   2NC d   1       1.837  -3.510  14.333  0.00  0.00     0.027 H 
ATOM     62  H   2NC d   1       1.630  -5.097  13.551  0.00  0.00     0.027 H 
ENDBRANCH  56  59
ENDBRANCH  53  56
ENDBRANCH  50  53
ENDBRANCH   7  50
ENDBRANCH   4   7
ENDBRANCH   1   4
BRANCH   1  63
ATOM     63  CA3 2NC d   1       5.894   0.566  14.039  0.00  0.00     0.178 C 
ATOM     64  H   2NC d   1       5.672   1.442  14.649  0.00  0.00     0.099 H 
BRANCH  63  65
ATOM     65  C4  2NC d   1       4.834   0.446  12.905  0.00  0.00     0.249 C 
ATOM     66  O3  2NC d   1       4.610  -0.621  12.297  0.00  0.00    -0.271 OA
ATOM     67  N4  2NC d   1       4.220   1.560  12.570  0.00  0.00    -0.346 N 
ATOM     68  H   2NC d   1       4.453   2.435  13.040  0.00  0.00     0.163 HD
BRANCH  67  69
ATOM     69  CA4 2NC d   1       3.195   1.538  11.514  0.00  0.00     0.090 C 
ATOM     70  H   2NC d   1       3.405   0.747  10.794  0.00  0.00     0.087 H 
BRANCH  69  71
ATOM     71  C5  2NC d   1       3.214   2.932  10.878  0.00  0.00     0.241 C 
ATOM     72  O4  2NC d   1       3.273   3.923  11.592  0.00  0.00    -0.271 OA
ATOM     73  N5  2NC d   1       3.141   2.983   9.555  0.00  0.00    -0.346 N 
ATOM     74  H   2NC d   1       2.977   2.116   9.043  0.00  0.00     0.163 HD
BRANCH  73  75
ATOM     75  CA5 2NC d   1       3.285   4.222   8.798  0.00  0.00     0.089 C 
ATOM     76  H   2NC d   1       3.359   5.054   9.499  0.00  0.00     0.087 H 
BRANCH  75  77
ATOM     77  C6  2NC d   1       2.089   4.438   7.914  0.00  0.00     0.238 C 
ATOM     78  O5  2NC d   1       1.631   3.498   7.230  0.00  0.00    -0.271 OA
ATOM     79  N6  2NC d   1       1.448   5.601   8.000  0.00  0.00    -0.368 N 
ATOM     80  H   2NC d   1       0.568   5.736   7.503  0.00  0.00     0.159 HD
ATOM     81  H   2NC d   1       1.837   6.357   8.563  0.00  0.00     0.159 HD
ENDBRANCH  75  77
BRANCH  75  82
ATOM     82  CB5 2NC d   1       4.550   4.159   7.943  0.00  0.00    -0.036 C 
ATOM     83  H   2NC d   1       4.389   4.760   7.048  0.00  0.00     0.036 H 
ATOM     84  H   2NC d   1       4.747   3.115   7.700  0.00  0.00     0.036 H 
BRANCH  82  85
ATOM     85  CG5 2NC d   1       5.768   4.719   8.686  0.00  0.00    -0.048 C 
ATOM     86  H   2NC d   1       6.615   4.071   8.460  0.00  0.00     0.035 H 
ATOM     87  H   2NC d   1       5.516   4.755   9.746  0.00  0.00     0.035 H 
BRANCH  85  88
ATOM     88  CD4 2NC d   1       6.158   6.172   8.246  0.00  0.00     0.009 C 
ATOM     89  H   2NC d   1       6.072   6.196   7.160  0.00  0.00     0.064 H 
ATOM     90  H   2NC d   1       7.152   6.358   8.652  0.00  0.00     0.064 H 
BRANCH  88  91
ATOM     91  NE  2NC d   1       5.296   7.255   8.752  0.00  0.00    -0.227 N 
ATOM     92  CZ  2NC d   1       5.741   8.447   9.143  0.00  0.00     0.665 C 
ATOM     93  NH1 2NC d   1       7.047   8.725   9.129  0.00  0.00    -0.235 N 
ATOM     94  NH2 2NC d   1       4.890   9.373   9.568  0.00  0.00    -0.235 N 
ATOM     95  H   2NC d   1       7.715   8.021   8.816  0.00  0.00     0.174 HD
ATOM     96  H   2NC d   1       7.377   9.642   9.431  0.00  0.00     0.174 HD
ATOM     97  H   2NC d   1       3.890   9.173   9.596  0.00  0.00     0.174 HD
ATOM     98  H   2NC d   1       5.236  10.285   9.867  0.00  0.00     0.174 HD
ATOM     99  H   2NC d   1       4.293   7.080   8.806  0.00  0.00     0.177 HD
ENDBRANCH  88  91
ENDBRANCH  85  88
ENDBRANCH  82  85
ENDBRANCH  75  82
ENDBRANCH  73  75
ENDBRANCH  69  71
BRANCH  69 100
ATOM    100  CB4 2NC d   1       1.824   1.276  12.090  0.00  0.00    -0.030 C 
ATOM    101  H   2NC d   1       1.621   2.025  12.855  0.00  0.00     0.037 H 
ATOM    102  H   2NC d   1       1.810   0.269  12.507  0.00  0.00     0.037 H 
BRANCH 100 103
ATOM    103  CG4 2NC d   1       0.716   1.375  10.991  0.00  0.00     0.011 C 
ATOM    104  H   2NC d   1      -0.084   0.682  11.252  0.00  0.00     0.047 H 
ATOM    105  H   2NC d   1       1.169   1.135  10.029  0.00  0.00     0.047 H 
BRANCH 103 106
ATOM    106  CD3 2NC d   1       0.110   2.802  10.899  0.00  0.00     0.215 C 
ATOM    107  OE1 2NC d   1       0.145   3.531  11.858  0.00  0.00    -0.274 OA
ATOM    108  NE2 2NC d   1      -0.490   3.149   9.769  0.00  0.00    -0.370 N 
ATOM    109  H   2NC d   1      -0.943   4.060   9.691  0.00  0.00     0.159 HD
ATOM    110  H   2NC d   1      -0.499   2.505   8.978  0.00  0.00     0.159 HD
ENDBRANCH 103 106
ENDBRANCH 100 103
ENDBRANCH  69 100
ENDBRANCH  67  69
ENDBRANCH  63  65
BRANCH  63 111
ATOM    111  CB3 2NC d   1       7.298   0.723  13.427  0.00  0.00    -0.030 C 
ATOM    112  H   2NC d   1       7.434  -0.138  12.772  0.00  0.00     0.036 H 
ATOM    113  H   2NC d   1       7.981   0.817  14.271  0.00  0.00     0.036 H 
BRANCH 111 114
ATOM    114  CG3 2NC d   1       7.545   1.962  12.548  0.00  0.00    -0.063 C 
ATOM    115  H   2NC d   1       8.505   2.392  12.832  0.00  0.00     0.033 H 
ATOM    116  H   2NC d   1       6.719   2.657  12.703  0.00  0.00     0.033 H 
BRANCH 114 117
ATOM    117  CD2 2NC d   1       7.601   1.617  11.069  0.00  0.00    -0.068 C 
ATOM    118  H   2NC d   1       7.678   2.547  10.505  0.00  0.00     0.032 H 
ATOM    119  H   2NC d   1       6.700   1.058  10.816  0.00  0.00     0.032 H 
BRANCH 117 120
ATOM    120  CE1 2NC d   1       8.819   0.746  10.725  0.00  0.00    -0.077 C 
ATOM    121  H   2NC d   1       9.732   1.282  10.984  0.00  0.00     0.027 H 
ATOM    122  H   2NC d   1       8.770  -0.185  11.290  0.00  0.00     0.027 H 
ATOM    123  H   2NC d   1       8.816   0.525   9.658  0.00  0.00     0.027 H 
ENDBRANCH 117 120
ENDBRANCH 114 117
ENDBRANCH 111 114
ENDBRANCH  63 111
ENDBRANCH   1  63
TORSDOF 36
