REMARK  3 active torsions:
REMARK  status: ('A' for Active; 'I' for Inactive)
REMARK    1  A    between atoms: C16_18  and  C13_7 
REMARK    2  A    between atoms: C15_8  and  C20_10 
REMARK    3  A    between atoms: C14_17  and  C18_19 
ROOT
ATOM      1  C10 MMG d   1      36.846  32.262  68.408  0.00  0.00    -0.056 A 
ATOM      2  C17 MMG d   1      36.931  33.124  69.487  0.00  0.00     0.023 A 
ATOM      3  C11 MMG d   1      36.756  34.636  71.152  0.00  0.00    -0.010 A 
ATOM      4  C12 MMG d   1      38.979  31.445  69.067  0.00  0.00     0.015 A 
ATOM      5  C16 MMG d   1      37.906  31.402  68.200  0.00  0.00    -0.007 A 
ATOM      6  C18 MMG d   1      36.099  34.136  70.048  0.00  0.00     0.004 A 
ATOM      7  C19 MMG d   1      38.066  33.050  70.273  0.00  0.00     0.138 A 
ATOM      8  N21 MMG d   1      37.941  33.967  71.271  0.00  0.00    -0.349 N 
ATOM      9  N22 MMG d   1      39.121  32.249  70.129  0.00  0.00    -0.242 NA
ATOM     10  H6  MMG d   1      35.983  32.262  67.753  0.00  0.00     0.086 H 
ATOM     11  H11 MMG d   1      36.395  35.424  71.811  0.00  0.00     0.112 H 
ATOM     12  H12 MMG d   1      39.792  30.756  68.868  0.00  0.00     0.116 H 
ATOM     13  H13 MMG d   1      38.639  34.133  72.010  0.00  0.00     0.167 HD
ENDROOT
BRANCH   6  14
ATOM     14  C14 MMG d   1      34.806  34.656  69.654  0.00  0.00    -0.024 A 
ATOM     15  C6  MMG d   1      34.276  35.729  70.339  0.00  0.00    -0.071 A 
ATOM     16  C8  MMG d   1      33.044  36.245  70.006  0.00  0.00    -0.066 A 
ATOM     17  H3  MMG d   1      34.838  36.173  71.152  0.00  0.00     0.084 H 
ATOM     18  C15 MMG d   1      32.341  35.675  68.971  0.00  0.00     0.040 A 
ATOM     19  H5  MMG d   1      32.635  37.088  70.551  0.00  0.00     0.085 H 
ATOM     20  C9  MMG d   1      32.849  34.605  68.270  0.00  0.00    -0.066 A 
ATOM     21  C7  MMG d   1      34.084  34.098  68.618  0.00  0.00    -0.071 A 
ATOM     22  H10 MMG d   1      32.286  34.166  67.454  0.00  0.00     0.085 H 
ATOM     23  H4  MMG d   1      34.491  33.254  68.073  0.00  0.00     0.084 H 
BRANCH  18  24
ATOM     24  C20 MMG d   1      31.033  36.238  68.624  0.00  0.00     0.209 C 
ATOM     25  O23 MMG d   1      30.707  35.822  67.376  0.00  0.00    -0.644 OA
ATOM     26  O24 MMG d   1      30.378  36.966  69.357  0.00  0.00    -0.644 OA
ENDBRANCH  18  24
ENDBRANCH   6  14
BRANCH   5  27
ATOM     27  C13 MMG d   1      37.868  30.454  67.103  0.00  0.00    -0.025 A 
ATOM     28  C4  MMG d   1      39.020  29.899  66.585  0.00  0.00    -0.072 A 
ATOM     29  C2  MMG d   1      38.978  28.993  65.550  0.00  0.00    -0.082 A 
ATOM     30  H1  MMG d   1      39.979  30.183  67.002  0.00  0.00     0.084 H 
ATOM     31  C1  MMG d   1      37.768  28.627  65.012  0.00  0.00    -0.083 A 
ATOM     32  H8  MMG d   1      39.897  28.570  65.160  0.00  0.00     0.083 H 
ATOM     33  C3  MMG d   1      36.606  29.170  65.513  0.00  0.00    -0.082 A 
ATOM     34  H7  MMG d   1      37.728  27.914  64.197  0.00  0.00     0.083 H 
ATOM     35  C5  MMG d   1      36.662  30.073  66.551  0.00  0.00    -0.072 A 
ATOM     36  H9  MMG d   1      35.648  28.887  65.091  0.00  0.00     0.083 H 
ATOM     37  H2  MMG d   1      35.742  30.492  66.942  0.00  0.00     0.084 H 
ENDBRANCH   5  27
TORSDOF 3
