REMARK  4 active torsions:
REMARK  status: ('A' for Active; 'I' for Inactive)
REMARK    1  A    between atoms: C16_21  and  C15_8 
REMARK    2  A    between atoms: C15_8  and  C25_25 
REMARK    3  A    between atoms: C21_11  and  C20_10 
REMARK    4  A    between atoms: C18_22  and  C23_24 
ROOT
ATOM      1  C13 GMG d   1      36.151  34.252  70.656  0.00  0.00    -0.010 A 
ATOM      2  C21 GMG d   1      37.967  30.869  68.256  0.00  0.00    -0.007 A 
ATOM      3  C22 GMG d   1      36.661  32.576  69.228  0.00  0.00     0.023 A 
ATOM      4  C24 GMG d   1      37.725  32.779  70.087  0.00  0.00     0.138 A 
ATOM      5  C12 GMG d   1      36.781  31.579  68.271  0.00  0.00    -0.056 A 
ATOM      6  C14 GMG d   1      38.940  31.191  69.179  0.00  0.00     0.015 A 
ATOM      7  C23 GMG d   1      35.660  33.520  69.597  0.00  0.00     0.004 A 
ATOM      8  N26 GMG d   1      37.402  33.793  70.937  0.00  0.00    -0.349 N 
ATOM      9  N27 GMG d   1      38.887  32.131  70.122  0.00  0.00    -0.242 NA
ATOM     10  H7  GMG d   1      35.631  35.055  71.176  0.00  0.00     0.112 H 
ATOM     11  H15 GMG d   1      35.983  31.367  67.569  0.00  0.00     0.086 H 
ATOM     12  H16 GMG d   1      39.855  30.612  69.132  0.00  0.00     0.116 H 
ATOM     13  H17 GMG d   1      38.013  34.158  71.681  0.00  0.00     0.167 HD
ENDROOT
BRANCH   2  14
ATOM     14  C20 GMG d   1      38.219  29.798  67.307  0.00  0.00    -0.024 A 
ATOM     15  C10 GMG d   1      37.421  29.588  66.199  0.00  0.00    -0.071 A 
ATOM     16  C7  GMG d   1      37.687  28.570  65.308  0.00  0.00    -0.071 A 
ATOM     17  H6  GMG d   1      36.569  30.236  66.027  0.00  0.00     0.084 H 
ATOM     18  C17 GMG d   1      38.764  27.736  65.516  0.00  0.00    -0.026 A 
ATOM     19  H4  GMG d   1      37.049  28.426  64.444  0.00  0.00     0.084 H 
ATOM     20  C3  GMG d   1      39.039  26.713  64.634  0.00  0.00    -0.072 A 
ATOM     21  C19 GMG d   1      39.570  27.928  66.619  0.00  0.00    -0.025 A 
ATOM     22  C1  GMG d   1      40.120  25.886  64.857  0.00  0.00    -0.082 A 
ATOM     23  H12 GMG d   1      38.407  26.559  63.767  0.00  0.00     0.084 H 
ATOM     24  C2  GMG d   1      40.926  26.079  65.958  0.00  0.00    -0.082 A 
ATOM     25  H10 GMG d   1      40.336  25.081  64.164  0.00  0.00     0.083 H 
ATOM     26  C4  GMG d   1      40.652  27.101  66.840  0.00  0.00    -0.072 A 
ATOM     27  H11 GMG d   1      41.775  25.427  66.130  0.00  0.00     0.083 H 
ATOM     28  H1  GMG d   1      41.285  27.255  67.706  0.00  0.00     0.084 H 
ATOM     29  C11 GMG d   1      39.293  28.951  67.498  0.00  0.00    -0.061 A 
ATOM     30  H14 GMG d   1      39.933  29.095  68.361  0.00  0.00     0.086 H 
ENDBRANCH   2  14
BRANCH   7  31
ATOM     31  C18 GMG d   1      34.336  33.780  69.080  0.00  0.00    -0.024 A 
ATOM     32  C8  GMG d   1      33.751  32.946  68.149  0.00  0.00    -0.072 A 
ATOM     33  C5  GMG d   1      32.478  33.209  67.689  0.00  0.00    -0.076 A 
ATOM     34  H5  GMG d   1      34.293  32.083  67.779  0.00  0.00     0.084 H 
ATOM     35  C16 GMG d   1      31.784  34.305  68.155  0.00  0.00    -0.048 A 
ATOM     36  H2  GMG d   1      32.021  32.551  66.958  0.00  0.00     0.084 H 
ATOM     37  C6  GMG d   1      32.366  35.141  69.083  0.00  0.00    -0.076 A 
ATOM     38  C9  GMG d   1      33.636  34.876  69.543  0.00  0.00    -0.072 A 
ATOM     39  H3  GMG d   1      31.825  36.006  69.450  0.00  0.00     0.084 H 
ATOM     40  H13 GMG d   1      34.090  35.534  70.275  0.00  0.00     0.084 H 
BRANCH  35  41
ATOM     41  C15 GMG d   1      30.411  34.581  67.655  0.00  0.00     0.039 C 
ATOM     42  H8  GMG d   1      29.751  34.787  68.510  0.00  0.00     0.056 H 
ATOM     43  H9  GMG d   1      30.042  33.699  67.111  0.00  0.00     0.056 H 
BRANCH  41  44
ATOM     44  C25 GMG d   1      30.405  35.760  66.737  0.00  0.00     0.176 C 
ATOM     45  O28 GMG d   1      29.222  36.416  66.831  0.00  0.00    -0.648 OA
ATOM     46  O29 GMG d   1      31.327  36.091  66.004  0.00  0.00    -0.648 OA
ENDBRANCH  41  44
ENDBRANCH  35  41
ENDBRANCH   7  31
TORSDOF 4
