REMARK  7 active torsions:
REMARK  status: ('A' for Active; 'I' for Inactive)
REMARK    1  A    between atoms: N3_1  and  C8_6 
REMARK    2  A    between atoms: C5_3  and  N11_16 
REMARK    3  A    between atoms: C6_4  and  O13_18 
REMARK    4  A    between atoms: C8_6  and  C14_19 
REMARK    5  A    between atoms: C15_7  and  C9_14 
REMARK    6  A    between atoms: C14_19  and  C16_20 
REMARK    7  A    between atoms: C16_20  and  C19_22 
ROOT
ATOM      1  N3  PD6 d   1      20.152  -6.749  11.903  0.00  0.00    -0.376 N 
ATOM      2  C4  PD6 d   1      18.255  -5.251  11.859  0.00  0.00    -0.028 A 
ATOM      3  C5  PD6 d   1      18.217  -5.172  14.564  0.00  0.00     0.137 A 
ATOM      4  C6  PD6 d   1      20.121  -6.696  14.677  0.00  0.00     0.079 A 
ATOM      5  C7  PD6 d   1      21.054  -7.474  12.610  0.00  0.00     0.013 A 
ATOM      6  C1  PD6 d   1      19.212  -6.000  12.547  0.00  0.00     0.049 A 
ATOM      7  C2  PD6 d   1      19.188  -5.962  13.942  0.00  0.00     0.069 A 
ATOM      8  C9  PD6 d   1      17.299  -4.475  12.512  0.00  0.00     0.071 A 
ATOM      9  N10 PD6 d   1      17.308  -4.456  13.867  0.00  0.00    -0.230 NA
ATOM     10  C12 PD6 d   1      21.065  -7.458  13.997  0.00  0.00    -0.053 A 
ATOM     11  H1  PD6 d   1      18.256  -5.274  10.775  0.00  0.00     0.090 H 
ATOM     12  H2  PD6 d   1      22.049  -7.133  12.287  0.00  0.00     0.070 H 
ATOM     13  H3  PD6 d   1      20.912  -8.523  12.312  0.00  0.00     0.070 H 
ATOM     14  H12 PD6 d   1      21.805  -8.036  14.548  0.00  0.00     0.083 H 
ENDROOT
BRANCH   1  15
ATOM     15  C8  PD6 d   1      20.289  -6.868  10.453  0.00  0.00    -0.004 C 
ATOM     16  H4  PD6 d   1      19.314  -6.666   9.986  0.00  0.00     0.064 H 
ATOM     17  H5  PD6 d   1      20.607  -7.892  10.209  0.00  0.00     0.064 H 
BRANCH  15  18
ATOM     18  C14 PD6 d   1      21.322  -5.881   9.890  0.00  0.00    -0.050 C 
ATOM     19  H14 PD6 d   1      21.331  -5.991   8.796  0.00  0.00     0.035 H 
ATOM     20  H15 PD6 d   1      22.307  -6.157  10.295  0.00  0.00     0.035 H 
BRANCH  18  21
ATOM     21  C16 PD6 d   1      21.079  -4.400  10.212  0.00  0.00    -0.067 C 
ATOM     22  H16 PD6 d   1      21.081  -4.279  11.305  0.00  0.00     0.032 H 
ATOM     23  H17 PD6 d   1      20.093  -4.117   9.814  0.00  0.00     0.032 H 
BRANCH  21  24
ATOM     24  C19 PD6 d   1      22.130  -3.450   9.619  0.00  0.00    -0.076 C 
ATOM     25  H19 PD6 d   1      21.884  -2.414   9.894  0.00  0.00     0.027 H 
ATOM     26  H20 PD6 d   1      22.135  -3.547   8.523  0.00  0.00     0.027 H 
ATOM     27  H21 PD6 d   1      23.123  -3.709  10.015  0.00  0.00     0.027 H 
ENDBRANCH  21  24
ENDBRANCH  18  21
ENDBRANCH  15  18
ENDBRANCH   1  15
BRANCH   4  28
ATOM     28  O13 PD6 d   1      20.190  -6.733  15.998  0.00  0.00    -0.360 OA
ATOM     29  H13 PD6 d   1      21.040  -6.414  16.279  0.00  0.00     0.217 HD
ENDBRANCH   4  28
BRANCH   8  30
ATOM     30  C15 PD6 d   1      16.279  -3.697  11.750  0.00  0.00    -0.007 A 
ATOM     31  C17 PD6 d   1      15.045  -3.427  12.345  0.00  0.00    -0.071 A 
ATOM     32  C20 PD6 d   1      14.060  -2.715  11.660  0.00  0.00    -0.082 A 
ATOM     33  H6  PD6 d   1      14.850  -3.775  13.353  0.00  0.00     0.084 H 
ATOM     34  C22 PD6 d   1      14.286  -2.264  10.356  0.00  0.00    -0.083 A 
ATOM     35  H7  PD6 d   1      13.111  -2.510  12.143  0.00  0.00     0.083 H 
ATOM     36  C21 PD6 d   1      15.510  -2.535   9.743  0.00  0.00    -0.082 A 
ATOM     37  H9  PD6 d   1      13.519  -1.710   9.827  0.00  0.00     0.083 H 
ATOM     38  C18 PD6 d   1      16.481  -3.247  10.443  0.00  0.00    -0.071 A 
ATOM     39  H8  PD6 d   1      15.703  -2.195   8.732  0.00  0.00     0.083 H 
ATOM     40  H18 PD6 d   1      17.426  -3.459   9.957  0.00  0.00     0.084 H 
ENDBRANCH   8  30
BRANCH   3  41
ATOM     41  N11 PD6 d   1      18.088  -5.051  15.890  0.00  0.00    -0.383 N 
ATOM     42  H10 PD6 d   1      17.349  -4.451  16.283  0.00  0.00     0.157 HD
ATOM     43  H11 PD6 d   1      18.728  -5.558  16.518  0.00  0.00     0.157 HD
ENDBRANCH   3  41
TORSDOF 7
