REMARK  8 active torsions:
REMARK  status: ('A' for Active; 'I' for Inactive)
REMARK    1  A    between atoms: C5_3  and  C7_7 
REMARK    2  A    between atoms: C9_11  and  N13_13 
REMARK    3  A    between atoms: C19_15  and  C20_37 
REMARK    4  A    between atoms: C16_18  and  N21_20 
REMARK       I    between atoms: N21_20  and  C22_21 
REMARK    5  A    between atoms: C22_21  and  C23_22 
REMARK    6  A    between atoms: C27_25  and  C46_28 
REMARK    7  A    between atoms: C46_28  and  N48_29 
REMARK    8  A    between atoms: N51_32  and  C54_33 
ROOT
ATOM      1  N21 STI d   1      18.124  -5.304 -18.848  0.00  0.00    -0.323 N 
ATOM      2  C22 STI d   1      16.821  -5.438 -19.143  0.00  0.00     0.256 C 
ATOM      3  O29 STI d   1      16.294  -4.756 -20.007  0.00  0.00    -0.267 OA
ATOM      4  H   STI d   1      18.467  -5.759 -18.002  0.00  0.00     0.169 HD
ENDROOT
BRANCH   1   5
ATOM      5  C16 STI d   1      19.042  -4.587 -19.615  0.00  0.00     0.037 A 
ATOM      6  C17 STI d   1      20.415  -4.821 -19.421  0.00  0.00    -0.057 A 
ATOM      7  C18 STI d   1      21.441  -4.178 -20.121  0.00  0.00    -0.073 A 
ATOM      8  H   STI d   1      20.701  -5.558 -18.670  0.00  0.00     0.086 H 
ATOM      9  C19 STI d   1      21.147  -3.226 -21.073  0.00  0.00    -0.035 A 
ATOM     10  H   STI d   1      22.480  -4.432 -19.912  0.00  0.00     0.084 H 
ATOM     11  C14 STI d   1      19.722  -2.954 -21.307  0.00  0.00     0.057 A 
ATOM     12  N13 STI d   1      19.462  -2.047 -22.258  0.00  0.00    -0.188 N 
ATOM     13  C15 STI d   1      18.712  -3.632 -20.596  0.00  0.00    -0.030 A 
ATOM     14  H   STI d   1      19.501  -2.332 -23.236  0.00  0.00     0.184 HD
ATOM     15  H   STI d   1      17.665  -3.415 -20.807  0.00  0.00     0.090 H 
BRANCH   9  16
ATOM     16  C20 STI d   1      22.208  -2.487 -21.860  0.00  0.00    -0.049 C 
ATOM     17  H   STI d   1      22.076  -2.688 -22.923  0.00  0.00     0.033 H 
ATOM     18  H   STI d   1      22.114  -1.417 -21.677  0.00  0.00     0.033 H 
ATOM     19  H   STI d   1      23.195  -2.826 -21.544  0.00  0.00     0.033 H 
ENDBRANCH   9  16
BRANCH  12  20
ATOM     20  C9  STI d   1      19.155  -0.787 -21.967  0.00  0.00     0.727 A 
ATOM     21  N10 STI d   1      18.850  -0.424 -20.697  0.00  0.00    -0.075 NA
ATOM     22  C11 STI d   1      18.540   0.844 -20.439  0.00  0.00     0.023 A 
ATOM     23  C12 STI d   1      18.530   1.762 -21.483  0.00  0.00    -0.036 A 
ATOM     24  H   STI d   1      18.297   1.158 -19.424  0.00  0.00     0.115 H 
ATOM     25  C7  STI d   1      18.855   1.375 -22.793  0.00  0.00     0.089 A 
ATOM     26  H   STI d   1      18.265   2.800 -21.281  0.00  0.00     0.089 H 
ATOM     27  N8  STI d   1      19.150   0.072 -23.006  0.00  0.00    -0.062 NA
BRANCH  25  28
ATOM     28  C5  STI d   1      18.847   2.369 -23.934  0.00  0.00     0.011 A 
ATOM     29  C6  STI d   1      18.875   3.747 -23.680  0.00  0.00    -0.068 A 
ATOM     30  C1  STI d   1      18.848   4.655 -24.743  0.00  0.00    -0.065 A 
ATOM     31  H   STI d   1      18.918   4.111 -22.654  0.00  0.00     0.085 H 
ATOM     32  C2  STI d   1      18.786   4.176 -26.045  0.00  0.00     0.002 A 
ATOM     33  H   STI d   1      18.875   5.728 -24.552  0.00  0.00     0.085 H 
ATOM     34  N3  STI d   1      18.759   2.852 -26.274  0.00  0.00    -0.272 NA
ATOM     35  H   STI d   1      18.759   4.874 -26.882  0.00  0.00     0.114 H 
ATOM     36  C4  STI d   1      18.786   1.945 -25.270  0.00  0.00     0.014 A 
ATOM     37  H   STI d   1      18.760   0.880 -25.500  0.00  0.00     0.116 H 
ENDBRANCH  25  28
ENDBRANCH  12  20
ENDBRANCH   1   5
BRANCH   2  38
ATOM     38  C23 STI d   1      15.797  -6.294 -18.430  0.00  0.00     0.032 A 
ATOM     39  C25 STI d   1      15.841  -6.499 -17.046  0.00  0.00    -0.067 A 
ATOM     40  C26 STI d   1      14.794  -7.245 -16.481  0.00  0.00    -0.074 A 
ATOM     41  H   STI d   1      16.650  -6.098 -16.435  0.00  0.00     0.085 H 
ATOM     42  C27 STI d   1      13.712  -7.787 -17.251  0.00  0.00    -0.041 A 
ATOM     43  H   STI d   1      14.804  -7.421 -15.405  0.00  0.00     0.084 H 
ATOM     44  C28 STI d   1      13.674  -7.581 -18.631  0.00  0.00    -0.074 A 
ATOM     45  C29 STI d   1      14.718  -6.824 -19.190  0.00  0.00    -0.067 A 
ATOM     46  H   STI d   1      12.872  -7.988 -19.247  0.00  0.00     0.084 H 
ATOM     47  H   STI d   1      14.700  -6.633 -20.263  0.00  0.00     0.085 H 
BRANCH  42  48
ATOM     48  C46 STI d   1      12.632  -8.605 -16.602  0.00  0.00     0.014 C 
ATOM     49  H   STI d   1      12.833  -9.616 -16.957  0.00  0.00     0.070 H 
ATOM     50  H   STI d   1      11.720  -8.066 -16.857  0.00  0.00     0.070 H 
BRANCH  48  51
ATOM     51  N48 STI d   1      12.547  -8.748 -15.339  0.00  0.00    -0.405 N 
ATOM     52  C53 STI d   1      12.964  -7.586 -14.559  0.00  0.00     0.005 C 
ATOM     53  C52 STI d   1      11.834  -7.245 -13.595  0.00  0.00     0.004 C 
ATOM     54  H   STI d   1      13.169  -6.741 -15.217  0.00  0.00     0.066 H 
ATOM     55  H   STI d   1      13.878  -7.807 -14.008  0.00  0.00     0.066 H 
ATOM     56  N51 STI d   1      11.698  -8.390 -12.671  0.00  0.00    -0.414 N 
ATOM     57  H   STI d   1      10.903  -7.072 -14.136  0.00  0.00     0.066 H 
ATOM     58  H   STI d   1      12.057  -6.330 -13.046  0.00  0.00     0.066 H 
ATOM     59  C50 STI d   1      11.886  -9.770 -13.111  0.00  0.00     0.004 C 
ATOM     60  C49 STI d   1      11.910  -9.885 -14.658  0.00  0.00     0.005 C 
ATOM     61  H   STI d   1      11.053 -10.365 -12.737  0.00  0.00     0.066 H 
ATOM     62  H   STI d   1      12.843 -10.124 -12.727  0.00  0.00     0.066 H 
ATOM     63  H   STI d   1      12.491 -10.774 -14.905  0.00  0.00     0.066 H 
ATOM     64  H   STI d   1      10.873  -9.920 -14.993  0.00  0.00     0.066 H 
BRANCH  56  65
ATOM     65  C54 STI d   1      11.359  -8.092 -11.285  0.00  0.00    -0.023 C 
ATOM     66  H   STI d   1      12.132  -7.458 -10.851  0.00  0.00     0.055 H 
ATOM     67  H   STI d   1      10.401  -7.574 -11.250  0.00  0.00     0.055 H 
ATOM     68  H   STI d   1      11.291  -9.022 -10.721  0.00  0.00     0.055 H 
ENDBRANCH  56  65
ENDBRANCH  48  51
ENDBRANCH  42  48
ENDBRANCH   2  38
TORSDOF 8
