REMARK  7 active torsions:
REMARK  status: ('A' for Active; 'I' for Inactive)
REMARK    1  A    between atoms: N12_26  and  C2_2 
REMARK       I    between atoms: C13_5  and  N12_26 
REMARK       I    between atoms: N14_27  and  C13_5 
REMARK    2  A    between atoms: C16_6  and  N14_27 
REMARK    3  A    between atoms: O22_12  and  C19_9 
REMARK    4  A    between atoms: C23_29  and  O22_12 
REMARK    5  A    between atoms: C29_31  and  C27_15 
REMARK    6  A    between atoms: N30_17  and  C31_18 
REMARK       I    between atoms: N30_17  and  C29_31 
REMARK    7  A    between atoms: C6_20  and  C7_21 
ROOT
ATOM      1  C16 BAX d   1       2.338   2.378  22.900  0.00  0.00     0.036 A 
ATOM      2  C17 BAX d   1       1.656   2.271  21.665  0.00  0.00    -0.054 A 
ATOM      3  C18 BAX d   1       2.333   1.822  20.527  0.00  0.00    -0.048 A 
ATOM      4  C19 BAX d   1       3.707   1.491  20.634  0.00  0.00     0.076 A 
ATOM      5  C20 BAX d   1       4.382   1.594  21.851  0.00  0.00    -0.048 A 
ATOM      6  C21 BAX d   1       3.692   2.044  22.967  0.00  0.00    -0.054 A 
ATOM      7  H   BAX d   1       0.601   2.539  21.601  0.00  0.00     0.087 H 
ATOM      8  H   BAX d   1       1.813   1.728  19.574  0.00  0.00     0.087 H 
ATOM      9  H   BAX d   1       5.436   1.325  21.924  0.00  0.00     0.087 H 
ATOM     10  H   BAX d   1       4.218   2.139  23.917  0.00  0.00     0.087 H 
ENDROOT
BRANCH   1  11
ATOM     11  N14 BAX d   1       1.748   2.809  24.051  0.00  0.00    -0.309 N 
ATOM     12  C13 BAX d   1       0.448   2.704  24.285  0.00  0.00     0.325 C 
ATOM     13  N12 BAX d   1      -0.022   3.487  25.264  0.00  0.00    -0.309 N 
ATOM     14  O15 BAX d   1      -0.262   1.946  23.616  0.00  0.00    -0.247 OA
ATOM     15  H   BAX d   1       0.609   4.214  25.600  0.00  0.00     0.170 HD
ATOM     16  H   BAX d   1       2.337   3.233  24.768  0.00  0.00     0.170 HD
BRANCH  13  17
ATOM     17  C2  BAX d   1      -1.228   3.428  25.857  0.00  0.00     0.037 A 
ATOM     18  C1  BAX d   1      -1.978   2.259  25.948  0.00  0.00    -0.041 A 
ATOM     19  C6  BAX d   1      -3.219   2.265  26.584  0.00  0.00     0.071 A 
ATOM     20  H   BAX d   1      -1.593   1.333  25.520  0.00  0.00     0.088 H 
ATOM     21  C5  BAX d   1      -3.710   3.535  27.168  0.00  0.00     0.049 A 
ATOM     22  C4  BAX d   1      -2.920   4.660  27.100  0.00  0.00    -0.059 A 
ATOM     23 CL11 BAX d   1      -5.276   3.599  28.042  0.00  0.00    -0.083 Cl
ATOM     24  C3  BAX d   1      -1.698   4.591  26.452  0.00  0.00    -0.055 A 
ATOM     25  H   BAX d   1      -3.252   5.595  27.551  0.00  0.00     0.086 H 
ATOM     26  H   BAX d   1      -1.079   5.487  26.407  0.00  0.00     0.087 H 
BRANCH  19  27
ATOM     27  C7  BAX d   1      -4.050   0.997  26.698  0.00  0.00     0.419 C 
ATOM     28  F8  BAX d   1      -5.238   1.142  26.211  0.00  0.00    -0.166 F 
ATOM     29  F9  BAX d   1      -3.480   0.001  26.122  0.00  0.00    -0.166 F 
ATOM     30  F10 BAX d   1      -4.225   0.649  27.928  0.00  0.00    -0.166 F 
ENDBRANCH  19  27
ENDBRANCH  13  17
ENDBRANCH   1  11
BRANCH   4  31
ATOM     31  O22 BAX d   1       4.464   1.088  19.562  0.00  0.00    -0.311 OA
BRANCH  31  32
ATOM     32  C23 BAX d   1       4.155   0.236  18.558  0.00  0.00     0.079 A 
ATOM     33  C24 BAX d   1       3.713  -1.029  18.888  0.00  0.00    -0.033 A 
ATOM     34  C25 BAX d   1       3.417  -1.928  17.863  0.00  0.00     0.006 A 
ATOM     35  H   BAX d   1       3.597  -1.321  19.932  0.00  0.00     0.090 H 
ATOM     36  N26 BAX d   1       3.581  -1.537  16.578  0.00  0.00    -0.255 NA
ATOM     37  H   BAX d   1       3.059  -2.931  18.094  0.00  0.00     0.114 H 
ATOM     38  C27 BAX d   1       4.041  -0.309  16.236  0.00  0.00     0.126 A 
ATOM     39  C28 BAX d   1       4.328   0.623  17.229  0.00  0.00    -0.017 A 
ATOM     40  H   BAX d   1       4.677   1.624  16.976  0.00  0.00     0.091 H 
BRANCH  38  41
ATOM     41  C29 BAX d   1       4.131   0.000  14.762  0.00  0.00     0.269 C 
ATOM     42  N30 BAX d   1       4.101  -1.034  13.892  0.00  0.00    -0.360 N 
ATOM     43  H   BAX d   1       4.683  -1.853  14.069  0.00  0.00     0.162 HD
ATOM     44  O32 BAX d   1       4.155   1.173  14.391  0.00  0.00    -0.266 OA
BRANCH  42  45
ATOM     45  C31 BAX d   1       3.253  -1.004  12.705  0.00  0.00    -0.018 C 
ATOM     46  H   BAX d   1       2.211  -0.901  13.007  0.00  0.00     0.056 H 
ATOM     47  H   BAX d   1       3.537  -0.158  12.079  0.00  0.00     0.056 H 
ATOM     48  H   BAX d   1       3.380  -1.931  12.146  0.00  0.00     0.056 H 
ENDBRANCH  42  45
ENDBRANCH  38  41
ENDBRANCH  31  32
ENDBRANCH   4  31
TORSDOF 7
