REMARK  10 active torsions:
REMARK  status: ('A' for Active; 'I' for Inactive)
REMARK    1  A    between atoms: C1_2  and  C4_4 
REMARK    2  A    between atoms: C4_4  and  N5_5 
REMARK    3  A    between atoms: C4_4  and  C6_6 
REMARK    4  A    between atoms: C6_6  and  C7_7 
REMARK    5  A    between atoms: C10_10  and  C13_13 
REMARK    6  A    between atoms: C17_15  and  N20_20 
REMARK    7  A    between atoms: C15_17  and  N19_18 
REMARK    8  A    between atoms: N20_20  and  C21_21 
REMARK    9  A    between atoms: C21_21  and  C22_22 
REMARK   10  A    between atoms: C21_21  and  C23_23 
ROOT
ATOM      1  C13 LX0 d   1       8.660   0.683  19.347  0.00  0.00     0.197 A 
ATOM      2  N18 LX0 d   1       7.695   0.928  20.264  0.00  0.00    -0.041 NA
ATOM      3  C17 LX0 d   1       6.677   0.052  20.435  0.00  0.00     0.740 A 
ATOM      4  N16 LX0 d   1       6.616  -1.069  19.678  0.00  0.00     0.130 NA
ATOM      5  C15 LX0 d   1       7.579  -1.314  18.753  0.00  0.00     0.738 A 
ATOM      6  N14 LX0 d   1       8.591  -0.434  18.589  0.00  0.00    -0.042 NA
ENDROOT
BRANCH   3   7
ATOM      7  N20 LX0 d   1       5.714   0.300  21.359  0.00  0.00    -0.214 N 
ATOM      8  H13 LX0 d   1       5.018  -0.432  21.559  0.00  0.00     0.178 HD
BRANCH   7   9
ATOM      9  C21 LX0 d   1       5.630   1.568  22.079  0.00  0.00     0.048 C 
ATOM     10  H14 LX0 d   1       6.636   1.818  22.446  0.00  0.00     0.080 H 
BRANCH   9  11
ATOM     11  C22 LX0 d   1       4.705   1.381  23.287  0.00  0.00    -0.053 C 
ATOM     12  H15 LX0 d   1       4.630   2.328  23.842  0.00  0.00     0.030 H 
ATOM     13  H16 LX0 d   1       5.115   0.602  23.946  0.00  0.00     0.030 H 
ATOM     14  H17 LX0 d   1       3.706   1.079  22.940  0.00  0.00     0.030 H 
ENDBRANCH   9  11
BRANCH   9  15
ATOM     15  C23 LX0 d   1       5.168   2.703  21.222  0.00  0.00    -0.035 A 
ATOM     16  C28 LX0 d   1       4.755   2.488  19.899  0.00  0.00    -0.074 A 
ATOM     17  C27 LX0 d   1       4.323   3.519  19.065  0.00  0.00    -0.072 A 
ATOM     18  H18 LX0 d   1       4.772   1.477  19.508  0.00  0.00     0.084 H 
ATOM     19  C26 LX0 d   1       4.294   4.819  19.554  0.00  0.00    -0.026 A 
ATOM     20  H19 LX0 d   1       4.014   3.308  18.048  0.00  0.00     0.084 H 
ATOM     21  C32 LX0 d   1       3.871   5.884  18.763  0.00  0.00    -0.072 A 
ATOM     22  C25 LX0 d   1       4.733   5.068  20.955  0.00  0.00    -0.025 A 
ATOM     23  C31 LX0 d   1       3.861   7.170  19.302  0.00  0.00    -0.082 A 
ATOM     24  H20 LX0 d   1       3.553   5.715  17.740  0.00  0.00     0.084 H 
ATOM     25  C30 LX0 d   1       4.273   7.403  20.622  0.00  0.00    -0.082 A 
ATOM     26  H21 LX0 d   1       3.530   8.002  18.691  0.00  0.00     0.083 H 
ATOM     27  C29 LX0 d   1       4.708   6.366  21.449  0.00  0.00    -0.072 A 
ATOM     28  H22 LX0 d   1       4.253   8.415  21.010  0.00  0.00     0.083 H 
ATOM     29  H23 LX0 d   1       5.023   6.571  22.466  0.00  0.00     0.084 H 
ATOM     30  C24 LX0 d   1       5.161   4.000  21.742  0.00  0.00    -0.064 A 
ATOM     31  H24 LX0 d   1       5.489   4.176  22.760  0.00  0.00     0.085 H 
ENDBRANCH   9  15
ENDBRANCH   7   9
ENDBRANCH   3   7
BRANCH   1  32
ATOM     32  C10 LX0 d   1       9.760   1.667  19.148  0.00  0.00     0.013 A 
ATOM     33  C11 LX0 d   1       9.839   2.803  19.961  0.00  0.00    -0.069 A 
ATOM     34  C12 LX0 d   1      10.856   3.737  19.767  0.00  0.00    -0.076 A 
ATOM     35  H8  LX0 d   1       9.107   2.958  20.745  0.00  0.00     0.085 H 
ATOM     36  C7  LX0 d   1      11.800   3.537  18.753  0.00  0.00    -0.056 A 
ATOM     37  H7  LX0 d   1      10.915   4.615  20.399  0.00  0.00     0.084 H 
ATOM     38  C8  LX0 d   1      11.711   2.415  17.933  0.00  0.00    -0.076 A 
ATOM     39  C9  LX0 d   1      10.696   1.478  18.129  0.00  0.00    -0.069 A 
ATOM     40  H10 LX0 d   1      12.434   2.269  17.139  0.00  0.00     0.084 H 
ATOM     41  H9  LX0 d   1      10.634   0.604  17.491  0.00  0.00     0.085 H 
BRANCH  36  42
ATOM     42  C6  LX0 d   1      12.889   4.566  18.540  0.00  0.00    -0.005 C 
ATOM     43  H5  LX0 d   1      12.845   4.905  17.494  0.00  0.00     0.044 H 
ATOM     44  H6  LX0 d   1      12.697   5.417  19.210  0.00  0.00     0.044 H 
BRANCH  42  45
ATOM     45  C4  LX0 d   1      14.297   4.046  18.817  0.00  0.00     0.186 C 
ATOM     46  H1  LX0 d   1      14.506   3.158  18.202  0.00  0.00     0.101 H 
BRANCH  45  47
ATOM     47  C1  LX0 d   1      15.243   5.158  18.463  0.00  0.00     0.204 C 
ATOM     48  O3  LX0 d   1      15.766   5.828  19.385  0.00  0.00    -0.646 OA
ATOM     49  O2  LX0 d   1      15.465   5.389  17.253  0.00  0.00    -0.646 OA
ENDBRANCH  45  47
BRANCH  45  50
ATOM     50  N5  LX0 d   1      14.420   3.706  20.228  0.00  0.00    -0.065 N 
ATOM     51  H2  LX0 d   1      13.780   2.959  20.451  0.00  0.00     0.275 HD
ATOM     52  H3  LX0 d   1      14.201   4.514  20.789  0.00  0.00     0.275 HD
ATOM     53  H4  LX0 d   1      15.364   3.409  20.421  0.00  0.00     0.275 HD
ENDBRANCH  45  50
ENDBRANCH  42  45
ENDBRANCH  36  42
ENDBRANCH   1  32
BRANCH   5  54
ATOM     54  N19 LX0 d   1       7.543  -2.435  17.993  0.00  0.00    -0.230 N 
ATOM     55  H11 LX0 d   1       6.776  -3.112  18.110  0.00  0.00     0.174 HD
ATOM     56  H12 LX0 d   1       8.283  -2.610  17.298  0.00  0.00     0.174 HD
ENDBRANCH   5  54
TORSDOF 10
