REMARK  5 active torsions:
REMARK  status: ('A' for Active; 'I' for Inactive)
REMARK    1  A    between atoms: N_1  and  CA_2 
REMARK    2  A    between atoms: CA_2  and  CB_3 
REMARK    3  A    between atoms: CA_2  and  C_11 
REMARK    4  A    between atoms: CB_3  and  CG_4 
REMARK    5  A    between atoms: CE2_8  and  OH_10 
ROOT
ATOM      1  CG  MTY d   1       3.732  17.059  11.398  0.00  0.00    -0.053 A 
ATOM      2  CD1 MTY d   1       4.309  16.309  10.380  0.00  0.00    -0.077 A 
ATOM      3  CE1 MTY d   1       4.468  14.930  10.505  0.00  0.00    -0.080 A 
ATOM      4  CD2 MTY d   1       3.322  16.412  12.556  0.00  0.00    -0.045 A 
ATOM      5  CE2 MTY d   1       3.477  15.027  12.674  0.00  0.00     0.066 A 
ATOM      6  CZ  MTY d   1       4.050  14.292  11.654  0.00  0.00    -0.051 A 
ATOM      7  H7  MTY d   1       4.641  16.804   9.475  0.00  0.00     0.084 H 
ATOM      8  H8  MTY d   1       4.919  14.360   9.701  0.00  0.00     0.083 H 
ATOM      9  H9  MTY d   1       2.882  16.980  13.368  0.00  0.00     0.088 H 
ATOM     10  H10 MTY d   1       4.170  13.220  11.756  0.00  0.00     0.087 H 
ENDROOT
BRANCH   1  11
ATOM     11  CB  MTY d   1       3.582  18.539  11.210  0.00  0.00    -0.005 C 
ATOM     12  H5  MTY d   1       3.461  18.753  10.138  0.00  0.00     0.044 H 
ATOM     13  H6  MTY d   1       2.689  18.880  11.755  0.00  0.00     0.044 H 
BRANCH  11  14
ATOM     14  CA  MTY d   1       4.798  19.292  11.731  0.00  0.00     0.186 C 
ATOM     15  H4  MTY d   1       5.682  19.020  11.135  0.00  0.00     0.101 H 
BRANCH  14  16
ATOM     16  N   MTY d   1       5.051  18.950  13.159  0.00  0.00    -0.065 N 
ATOM     17  H1  MTY d   1       5.231  17.962  13.241  0.00  0.00     0.275 HD
ATOM     18  H2  MTY d   1       4.243  19.191  13.711  0.00  0.00     0.275 HD
ATOM     19  H3  MTY d   1       5.851  19.466  13.491  0.00  0.00     0.275 HD
ENDBRANCH  14  16
BRANCH  14  20
ATOM     20  C   MTY d   1       4.529  20.753  11.586  0.00  0.00     0.204 C 
ATOM     21  O   MTY d   1       4.252  21.472  12.525  0.00  0.00    -0.646 OA
ATOM     22  OXT MTY d   1       4.571  21.296  10.519  0.00  0.00    -0.646 OA
ENDBRANCH  14  20
ENDBRANCH  11  14
ENDBRANCH   1  11
BRANCH   5  23
ATOM     23  OH  MTY d   1       3.079  14.351  13.787  0.00  0.00    -0.361 OA
ATOM     24  H11 MTY d   1       2.704  14.962  14.410  0.00  0.00     0.217 HD
ENDBRANCH   5  23
TORSDOF 5
