REMARK  5 active torsions:
REMARK  status: ('A' for Active; 'I' for Inactive)
REMARK    1  A    between atoms: N_1  and  CA_2 
REMARK    2  A    between atoms: CA_2  and  CB_3 
REMARK    3  A    between atoms: CA_2  and  C_11 
REMARK    4  A    between atoms: CB_3  and  CG_4 
REMARK    5  A    between atoms: CE2_8  and  OH_10 
ROOT
ATOM      1  CG  MTY d   1      20.522  64.229  17.222  0.00  0.00    -0.053 A 
ATOM      2  CD1 MTY d   1      20.693  65.594  17.088  0.00  0.00    -0.077 A 
ATOM      3  CE1 MTY d   1      21.955  66.114  16.868  0.00  0.00    -0.080 A 
ATOM      4  CD2 MTY d   1      21.610  63.384  17.140  0.00  0.00    -0.045 A 
ATOM      5  CE2 MTY d   1      22.875  63.903  16.914  0.00  0.00     0.066 A 
ATOM      6  CZ  MTY d   1      23.045  65.273  16.781  0.00  0.00    -0.051 A 
ATOM      7  H7  MTY d   1      19.838  66.257  17.155  0.00  0.00     0.084 H 
ATOM      8  H8  MTY d   1      22.088  67.185  16.764  0.00  0.00     0.083 H 
ATOM      9  H9  MTY d   1      21.475  62.314  17.252  0.00  0.00     0.088 H 
ATOM     10  H10 MTY d   1      24.034  65.683  16.609  0.00  0.00     0.087 H 
ENDROOT
BRANCH   1  11
ATOM     11  CB  MTY d   1      19.146  63.665  17.463  0.00  0.00    -0.005 C 
ATOM     12  H5  MTY d   1      18.395  64.317  16.992  0.00  0.00     0.044 H 
ATOM     13  H6  MTY d   1      19.082  62.657  17.027  0.00  0.00     0.044 H 
BRANCH  11  14
ATOM     14  CA  MTY d   1      18.882  63.588  18.967  0.00  0.00     0.186 C 
ATOM     15  H4  MTY d   1      18.946  64.596  19.403  0.00  0.00     0.101 H 
BRANCH  14  16
ATOM     16  N   MTY d   1      19.884  62.718  19.595  0.00  0.00    -0.065 N 
ATOM     17  H1  MTY d   1      20.805  63.096  19.435  0.00  0.00     0.275 HD
ATOM     18  H2  MTY d   1      19.825  61.795  19.195  0.00  0.00     0.275 HD
ATOM     19  H3  MTY d   1      19.710  62.666  20.587  0.00  0.00     0.275 HD
ENDBRANCH  14  16
BRANCH  14  20
ATOM     20  C   MTY d   1      17.506  63.023  19.207  0.00  0.00     0.204 C 
ATOM     21  O   MTY d   1      17.352  61.833  19.323  0.00  0.00    -0.646 OA
ATOM     22  OXT MTY d   1      16.449  63.847  19.292  0.00  0.00    -0.646 OA
ENDBRANCH  14  20
ENDBRANCH  11  14
ENDBRANCH   1  11
BRANCH   5  23
ATOM     23  OH  MTY d   1      23.948  63.072  16.829  0.00  0.00    -0.361 OA
ATOM     24  H11 MTY d   1      23.661  62.173  16.941  0.00  0.00     0.217 HD
ENDBRANCH   5  23
TORSDOF 5
