REMARK WARNING: 32 MAX_TORS EXCEEDED!!!
REMARK  46 active torsions:
REMARK  status: ('A' for Active; 'I' for Inactive)
REMARK    1  A    between atoms: N_1  and  CA_2 
REMARK    2  A    between atoms: CA_2  and  C_3 
REMARK    3  A    between atoms: CA_2  and  CB_5 
REMARK       I    between atoms: C_3  and  N_10 
REMARK    4  A    between atoms: CB_5  and  CG_6 
REMARK    5  A    between atoms: CG_6  and  CD_7 
REMARK    6  A    between atoms: N_10  and  CA_11 
REMARK    7  A    between atoms: CA_11  and  C_12 
REMARK    8  A    between atoms: CA_11  and  CB_14 
REMARK       I    between atoms: C_12  and  N_18 
REMARK    9  A    between atoms: CB_14  and  CG_15 
REMARK   10  A    between atoms: CG_15  and  CD1_16 
REMARK   11  A    between atoms: CG_15  and  CD2_17 
REMARK   12  A    between atoms: N_18  and  CA_19 
REMARK   13  A    between atoms: CA_19  and  C_20 
REMARK   14  A    between atoms: CA_19  and  CB_22 
REMARK       I    between atoms: C_20  and  N_23 
REMARK   15  A    between atoms: N_23  and  CA_24 
REMARK   16  A    between atoms: CA_24  and  C_25 
REMARK       I    between atoms: C_25  and  N_27 
REMARK   17  A    between atoms: N_27  and  CA_28 
REMARK   18  A    between atoms: CA_28  and  C_29 
REMARK   19  A    between atoms: CA_28  and  CB_31 
REMARK       I    between atoms: C_29  and  N_35 
REMARK   20  A    between atoms: CB_31  and  CG1_32 
REMARK   21  A    between atoms: CB_31  and  CG2_33 
REMARK   22  A    between atoms: CG1_32  and  CD1_34 
REMARK   23  A    between atoms: N_35  and  CA_36 
REMARK   24  A    between atoms: CA_36  and  C_37 
REMARK       I    between atoms: C_37  and  N_39 
REMARK   25  A    between atoms: N_39  and  CA_40 
REMARK   26  A    between atoms: CA_40  and  C_41 
REMARK   27  A    between atoms: CA_40  and  CB_43 
REMARK       I    between atoms: C_41  and  N_47 
REMARK   28  A    between atoms: CB_43  and  CG1_44 
REMARK   29  A    between atoms: CB_43  and  CG2_45 
REMARK   30  A    between atoms: CG1_44  and  CD1_46 
REMARK   31  A    between atoms: N_47  and  CA_48 
REMARK   32  A    between atoms: CA_48  and  C_49 
REMARK   33  A    between atoms: CA_48  and  CB_51 
REMARK       I    between atoms: C_49  and  N_55 
REMARK   34  A    between atoms: CB_51  and  CG_52 
REMARK   35  A    between atoms: CG_52  and  CD1_53 
REMARK   36  A    between atoms: CG_52  and  CD2_54 
REMARK   37  A    between atoms: N_55  and  CA_56 
REMARK   38  A    between atoms: CA_56  and  C_57 
REMARK   39  A    between atoms: CA_56  and  CB_59 
REMARK       I    between atoms: C_57  and  N_62 
REMARK   40  A    between atoms: CB_59  and  OG1_60 
REMARK   41  A    between atoms: CB_59  and  CG2_61 
REMARK   42  A    between atoms: N_62  and  CA_63 
REMARK   43  A    between atoms: CA_63  and  C_64 
REMARK   44  A    between atoms: CA_63  and  CB_66 
REMARK   45  A    between atoms: CB_66  and  CG1_67 
REMARK   46  A    between atoms: CB_66  and  CG2_68 
ROOT
ATOM      1  N   GLY d   1      50.223  -0.697  32.615  0.00  0.00    -0.351 N 
ATOM      2  H39 GLY d   1      49.598  -0.021  33.005  0.00  0.00     0.163 HD
ATOM      3  C   ILE d   1      49.767  -1.896  32.319  0.00  0.00     0.241 C 
ATOM      4  O   ILE d   1      50.461  -2.757  31.797  0.00  0.00    -0.271 OA
ENDROOT
BRANCH   1   5
ATOM      5  CA  GLY d   1      51.623  -0.329  32.387  0.00  0.00     0.069 C 
ATOM      6  H40 GLY d   1      52.257  -1.039  32.938  0.00  0.00     0.078 H 
ATOM      7  H41 GLY d   1      51.778   0.685  32.783  0.00  0.00     0.078 H 
BRANCH   5   8
ATOM      8  C   GLY d   1      52.060  -0.339  30.931  0.00  0.00     0.236 C 
ATOM      9  O   GLY d   1      53.237  -0.456  30.638  0.00  0.00    -0.272 OA
ATOM     10  N   ILE d   1      51.109  -0.202  30.027  0.00  0.00    -0.346 N 
ATOM     11  H42 ILE d   1      50.159  -0.107  30.325  0.00  0.00     0.163 HD
BRANCH  10  12
ATOM     12  CA  ILE d   1      51.413  -0.186  28.623  0.00  0.00     0.092 C 
ATOM     13  H43 ILE d   1      52.507  -0.200  28.506  0.00  0.00     0.088 H 
BRANCH  12  14
ATOM     14  C   ILE d   1      50.882   1.063  27.985  0.00  0.00     0.241 C 
ATOM     15  O   ILE d   1      49.678   1.255  27.890  0.00  0.00    -0.271 OA
ATOM     16  N   LEU d   1      51.792   1.916  27.531  0.00  0.00    -0.346 N 
ATOM     17  H53 LEU d   1      52.761   1.680  27.600  0.00  0.00     0.163 HD
BRANCH  16  18
ATOM     18  CA  LEU d   1      51.413   3.173  26.941  0.00  0.00     0.089 C 
ATOM     19  H54 LEU d   1      50.341   3.132  26.699  0.00  0.00     0.087 H 
BRANCH  18  20
ATOM     20  C   LEU d   1      52.177   3.491  25.677  0.00  0.00     0.241 C 
ATOM     21  O   LEU d   1      53.028   2.745  25.251  0.00  0.00    -0.271 OA
ATOM     22  N   THR d   1      51.854   4.626  25.091  0.00  0.00    -0.344 N 
ATOM     23  H64 THR d   1      51.132   5.190  25.491  0.00  0.00     0.163 HD
BRANCH  22  24
ATOM     24  CA  THR d   1      52.499   5.070  23.912  0.00  0.00     0.113 C 
ATOM     25  H65 THR d   1      52.567   4.239  23.195  0.00  0.00     0.091 H 
BRANCH  24  26
ATOM     26  C   THR d   1      53.882   5.562  24.265  0.00  0.00     0.243 C 
ATOM     27  O   THR d   1      54.067   6.209  25.296  0.00  0.00    -0.271 OA
ATOM     28  N   VAL d   1      54.862   5.254  23.414  0.00  0.00    -0.344 N 
ATOM     29  H71 VAL d   1      54.653   4.706  22.604  0.00  0.00     0.163 HD
BRANCH  28  30
ATOM     30  CA  VAL d   1      56.242   5.703  23.641  0.00  0.00     0.099 C 
ATOM     31  H72 VAL d   1      56.508   5.485  24.686  0.00  0.00     0.090 H 
BRANCH  30  32
ATOM     32  C   VAL d   1      56.367   7.221  23.399  0.00  0.00     0.197 C 
ATOM     33  O   VAL d   1      57.181   7.897  24.032  0.00  0.00    -0.646 OA
ATOM     34  OXT VAL d   1      55.663   7.805  22.567  0.00  0.00    -0.646 OA
ENDBRANCH  30  32
BRANCH  30  35
ATOM     35  CB  VAL d   1      57.237   4.975  22.715  0.00  0.00    -0.032 C 
ATOM     36  H73 VAL d   1      58.229   5.433  22.845  0.00  0.00     0.042 H 
BRANCH  35  37
ATOM     37  CG1 VAL d   1      57.339   3.524  23.079  0.00  0.00    -0.071 C 
ATOM     38  H74 VAL d   1      58.053   3.026  22.406  0.00  0.00     0.028 H 
ATOM     39  H75 VAL d   1      56.351   3.051  22.980  0.00  0.00     0.028 H 
ATOM     40  H76 VAL d   1      57.688   3.430  24.118  0.00  0.00     0.028 H 
ENDBRANCH  35  37
BRANCH  35  41
ATOM     41  CG2 VAL d   1      56.826   5.138  21.274  0.00  0.00    -0.071 C 
ATOM     42  H77 VAL d   1      56.758   6.209  21.031  0.00  0.00     0.028 H 
ATOM     43  H78 VAL d   1      55.846   4.663  21.116  0.00  0.00     0.028 H 
ATOM     44  H79 VAL d   1      57.574   4.661  20.623  0.00  0.00     0.028 H 
ENDBRANCH  35  41
ENDBRANCH  30  35
ENDBRANCH  28  30
ENDBRANCH  24  26
BRANCH  24  45
ATOM     45  CB  THR d   1      51.735   6.217  23.290  0.00  0.00     0.060 C 
ATOM     46  H66 THR d   1      51.725   7.062  23.994  0.00  0.00     0.086 H 
BRANCH  45  47
ATOM     47  OG1 THR d   1      50.387   5.808  23.030  0.00  0.00    -0.393 OA
ATOM     48  H67 THR d   1      49.908   6.529  22.639  0.00  0.00     0.210 HD
ENDBRANCH  45  47
BRANCH  45  49
ATOM     49  CG2 THR d   1      52.413   6.675  21.966  0.00  0.00    -0.050 C 
ATOM     50  H68 THR d   1      51.842   7.509  21.531  0.00  0.00     0.031 H 
ATOM     51  H69 THR d   1      52.435   5.835  21.256  0.00  0.00     0.031 H 
ATOM     52  H70 THR d   1      53.441   7.005  22.176  0.00  0.00     0.031 H 
ENDBRANCH  45  49
ENDBRANCH  24  45
ENDBRANCH  22  24
ENDBRANCH  18  20
BRANCH  18  53
ATOM     53  CB  LEU d   1      51.658   4.281  27.937  0.00  0.00    -0.035 C 
ATOM     54  H55 LEU d   1      51.264   5.216  27.513  0.00  0.00     0.037 H 
ATOM     55  H56 LEU d   1      52.744   4.375  28.085  0.00  0.00     0.037 H 
BRANCH  53  56
ATOM     56  CG  LEU d   1      51.014   4.068  29.289  0.00  0.00    -0.059 C 
ATOM     57  H57 LEU d   1      51.433   3.159  29.745  0.00  0.00     0.038 H 
BRANCH  56  58
ATOM     58  CD1 LEU d   1      51.327   5.259  30.197  0.00  0.00    -0.073 C 
ATOM     59  H58 LEU d   1      50.858   5.104  31.180  0.00  0.00     0.028 H 
ATOM     60  H59 LEU d   1      50.931   6.180  29.744  0.00  0.00     0.028 H 
ATOM     61  H60 LEU d   1      52.416   5.350  30.320  0.00  0.00     0.028 H 
ENDBRANCH  56  58
BRANCH  56  62
ATOM     62  CD2 LEU d   1      49.518   3.879  29.123  0.00  0.00    -0.073 C 
ATOM     63  H61 LEU d   1      49.328   3.017  28.466  0.00  0.00     0.028 H 
ATOM     64  H62 LEU d   1      49.081   4.784  28.675  0.00  0.00     0.028 H 
ATOM     65  H63 LEU d   1      49.060   3.699  30.107  0.00  0.00     0.028 H 
ENDBRANCH  56  62
ENDBRANCH  53  56
ENDBRANCH  18  53
ENDBRANCH  16  18
ENDBRANCH  12  14
BRANCH  12  66
ATOM     66  CB  ILE d   1      50.853  -1.385  27.944  0.00  0.00    -0.030 C 
ATOM     67  H44 ILE d   1      49.787  -1.479  28.199  0.00  0.00     0.043 H 
BRANCH  66  68
ATOM     68  CG1 ILE d   1      51.595  -2.625  28.430  0.00  0.00    -0.063 C 
ATOM     69  H45 ILE d   1      51.407  -2.741  29.508  0.00  0.00     0.033 H 
ATOM     70  H46 ILE d   1      52.671  -2.474  28.260  0.00  0.00     0.033 H 
BRANCH  68  71
ATOM     71  CD1 ILE d   1      51.189  -3.864  27.753  0.00  0.00    -0.076 C 
ATOM     72  H50 ILE d   1      51.766  -4.709  28.157  0.00  0.00     0.027 H 
ATOM     73  H51 ILE d   1      51.380  -3.772  26.674  0.00  0.00     0.027 H 
ATOM     74  H52 ILE d   1      50.116  -4.039  27.922  0.00  0.00     0.027 H 
ENDBRANCH  68  71
ENDBRANCH  66  68
BRANCH  66  75
ATOM     75  CG2 ILE d   1      50.987  -1.251  26.455  0.00  0.00    -0.071 C 
ATOM     76  H47 ILE d   1      50.448  -0.353  26.118  0.00  0.00     0.028 H 
ATOM     77  H48 ILE d   1      50.561  -2.140  25.967  0.00  0.00     0.028 H 
ATOM     78  H49 ILE d   1      52.051  -1.161  26.189  0.00  0.00     0.028 H 
ENDBRANCH  66  75
ENDBRANCH  12  66
ENDBRANCH  10  12
ENDBRANCH   5   8
ENDBRANCH   1   5
BRANCH   3  79
ATOM     79  CA  ILE d   1      48.297  -2.159  32.650  0.00  0.00     0.092 C 
ATOM     80  H29 ILE d   1      47.667  -1.520  32.014  0.00  0.00     0.088 H 
BRANCH  79  81
ATOM     81  N   ILE d   1      47.953  -3.550  32.388  0.00  0.00    -0.346 N 
ATOM     82  C   GLY d   1      46.724  -3.921  32.062  0.00  0.00     0.236 C 
ATOM     83  O   GLY d   1      45.790  -3.135  31.964  0.00  0.00    -0.272 OA
ATOM     84  H28 ILE d   1      48.667  -4.247  32.456  0.00  0.00     0.163 HD
BRANCH  82  85
ATOM     85  CA  GLY d   1      46.516  -5.398  31.814  0.00  0.00     0.069 C 
ATOM     86  H26 GLY d   1      45.848  -5.791  32.595  0.00  0.00     0.078 H 
ATOM     87  H27 GLY d   1      46.041  -5.521  30.829  0.00  0.00     0.078 H 
BRANCH  85  88
ATOM     88  N   GLY d   1      47.757  -6.178  31.831  0.00  0.00    -0.351 N 
ATOM     89  C   ALA d   1      48.403  -6.479  30.717  0.00  0.00     0.240 C 
ATOM     90  O   ALA d   1      48.020  -6.125  29.618  0.00  0.00    -0.271 OA
ATOM     91  H25 GLY d   1      48.124  -6.490  32.707  0.00  0.00     0.163 HD
BRANCH  89  92
ATOM     92  CA  ALA d   1      49.667  -7.310  30.872  0.00  0.00     0.086 C 
ATOM     93  H21 ALA d   1      49.709  -7.707  31.897  0.00  0.00     0.086 H 
BRANCH  92  94
ATOM     94  N   ALA d   1      49.619  -8.421  29.938  0.00  0.00    -0.346 N 
ATOM     95  C   LEU d   1      48.675  -9.351  30.032  0.00  0.00     0.241 C 
ATOM     96  O   LEU d   1      47.815  -9.333  30.898  0.00  0.00    -0.271 OA
ATOM     97  H20 ALA d   1      50.306  -8.487  29.214  0.00  0.00     0.163 HD
BRANCH  95  98
ATOM     98  CA  LEU d   1      48.707 -10.458  28.995  0.00  0.00     0.089 C 
ATOM     99  H10 LEU d   1      49.754 -10.659  28.726  0.00  0.00     0.087 H 
BRANCH  98 100
ATOM    100  N   LEU d   1      48.119 -11.697  29.535  0.00  0.00    -0.346 N 
ATOM    101  C   GLU d   1      48.739 -12.398  30.477  0.00  0.00     0.249 C 
ATOM    102  O   GLU d   1      49.816 -12.076  30.925  0.00  0.00    -0.271 OA
ATOM    103  H9  LEU d   1      47.238 -12.015  29.186  0.00  0.00     0.163 HD
BRANCH 101 104
ATOM    104  CA  GLU d   1      48.035 -13.656  30.986  0.00  0.00     0.176 C 
ATOM    105  H4  GLU d   1      47.002 -13.664  30.608  0.00  0.00     0.099 H 
BRANCH 104 106
ATOM    106  N   GLU d   1      48.728 -14.880  30.516  0.00  0.00    -0.066 N 
ATOM    107  H1  GLU d   1      48.246 -15.694  30.864  0.00  0.00     0.275 HD
ATOM    108  H2  GLU d   1      49.677 -14.881  30.856  0.00  0.00     0.275 HD
ATOM    109  H3  GLU d   1      48.733 -14.898  29.508  0.00  0.00     0.275 HD
ENDBRANCH 104 106
BRANCH 104 110
ATOM    110  CB  GLU d   1      48.012 -13.639  32.508  0.00  0.00    -0.021 C 
ATOM    111  H5  GLU d   1      49.051 -13.621  32.868  0.00  0.00     0.037 H 
ATOM    112  H6  GLU d   1      47.519 -14.559  32.856  0.00  0.00     0.037 H 
BRANCH 110 113
ATOM    113  CG  GLU d   1      47.277 -12.446  33.110  0.00  0.00     0.018 C 
ATOM    114  H7  GLU d   1      47.670 -11.525  32.655  0.00  0.00     0.049 H 
ATOM    115  H8  GLU d   1      47.464 -12.428  34.194  0.00  0.00     0.049 H 
BRANCH 113 116
ATOM    116  CD  GLU d   1      45.785 -12.501  32.878  0.00  0.00     0.172 C 
ATOM    117  OE1 GLU d   1      45.261 -13.612  32.589  0.00  0.00    -0.648 OA
ATOM    118  OE2 GLU d   1      45.130 -11.441  32.997  0.00  0.00    -0.648 OA
ENDBRANCH 113 116
ENDBRANCH 110 113
ENDBRANCH 104 110
ENDBRANCH 101 104
ENDBRANCH  98 100
BRANCH  98 119
ATOM    119  CB  LEU d   1      47.956  -9.998  27.737  0.00  0.00    -0.035 C 
ATOM    120  H11 LEU d   1      48.282  -8.971  27.513  0.00  0.00     0.037 H 
ATOM    121  H12 LEU d   1      46.882  -9.999  27.973  0.00  0.00     0.037 H 
BRANCH 119 122
ATOM    122  CG  LEU d   1      48.149 -10.829  26.469  0.00  0.00    -0.059 C 
ATOM    123  H13 LEU d   1      47.861 -11.868  26.686  0.00  0.00     0.038 H 
BRANCH 122 124
ATOM    124  CD1 LEU d   1      47.254 -10.305  25.344  0.00  0.00    -0.073 C 
ATOM    125  H14 LEU d   1      47.406 -10.914  24.441  0.00  0.00     0.028 H 
ATOM    126  H15 LEU d   1      47.512  -9.258  25.128  0.00  0.00     0.028 H 
ATOM    127  H16 LEU d   1      46.201 -10.367  25.655  0.00  0.00     0.028 H 
ENDBRANCH 122 124
BRANCH 122 128
ATOM    128  CD2 LEU d   1      49.619 -10.813  26.042  0.00  0.00    -0.073 C 
ATOM    129  H17 LEU d   1      50.244 -11.193  26.864  0.00  0.00     0.028 H 
ATOM    130  H18 LEU d   1      49.919  -9.783  25.799  0.00  0.00     0.028 H 
ATOM    131  H19 LEU d   1      49.751 -11.452  25.156  0.00  0.00     0.028 H 
ENDBRANCH 122 128
ENDBRANCH 119 122
ENDBRANCH  98 119
ENDBRANCH  95  98
ENDBRANCH  92  94
BRANCH  92 132
ATOM    132  CB  ALA d   1      50.901  -6.463  30.630  0.00  0.00    -0.049 C 
ATOM    133  H22 ALA d   1      50.919  -5.628  31.346  0.00  0.00     0.030 H 
ATOM    134  H23 ALA d   1      50.878  -6.066  29.605  0.00  0.00     0.030 H 
ATOM    135  H24 ALA d   1      51.801  -7.080  30.764  0.00  0.00     0.030 H 
ENDBRANCH  92 132
ENDBRANCH  89  92
ENDBRANCH  85  88
ENDBRANCH  82  85
ENDBRANCH  79  81
BRANCH  79 136
ATOM    136  CB  ILE d   1      48.050  -1.779  34.146  0.00  0.00    -0.030 C 
ATOM    137  H30 ILE d   1      48.363  -0.735  34.297  0.00  0.00     0.043 H 
BRANCH 136 138
ATOM    138  CG1 ILE d   1      48.874  -2.677  35.070  0.00  0.00    -0.063 C 
ATOM    139  H31 ILE d   1      49.937  -2.562  34.812  0.00  0.00     0.033 H 
ATOM    140  H32 ILE d   1      48.568  -3.721  34.906  0.00  0.00     0.033 H 
BRANCH 138 141
ATOM    141  CD1 ILE d   1      48.696  -2.347  36.549  0.00  0.00    -0.076 C 
ATOM    142  H36 ILE d   1      49.314  -3.027  37.153  0.00  0.00     0.027 H 
ATOM    143  H37 ILE d   1      47.639  -2.467  36.827  0.00  0.00     0.027 H 
ATOM    144  H38 ILE d   1      49.007  -1.308  36.733  0.00  0.00     0.027 H 
ENDBRANCH 138 141
ENDBRANCH 136 138
BRANCH 136 145
ATOM    145  CG2 ILE d   1      46.582  -1.901  34.499  0.00  0.00    -0.071 C 
ATOM    146  H33 ILE d   1      45.990  -1.255  33.834  0.00  0.00     0.028 H 
ATOM    147  H34 ILE d   1      46.429  -1.591  35.543  0.00  0.00     0.028 H 
ATOM    148  H35 ILE d   1      46.261  -2.946  34.376  0.00  0.00     0.028 H 
ENDBRANCH 136 145
ENDBRANCH  79 136
ENDBRANCH   3  79
TORSDOF 46
