REMARK  13 active torsions:
REMARK  status: ('A' for Active; 'I' for Inactive)
REMARK    1  A    between atoms: C17_2  and  C19_3 
REMARK       I    between atoms: C17_2  and  N16_13 
REMARK    2  A    between atoms: N23_4  and  C24_5 
REMARK    3  A    between atoms: C21_7  and  C25_8 
REMARK    4  A    between atoms: C25_8  and  C28_9 
REMARK    5  A    between atoms: C25_8  and  C27_10 
REMARK    6  A    between atoms: C25_8  and  C26_11 
REMARK    7  A    between atoms: N16_13  and  C9_14 
REMARK    8  A    between atoms: C9_14  and  C10_15 
REMARK    9  A    between atoms: C9_14  and  C8_21 
REMARK       I    between atoms: C10_15  and  N12_16 
REMARK   10  A    between atoms: N12_16  and  C13_17 
REMARK   11  A    between atoms: C13_17  and  C14_18 
REMARK   12  A    between atoms: C8_21  and  C5_22 
REMARK   13  A    between atoms: C4_26  and  C7_27 
ROOT
ATOM      1  C9  NOW d   1       7.839   6.797  -4.228  0.00  0.00     0.093 C 
ATOM      2  H15 NOW d   1       8.677   6.368  -4.797  0.00  0.00     0.088 H 
ENDROOT
BRANCH   1   3
ATOM      3  N16 NOW d   1       8.308   7.942  -3.443  0.00  0.00    -0.342 N 
ATOM      4  C17 NOW d   1       9.614   8.329  -3.414  0.00  0.00     0.270 C 
ATOM      5  O18 NOW d   1      10.459   7.732  -4.055  0.00  0.00    -0.266 OA
ATOM      6  H14 NOW d   1       7.642   8.461  -2.907  0.00  0.00     0.163 HD
BRANCH   4   7
ATOM      7  C19 NOW d   1       9.984   9.489  -2.610  0.00  0.00     0.121 A 
ATOM      8  N23 NOW d   1      11.089   9.594  -1.859  0.00  0.00    -0.269 N 
ATOM      9  N22 NOW d   1      11.163  10.717  -1.290  0.00  0.00    -0.176 NA
ATOM     10  C21 NOW d   1      10.099  11.447  -1.651  0.00  0.00     0.065 A 
ATOM     11  C20 NOW d   1       9.322  10.683  -2.506  0.00  0.00    -0.024 A 
ATOM     12  H13 NOW d   1       8.389  10.969  -2.990  0.00  0.00     0.090 H 
BRANCH   8  13
ATOM     13  C24 NOW d   1      12.099   8.549  -1.644  0.00  0.00     0.003 C 
ATOM     14  H1  NOW d   1      12.888   8.933  -0.980  0.00  0.00     0.059 H 
ATOM     15  H2  NOW d   1      12.540   8.261  -2.610  0.00  0.00     0.059 H 
ATOM     16  H3  NOW d   1      11.625   7.671  -1.181  0.00  0.00     0.059 H 
ENDBRANCH   8  13
BRANCH  10  17
ATOM     17  C25 NOW d   1       9.896  12.851  -1.156  0.00  0.00    -0.005 C 
BRANCH  17  18
ATOM     18  C28 NOW d   1       8.404  13.076  -1.019  0.00  0.00    -0.064 C 
ATOM     19  H4  NOW d   1       8.219  14.098  -0.657  0.00  0.00     0.028 H 
ATOM     20  H5  NOW d   1       7.988  12.352  -0.302  0.00  0.00     0.028 H 
ATOM     21  H6  NOW d   1       7.921  12.941  -1.998  0.00  0.00     0.028 H 
ENDBRANCH  17  18
BRANCH  17  22
ATOM     22  C27 NOW d   1      10.518  13.040   0.243  0.00  0.00    -0.064 C 
ATOM     23  H7  NOW d   1      11.605  12.884   0.185  0.00  0.00     0.028 H 
ATOM     24  H8  NOW d   1      10.080  12.311   0.941  0.00  0.00     0.028 H 
ATOM     25  H9  NOW d   1      10.312  14.060   0.601  0.00  0.00     0.028 H 
ENDBRANCH  17  22
BRANCH  17  26
ATOM     26  C26 NOW d   1      10.588  13.786  -2.154  0.00  0.00    -0.064 C 
ATOM     27  H10 NOW d   1      10.144  13.651  -3.151  0.00  0.00     0.028 H 
ATOM     28  H11 NOW d   1      11.661  13.549  -2.195  0.00  0.00     0.028 H 
ATOM     29  H12 NOW d   1      10.455  14.829  -1.832  0.00  0.00     0.028 H 
ENDBRANCH  17  26
ENDBRANCH  10  17
ENDBRANCH   4   7
ENDBRANCH   1   3
BRANCH   1  30
ATOM     30  C10 NOW d   1       6.782   7.294  -5.177  0.00  0.00     0.241 C 
ATOM     31  N12 NOW d   1       6.631   6.597  -6.319  0.00  0.00    -0.355 N 
ATOM     32  H16 NOW d   1       7.210   5.794  -6.461  0.00  0.00     0.162 HD
ATOM     33  O11 NOW d   1       6.081   8.259  -4.943  0.00  0.00    -0.271 OA
BRANCH  31  34
ATOM     34  C13 NOW d   1       5.673   6.944  -7.360  0.00  0.00     0.025 C 
ATOM     35  H17 NOW d   1       6.181   6.890  -8.334  0.00  0.00     0.072 H 
ATOM     36  H18 NOW d   1       5.324   7.972  -7.185  0.00  0.00     0.072 H 
BRANCH  34  37
ATOM     37  C14 NOW d   1       4.490   6.044  -7.395  0.00  0.00    -0.010 C 
ATOM     38  N15 NOW d   1       3.599   6.124  -8.342  0.00  0.00    -0.315 NA
ATOM     39  H20 NOW d   1       2.806   5.502  -8.342  0.00  0.00     0.185 HD
ATOM     40  H19 NOW d   1       4.365   5.300  -6.610  0.00  0.00     0.109 H 
ENDBRANCH  34  37
ENDBRANCH  31  34
ENDBRANCH   1  30
BRANCH   1  41
ATOM     41  C8  NOW d   1       7.259   5.731  -3.304  0.00  0.00    -0.014 C 
ATOM     42  H21 NOW d   1       6.997   4.848  -3.905  0.00  0.00     0.043 H 
ATOM     43  H22 NOW d   1       6.353   6.132  -2.827  0.00  0.00     0.043 H 
BRANCH  41  44
ATOM     44  C5  NOW d   1       8.240   5.309  -2.215  0.00  0.00    -0.055 A 
ATOM     45  C3  NOW d   1       9.577   4.995  -2.524  0.00  0.00    -0.077 A 
ATOM     46  C1  NOW d   1      10.473   4.670  -1.523  0.00  0.00    -0.082 A 
ATOM     47  H23 NOW d   1       9.907   5.008  -3.557  0.00  0.00     0.084 H 
ATOM     48  C2  NOW d   1      10.021   4.615  -0.220  0.00  0.00    -0.077 A 
ATOM     49  H24 NOW d   1      11.511   4.462  -1.757  0.00  0.00     0.083 H 
ATOM     50  C4  NOW d   1       8.689   4.900   0.091  0.00  0.00    -0.061 A 
ATOM     51  H29 NOW d   1      10.709   4.347   0.573  0.00  0.00     0.084 H 
ATOM     52  C6  NOW d   1       7.807   5.260  -0.919  0.00  0.00    -0.071 A 
ATOM     53  H25 NOW d   1       6.777   5.502  -0.681  0.00  0.00     0.085 H 
BRANCH  50  54
ATOM     54  C7  NOW d   1       8.183   4.824   1.511  0.00  0.00    -0.051 C 
ATOM     55  H26 NOW d   1       9.006   4.527   2.178  0.00  0.00     0.033 H 
ATOM     56  H27 NOW d   1       7.374   4.081   1.573  0.00  0.00     0.033 H 
ATOM     57  H28 NOW d   1       7.800   5.809   1.817  0.00  0.00     0.033 H 
ENDBRANCH  50  54
ENDBRANCH  41  44
ENDBRANCH   1  41
TORSDOF 13
