REMARK  10 active torsions:
REMARK  status: ('A' for Active; 'I' for Inactive)
REMARK       I    between atoms: C51_2  and  N54_3 
REMARK    1  A    between atoms: C51_2  and  C50_4 
REMARK    2  A    between atoms: C50_4  and  O49_5 
REMARK    3  A    between atoms: O49_5  and  C19_6 
REMARK    4  A    between atoms: C11_17  and  C9_18 
REMARK    5  A    between atoms: C10_21  and  O23_22 
REMARK    6  A    between atoms: N7_29  and  C33_30 
REMARK    7  A    between atoms: C33_30  and  C34_31 
REMARK    8  A    between atoms: C34_31  and  C37_32 
REMARK    9  A    between atoms: C37_32  and  C44_33 
REMARK   10  A    between atoms: C37_32  and  C40_34 
ROOT
ATOM      1  C9  77Z d   1      95.727  45.880  52.591  0.00  0.00     0.113 A 
ATOM      2  C8  77Z d   1      94.975  44.725  53.133  0.00  0.00     0.265 A 
ATOM      3  O24 77Z d   1      94.256  44.081  52.380  0.00  0.00    -0.267 OA
ATOM      4  C10 77Z d   1      96.526  46.594  53.396  0.00  0.00     0.097 A 
ATOM      5  C4  77Z d   1      96.664  46.272  54.797  0.00  0.00     0.025 A 
ATOM      6  C5  77Z d   1      97.496  47.028  55.595  0.00  0.00    -0.068 A 
ATOM      7  C6  77Z d   1      97.639  46.721  56.928  0.00  0.00    -0.082 A 
ATOM      8  C3  77Z d   1      95.972  45.205  55.321  0.00  0.00     0.050 A 
ATOM      9  C2  77Z d   1      96.115  44.900  56.658  0.00  0.00    -0.056 A 
ATOM     10  C1  77Z d   1      96.947  45.654  57.454  0.00  0.00    -0.081 A 
ATOM     11  N7  77Z d   1      95.131  44.450  54.481  0.00  0.00    -0.313 N 
ATOM     12  H10 77Z d   1      98.038  47.866  55.171  0.00  0.00     0.085 H 
ATOM     13  H11 77Z d   1      98.291  47.314  57.559  0.00  0.00     0.083 H 
ATOM     14  H12 77Z d   1      95.571  44.064  57.083  0.00  0.00     0.087 H 
ATOM     15  H13 77Z d   1      97.058  45.406  58.503  0.00  0.00     0.083 H 
ENDROOT
BRANCH   1  16
ATOM     16  C11 77Z d   1      95.671  46.269  51.169  0.00  0.00     0.159 C 
ATOM     17  N16 77Z d   1      96.546  47.132  50.765  0.00  0.00    -0.141 NA
ATOM     18  S15 77Z d   1      96.615  47.583  49.204  0.00  0.00     0.287 S 
ATOM     19  C14 77Z d   1      95.882  46.241  48.314  0.00  0.00     0.111 A 
ATOM     20  O21 77Z d   1      95.751  48.711  48.928  0.00  0.00    -0.198 OA
ATOM     21  O22 77Z d   1      98.011  47.600  48.814  0.00  0.00    -0.198 OA
ATOM     22  C20 77Z d   1      96.172  46.065  46.978  0.00  0.00    -0.026 A 
ATOM     23  C13 77Z d   1      95.032  45.415  49.012  0.00  0.00     0.057 A 
ATOM     24  C19 77Z d   1      95.568  45.006  46.331  0.00  0.00     0.070 A 
ATOM     25  H6  77Z d   1      96.848  46.732  46.456  0.00  0.00     0.090 H 
ATOM     26  C18 77Z d   1      94.717  44.164  47.010  0.00  0.00    -0.049 A 
ATOM     27  C17 77Z d   1      94.445  44.363  48.344  0.00  0.00    -0.053 A 
ATOM     28  H5  77Z d   1      94.255  43.334  46.487  0.00  0.00     0.087 H 
ATOM     29  H7  77Z d   1      93.771  43.694  48.867  0.00  0.00     0.087 H 
ATOM     30  N12 77Z d   1      94.756  45.628  50.368  0.00  0.00    -0.338 N 
ATOM     31  H8  77Z d   1      93.864  45.303  50.767  0.00  0.00     0.167 HD
BRANCH  24  32
ATOM     32  O49 77Z d   1      95.773  44.714  44.993  0.00  0.00    -0.342 OA
BRANCH  32  33
ATOM     33  C50 77Z d   1      96.412  45.803  44.340  0.00  0.00     0.099 C 
ATOM     34  H3  77Z d   1      95.755  46.685  44.309  0.00  0.00     0.089 H 
ATOM     35  H4  77Z d   1      97.355  46.065  44.842  0.00  0.00     0.089 H 
BRANCH  33  36
ATOM     36  C51 77Z d   1      96.666  45.275  42.963  0.00  0.00     0.239 C 
ATOM     37  O55 77Z d   1      96.453  44.115  42.640  0.00  0.00    -0.271 OA
ATOM     38  N54 77Z d   1      97.160  46.244  42.135  0.00  0.00    -0.368 N 
ATOM     39  H1  77Z d   1      97.305  47.171  42.481  0.00  0.00     0.159 HD
ATOM     40  H2  77Z d   1      97.376  46.026  41.183  0.00  0.00     0.159 HD
ENDBRANCH  33  36
ENDBRANCH  32  33
ENDBRANCH  24  32
ENDBRANCH   1  16
BRANCH   4  41
ATOM     41  O23 77Z d   1      97.266  47.676  52.987  0.00  0.00    -0.359 OA
ATOM     42  H9  77Z d   1      97.870  47.406  52.306  0.00  0.00     0.217 HD
ENDBRANCH   4  41
BRANCH  11  43
ATOM     43  C33 77Z d   1      94.401  43.333  55.044  0.00  0.00     0.004 C 
ATOM     44  H14 77Z d   1      95.074  42.785  55.720  0.00  0.00     0.065 H 
ATOM     45  H15 77Z d   1      94.090  42.672  54.221  0.00  0.00     0.065 H 
BRANCH  43  46
ATOM     46  C34 77Z d   1      93.160  43.740  55.828  0.00  0.00    -0.047 C 
ATOM     47  H16 77Z d   1      93.486  44.315  56.708  0.00  0.00     0.035 H 
ATOM     48  H17 77Z d   1      92.650  42.823  56.158  0.00  0.00     0.035 H 
BRANCH  46  49
ATOM     49  C37 77Z d   1      92.160  44.584  55.060  0.00  0.00    -0.060 C 
ATOM     50  H18 77Z d   1      92.697  45.395  54.546  0.00  0.00     0.038 H 
BRANCH  49  51
ATOM     51  C44 77Z d   1      91.142  45.174  56.006  0.00  0.00    -0.073 C 
ATOM     52  H19 77Z d   1      90.423  45.783  55.438  0.00  0.00     0.028 H 
ATOM     53  H20 77Z d   1      91.653  45.806  56.747  0.00  0.00     0.028 H 
ATOM     54  H21 77Z d   1      90.608  44.363  56.522  0.00  0.00     0.028 H 
ENDBRANCH  49  51
BRANCH  49  55
ATOM     55  C40 77Z d   1      91.422  43.750  54.044  0.00  0.00    -0.073 C 
ATOM     56  H22 77Z d   1      92.142  43.307  53.340  0.00  0.00     0.028 H 
ATOM     57  H23 77Z d   1      90.714  44.386  53.492  0.00  0.00     0.028 H 
ATOM     58  H24 77Z d   1      90.871  42.948  54.558  0.00  0.00     0.028 H 
ENDBRANCH  49  55
ENDBRANCH  46  49
ENDBRANCH  43  46
ENDBRANCH  11  43
TORSDOF 10
