REMARK  9 active torsions:
REMARK  status: ('A' for Active; 'I' for Inactive)
REMARK    1  A    between atoms: C1_1  and  C23_4 
REMARK    2  A    between atoms: C9_3  and  C10_20 
REMARK    3  A    between atoms: C23_4  and  O8_30 
REMARK    4  A    between atoms: C5_10  and  O5_12 
REMARK    5  A    between atoms: C11_16  and  O6_15 
REMARK    6  A    between atoms: O6_15  and  C21_17 
REMARK    7  A    between atoms: C21_17  and  C22_29 
REMARK    8  A    between atoms: C13_22  and  C14_23 
REMARK    9  A    between atoms: O8_30  and  C24_31 
ROOT
ATOM      1  C1  KWT d   1      60.747  60.339 113.799  0.00  0.00     0.080 C 
ATOM      2  O1  KWT d   1      61.735  59.308 114.036  0.00  0.00    -0.309 OA
ATOM      3  C9  KWT d   1      61.152  61.355 112.700  0.00  0.00     0.023 C 
ATOM      4  C2  KWT d   1      62.349  58.743 112.848  0.00  0.00     0.293 C 
ATOM      5  O2  KWT d   1      63.239  57.918 112.950  0.00  0.00    -0.259 OA
ATOM      6  C3  KWT d   1      61.869  59.174 111.550  0.00  0.00     0.040 C 
ATOM      7  C4  KWT d   1      61.375  60.545 111.424  0.00  0.00     0.006 C 
ATOM      8  C19 KWT d   1      61.866  58.311 110.548  0.00  0.00    -0.105 C 
ATOM      9  C5  KWT d   1      61.135  61.034 110.204  0.00  0.00     0.120 C 
ATOM     10  C6  KWT d   1      60.332  62.228 110.038  0.00  0.00     0.187 C 
ATOM     11  O3  KWT d   1      59.708  62.397 109.007  0.00  0.00    -0.290 OA
ATOM     12  C7  KWT d   1      60.333  63.200 111.173  0.00  0.00     0.022 C 
ATOM     13  C11 KWT d   1      59.880  63.430 113.739  0.00  0.00     0.054 C 
ATOM     14  C8  KWT d   1      60.092  62.473 112.509  0.00  0.00    -0.004 C 
ATOM     15  C15 KWT d   1      59.323  64.332 111.055  0.00  0.00    -0.029 C 
ATOM     16  C12 KWT d   1      59.302  64.833 113.435  0.00  0.00    -0.026 C 
ATOM     17  C13 KWT d   1      59.720  65.369 112.078  0.00  0.00     0.024 C 
ATOM     18  C18 KWT d   1      58.911  66.531 111.601  0.00  0.00     0.135 C 
ATOM     19  C16 KWT d   1      59.091  65.069 109.738  0.00  0.00    -0.054 C 
ATOM     20  C17 KWT d   1      58.503  66.419 110.148  0.00  0.00    -0.009 C 
ATOM     21  O4  KWT d   1      58.622  67.469 112.319  0.00  0.00    -0.297 OA
ATOM     22  H1  KWT d   1      60.727  60.928 114.728  0.00  0.00     0.089 H 
ATOM     23  H4  KWT d   1      62.246  57.302 110.698  0.00  0.00     0.068 H 
ATOM     24  H5  KWT d   1      61.483  58.610 109.573  0.00  0.00     0.068 H 
ATOM     25  H7  KWT d   1      61.334  63.655 111.204  0.00  0.00     0.053 H 
ATOM     26  H8  KWT d   1      60.874  63.593 114.180  0.00  0.00     0.085 H 
ATOM     27  H9  KWT d   1      59.131  61.950 112.395  0.00  0.00     0.046 H 
ATOM     28  H10 KWT d   1      58.350  63.903 111.337  0.00  0.00     0.043 H 
ATOM     29  H14 KWT d   1      59.652  65.531 114.210  0.00  0.00     0.038 H 
ATOM     30  H15 KWT d   1      58.204  64.773 113.464  0.00  0.00     0.038 H 
ATOM     31  H19 KWT d   1      58.385  64.515 109.103  0.00  0.00     0.034 H 
ATOM     32  H20 KWT d   1      60.039  65.207 109.198  0.00  0.00     0.034 H 
ATOM     33  H21 KWT d   1      58.933  67.237 109.551  0.00  0.00     0.044 H 
ATOM     34  H22 KWT d   1      57.408  66.424 110.042  0.00  0.00     0.044 H 
ENDROOT
BRANCH   1  35
ATOM     35  C23 KWT d   1      59.311  59.784 113.655  0.00  0.00     0.044 C 
ATOM     36  H2  KWT d   1      58.829  60.300 112.811  0.00  0.00     0.078 H 
ATOM     37  H3  KWT d   1      58.764  60.008 114.583  0.00  0.00     0.078 H 
BRANCH  35  38
ATOM     38  O8  KWT d   1      59.229  58.381 113.421  0.00  0.00    -0.393 OA
BRANCH  38  39
ATOM     39  C24 KWT d   1      57.873  57.977 113.209  0.00  0.00     0.004 C 
ATOM     40  H26 KWT d   1      57.837  56.892 113.031  0.00  0.00     0.066 H 
ATOM     41  H27 KWT d   1      57.465  58.506 112.335  0.00  0.00     0.066 H 
ATOM     42  H28 KWT d   1      57.274  58.223 114.098  0.00  0.00     0.066 H 
ENDBRANCH  38  39
ENDBRANCH  35  38
ENDBRANCH   1  35
BRANCH   3  43
ATOM     43  C10 KWT d   1      62.497  62.002 113.045  0.00  0.00    -0.062 C 
ATOM     44  H11 KWT d   1      63.256  61.218 113.183  0.00  0.00     0.029 H 
ATOM     45  H12 KWT d   1      62.397  62.583 113.974  0.00  0.00     0.029 H 
ATOM     46  H13 KWT d   1      62.803  62.670 112.226  0.00  0.00     0.029 H 
ENDBRANCH   3  43
BRANCH   9  47
ATOM     47  O5  KWT d   1      61.618  60.437 109.120  0.00  0.00    -0.357 OA
ATOM     48  H6  KWT d   1      60.899  60.169 108.560  0.00  0.00     0.218 HD
ENDBRANCH   9  47
BRANCH  13  49
ATOM     49  O6  KWT d   1      59.053  62.764 114.738  0.00  0.00    -0.316 OA
BRANCH  49  50
ATOM     50  C21 KWT d   1      58.610  63.367 116.033  0.00  0.00     0.255 C 
ATOM     51  O7  KWT d   1      57.571  62.938 116.531  0.00  0.00    -0.266 OA
BRANCH  50  52
ATOM     52  C22 KWT d   1      59.362  64.441 116.780  0.00  0.00     0.004 C 
ATOM     53  H23 KWT d   1      58.815  64.701 117.698  0.00  0.00     0.041 H 
ATOM     54  H24 KWT d   1      59.455  65.334 116.144  0.00  0.00     0.041 H 
ATOM     55  H25 KWT d   1      60.364  64.072 117.043  0.00  0.00     0.041 H 
ENDBRANCH  50  52
ENDBRANCH  49  50
ENDBRANCH  13  49
BRANCH  17  56
ATOM     56  C14 KWT d   1      61.203  65.749 112.067  0.00  0.00    -0.062 C 
ATOM     57  H16 KWT d   1      61.476  66.133 111.073  0.00  0.00     0.029 H 
ATOM     58  H17 KWT d   1      61.811  64.861 112.296  0.00  0.00     0.029 H 
ATOM     59  H18 KWT d   1      61.388  66.526 112.824  0.00  0.00     0.029 H 
ENDBRANCH  17  56
TORSDOF 9
