REMARK  12 active torsions:
REMARK  status: ('A' for Active; 'I' for Inactive)
REMARK    1  A    between atoms: C1_1  and  C2_2 
REMARK    2  A    between atoms: C2_2  and  O3_3 
REMARK    3  A    between atoms: O3_3  and  C4_4 
REMARK       I    between atoms: C4_4  and  N6_6 
REMARK    4  A    between atoms: N6_6  and  C8_7 
REMARK    5  A    between atoms: C8_7  and  C9_8 
REMARK    6  A    between atoms: C14_13  and  N15_14 
REMARK    7  A    between atoms: C21_19  and  C22_20 
REMARK    8  A    between atoms: C24_22  and  C25_23 
REMARK    9  A    between atoms: C25_23  and  C27_24 
REMARK   10  A    between atoms: C25_23  and  C26_25 
REMARK   11  A    between atoms: C28_26  and  O29_27 
REMARK   12  A    between atoms: C32_29  and  O33_30 
ROOT
ATOM      1  N15 819 d   1      -0.378 -36.577   1.779  0.00  0.00    -0.271 N 
ATOM      2  C16 819 d   1      -0.736 -37.040   2.959  0.00  0.00     0.199 A 
ATOM      3  S17 819 d   1      -0.151 -38.489   3.707  0.00  0.00    -0.039 SA
ATOM      4  N18 819 d   1      -1.613 -36.197   3.500  0.00  0.00    -0.274 N 
ATOM      5  N20 819 d   1      -1.796 -35.248   2.701  0.00  0.00    -0.282 N 
ATOM      6  C21 819 d   1      -1.046 -35.422   1.593  0.00  0.00     0.142 A 
ATOM      7  H13 819 d   1      -2.052 -36.303   4.393  0.00  0.00     0.189 HD
ATOM      8  H14 819 d   1      -2.427 -34.451   2.867  0.00  0.00     0.188 HD
ENDROOT
BRANCH   1   9
ATOM      9  C14 819 d   1       0.495 -37.173   0.927  0.00  0.00     0.043 A 
ATOM     10  C13 819 d   1       1.887 -37.033   1.119  0.00  0.00    -0.056 A 
ATOM     11  C12 819 d   1       2.791 -37.601   0.200  0.00  0.00    -0.073 A 
ATOM     12  H10 819 d   1       2.261 -36.486   1.977  0.00  0.00     0.087 H 
ATOM     13  C9  819 d   1       2.309 -38.316  -0.917  0.00  0.00    -0.040 A 
ATOM     14  H9  819 d   1       3.858 -37.489   0.351  0.00  0.00     0.084 H 
ATOM     15  C10 819 d   1       0.923 -38.459  -1.106  0.00  0.00    -0.073 A 
ATOM     16  C11 819 d   1       0.019 -37.892  -0.190  0.00  0.00    -0.056 A 
ATOM     17  H11 819 d   1       0.549 -39.009  -1.962  0.00  0.00     0.084 H 
ATOM     18  H12 819 d   1      -1.048 -38.008  -0.343  0.00  0.00     0.087 H 
BRANCH  13  19
ATOM     19  C8  819 d   1       3.203 -38.775  -1.997  0.00  0.00     0.021 C 
ATOM     20  H7  819 d   1       2.872 -39.769  -2.332  0.00  0.00     0.071 H 
ATOM     21  H8  819 d   1       3.139 -38.065  -2.835  0.00  0.00     0.071 H 
BRANCH  19  22
ATOM     22  N6  819 d   1       4.605 -38.866  -1.559  0.00  0.00    -0.333 N 
ATOM     23  C4  819 d   1       5.100 -39.946  -0.942  0.00  0.00     0.360 C 
ATOM     24  O5  819 d   1       6.308 -40.083  -0.719  0.00  0.00    -0.239 OA
ATOM     25  H6  819 d   1       5.212 -38.090  -1.729  0.00  0.00     0.165 HD
BRANCH  23  26
ATOM     26  O3  819 d   1       4.235 -40.971  -0.626  0.00  0.00    -0.304 OA
BRANCH  26  27
ATOM     27  C2  819 d   1       4.897 -42.029   0.119  0.00  0.00     0.027 C 
ATOM     28  H4  819 d   1       4.223 -42.895   0.193  0.00  0.00     0.074 H 
ATOM     29  H5  819 d   1       5.816 -42.323  -0.409  0.00  0.00     0.074 H 
BRANCH  27  30
ATOM     30  C1  819 d   1       5.257 -41.548   1.528  0.00  0.00    -0.056 C 
ATOM     31  H1  819 d   1       5.756 -42.360   2.076  0.00  0.00     0.030 H 
ATOM     32  H2  819 d   1       4.340 -41.255   2.061  0.00  0.00     0.030 H 
ATOM     33  H3  819 d   1       5.933 -40.683   1.459  0.00  0.00     0.030 H 
ENDBRANCH  27  30
ENDBRANCH  26  27
ENDBRANCH  23  26
ENDBRANCH  19  22
ENDBRANCH  13  19
ENDBRANCH   1   9
BRANCH   6  34
ATOM     34  C22 819 d   1      -0.978 -34.546   0.483  0.00  0.00     0.044 A 
ATOM     35  C23 819 d   1       0.270 -34.024   0.088  0.00  0.00    -0.058 A 
ATOM     36  C24 819 d   1       0.397 -33.273  -1.095  0.00  0.00    -0.021 A 
ATOM     37  H15 819 d   1       1.144 -34.203   0.704  0.00  0.00     0.086 H 
ATOM     38  C28 819 d   1      -0.740 -33.037  -1.893  0.00  0.00     0.075 A 
ATOM     39  C31 819 d   1      -1.995 -33.533  -1.495  0.00  0.00    -0.018 A 
ATOM     40  C32 819 d   1      -2.123 -34.280  -0.309  0.00  0.00     0.082 A 
ATOM     41  H24 819 d   1      -2.869 -33.339  -2.106  0.00  0.00     0.092 H 
BRANCH  36  42
ATOM     42  C25 819 d   1       1.767 -32.688  -1.509  0.00  0.00    -0.033 C 
ATOM     43  H16 819 d   1       1.748 -32.487  -2.590  0.00  0.00     0.046 H 
BRANCH  42  44
ATOM     44  C27 819 d   1       2.002 -31.365  -0.771  0.00  0.00    -0.069 C 
ATOM     45  H17 819 d   1       2.977 -30.949  -1.066  0.00  0.00     0.028 H 
ATOM     46  H18 819 d   1       1.993 -31.544   0.314  0.00  0.00     0.028 H 
ATOM     47  H19 819 d   1       1.205 -30.653  -1.032  0.00  0.00     0.028 H 
ENDBRANCH  42  44
BRANCH  42  48
ATOM     48  C26 819 d   1       2.906 -33.682  -1.226  0.00  0.00    -0.069 C 
ATOM     49  H20 819 d   1       2.715 -34.621  -1.765  0.00  0.00     0.028 H 
ATOM     50  H21 819 d   1       2.957 -33.883  -0.146  0.00  0.00     0.028 H 
ATOM     51  H22 819 d   1       3.860 -33.252  -1.565  0.00  0.00     0.028 H 
ENDBRANCH  42  48
ENDBRANCH  36  42
BRANCH  38  52
ATOM     52  O29 819 d   1      -0.619 -32.376  -3.077  0.00  0.00    -0.360 OA
ATOM     53  H23 819 d   1      -1.473 -32.302  -3.486  0.00  0.00     0.217 HD
ENDBRANCH  38  52
BRANCH  40  54
ATOM     54  O33 819 d   1      -3.360 -34.671   0.098  0.00  0.00    -0.360 OA
ATOM     55  H25 819 d   1      -3.902 -33.904   0.241  0.00  0.00     0.217 HD
ENDBRANCH  40  54
ENDBRANCH   6  34
TORSDOF 12
