REMARK  13 active torsions:
REMARK  status: ('A' for Active; 'I' for Inactive)
REMARK    1  A    between atoms: O1_20  and  C1_1 
REMARK    2  A    between atoms: C4_4  and  C9_9 
REMARK    3  A    between atoms: C8_8  and  C7_7 
REMARK    4  A    between atoms: C7_7  and  O1_20 
REMARK    5  A    between atoms: C10_10  and  C8_8 
REMARK    6  A    between atoms: C9_9  and  N1_22 
REMARK    7  A    between atoms: C9_9  and  N2_23 
REMARK    8  A    between atoms: C8'_18  and  C10_10 
REMARK    9  A    between atoms: O1'_21  and  C1'_11 
REMARK   10  A    between atoms: C4'_14  and  C9'_19 
REMARK   11  A    between atoms: C7'_17  and  C8'_18 
REMARK   12  A    between atoms: C7'_17  and  O1'_21 
REMARK   13  A    between atoms: C9'_19  and  N1'_24 
ROOT
ATOM      1  C10 PNT d   1     -30.709 -11.432  75.100  0.00  0.00    -0.061 C 
ATOM      2  H9  PNT d   1     -31.675 -11.956  75.071  0.00  0.00     0.033 H 
ATOM      3  H10 PNT d   1     -30.356 -11.257  74.073  0.00  0.00     0.033 H 
ENDROOT
BRANCH   1   4
ATOM      4  C8  PNT d   1     -29.697 -12.308  75.824  0.00  0.00    -0.045 C 
ATOM      5  H7  PNT d   1     -29.668 -12.029  76.888  0.00  0.00     0.036 H 
ATOM      6  H8  PNT d   1     -29.993 -13.363  75.729  0.00  0.00     0.036 H 
BRANCH   4   7
ATOM      7  C7  PNT d   1     -28.335 -12.116  75.220  0.00  0.00     0.026 C 
ATOM      8  H5  PNT d   1     -27.601 -11.983  76.028  0.00  0.00     0.075 H 
ATOM      9  H6  PNT d   1     -28.349 -11.218  74.585  0.00  0.00     0.075 H 
BRANCH   7  10
ATOM     10  O1  PNT d   1     -27.958 -13.227  74.436  0.00  0.00    -0.351 OA
BRANCH  10  11
ATOM     11  C1  PNT d   1     -28.307 -13.457  73.133  0.00  0.00     0.068 A 
ATOM     12  C2  PNT d   1     -27.308 -13.603  72.184  0.00  0.00    -0.050 A 
ATOM     13  C3  PNT d   1     -27.627 -13.879  70.861  0.00  0.00    -0.067 A 
ATOM     14  H1  PNT d   1     -26.269 -13.501  72.477  0.00  0.00     0.087 H 
ATOM     15  C4  PNT d   1     -28.954 -14.014  70.485  0.00  0.00     0.007 A 
ATOM     16  H2  PNT d   1     -26.840 -13.989  70.124  0.00  0.00     0.085 H 
ATOM     17  C5  PNT d   1     -29.957 -13.885  71.438  0.00  0.00    -0.067 A 
ATOM     18  C6  PNT d   1     -29.632 -13.610  72.757  0.00  0.00    -0.050 A 
ATOM     19  H3  PNT d   1     -30.995 -14.000  71.149  0.00  0.00     0.085 H 
ATOM     20  H4  PNT d   1     -30.418 -13.514  73.498  0.00  0.00     0.087 H 
BRANCH  15  21
ATOM     21  C9  PNT d   1     -29.322 -14.320  69.077  0.00  0.00     0.102 C 
BRANCH  21  22
ATOM     22  N1  PNT d   1     -28.664 -13.882  68.096  0.00  0.00    -0.385 N 
ATOM     23  H19 PNT d   1     -28.953 -14.118  67.136  0.00  0.00     0.157 HD
ATOM     24  H20 PNT d   1     -27.837 -13.288  68.254  0.00  0.00     0.157 HD
ENDBRANCH  21  22
BRANCH  21  25
ATOM     25  N2  PNT d   1     -30.368 -15.111  68.855  0.00  0.00    -0.385 N 
ATOM     26  H21 PNT d   1     -30.915 -15.476  69.648  0.00  0.00     0.157 HD
ATOM     27  H22 PNT d   1     -30.631 -15.358  67.890  0.00  0.00     0.157 HD
ENDBRANCH  21  25
ENDBRANCH  15  21
ENDBRANCH  10  11
ENDBRANCH   7  10
ENDBRANCH   4   7
ENDBRANCH   1   4
BRANCH   1  28
ATOM     28  C8' PNT d   1     -30.900 -10.092  75.786  0.00  0.00    -0.045 C 
ATOM     29  H17 PNT d   1     -29.943  -9.550  75.813  0.00  0.00     0.036 H 
ATOM     30  H18 PNT d   1     -31.261 -10.250  76.813  0.00  0.00     0.036 H 
BRANCH  28  31
ATOM     31  C7' PNT d   1     -31.920  -9.288  75.005  0.00  0.00     0.026 C 
ATOM     32  H15 PNT d   1     -31.458  -8.907  74.082  0.00  0.00     0.075 H 
ATOM     33  H16 PNT d   1     -32.268  -8.443  75.617  0.00  0.00     0.075 H 
BRANCH  31  34
ATOM     34  O1' PNT d   1     -33.030 -10.124  74.672  0.00  0.00    -0.351 OA
BRANCH  34  35
ATOM     35  C1' PNT d   1     -34.120  -9.650  73.986  0.00  0.00     0.068 A 
ATOM     36  C2' PNT d   1     -35.162 -10.530  73.692  0.00  0.00    -0.050 A 
ATOM     37  C3' PNT d   1     -36.279 -10.083  72.995  0.00  0.00    -0.067 A 
ATOM     38  H11 PNT d   1     -35.101 -11.565  74.008  0.00  0.00     0.087 H 
ATOM     39  C4' PNT d   1     -36.369  -8.756  72.594  0.00  0.00     0.007 A 
ATOM     40  H12 PNT d   1     -37.083 -10.773  72.764  0.00  0.00     0.085 H 
ATOM     41  C5' PNT d   1     -35.333  -7.873  72.891  0.00  0.00    -0.067 A 
ATOM     42  C6' PNT d   1     -34.210  -8.316  73.582  0.00  0.00    -0.050 A 
ATOM     43  H13 PNT d   1     -35.402  -6.836  72.582  0.00  0.00     0.085 H 
ATOM     44  H14 PNT d   1     -33.405  -7.626  73.807  0.00  0.00     0.087 H 
BRANCH  39  45
ATOM     45  C9' PNT d   1     -37.580  -8.270  71.856  0.00  0.00     0.102 C 
ATOM     46  N2' PNT d   1     -38.140  -7.101  72.184  0.00  0.00    -0.385 N 
ATOM     47  H25 PNT d   1     -37.736  -6.531  72.941  0.00  0.00     0.157 HD
ATOM     48  H26 PNT d   1     -38.975  -6.771  71.680  0.00  0.00     0.157 HD
BRANCH  45  49
ATOM     49  N1' PNT d   1     -38.068  -8.975  70.931  0.00  0.00    -0.385 N 
ATOM     50  H23 PNT d   1     -38.900  -8.649  70.419  0.00  0.00     0.157 HD
ATOM     51  H24 PNT d   1     -37.635  -9.877  70.688  0.00  0.00     0.157 HD
ENDBRANCH  45  49
ENDBRANCH  39  45
ENDBRANCH  34  35
ENDBRANCH  31  34
ENDBRANCH  28  31
ENDBRANCH   1  28
TORSDOF 13
