REMARK  22 active torsions:
REMARK  status: ('A' for Active; 'I' for Inactive)
REMARK    1  A    between atoms: C_1  and  CH3_3 
REMARK       I    between atoms: C_1  and  N_4 
REMARK    2  A    between atoms: CA_5  and  C_6 
REMARK       I    between atoms: C_6  and  N_11 
REMARK    3  A    between atoms: N_11  and  CA_12 
REMARK    4  A    between atoms: CA_12  and  C_13 
REMARK    5  A    between atoms: CA_12  and  CB_15 
REMARK       I    between atoms: C_13  and  N_19 
REMARK    6  A    between atoms: CB_15  and  CG_16 
REMARK    7  A    between atoms: CG_16  and  CD1_17 
REMARK    8  A    between atoms: CG_16  and  CD2_18 
REMARK    9  A    between atoms: N_19  and  CA_20 
REMARK   10  A    between atoms: CA_20  and  C_21 
REMARK   11  A    between atoms: CA_20  and  CB_23 
REMARK       I    between atoms: C_21  and  N_29 
REMARK   12  A    between atoms: CB_23  and  CG_24 
REMARK   13  A    between atoms: N_29  and  CA_30 
REMARK   14  A    between atoms: CA_30  and  C_31 
REMARK   15  A    between atoms: CA_30  and  CB_33 
REMARK       I    between atoms: C_31  and  N_35 
REMARK   16  A    between atoms: CB_33  and  OG_34 
REMARK   17  A    between atoms: N_35  and  CA_36 
REMARK   18  A    between atoms: CA_36  and  CB_37 
REMARK   19  A    between atoms: CA_36  and  C_44 
REMARK   20  A    between atoms: CB_37  and  CG2_38 
REMARK   21  A    between atoms: CB_37  and  OG1_39 
REMARK   22  A    between atoms: OG1_39  and  P_40 
ROOT
ATOM      1  CA  HIS d   1      -9.867   0.112  -4.689  0.00  0.00     0.094 C 
ATOM      2  H   HIS d   1      -8.800   0.303  -4.806  0.00  0.00     0.088 H 
ENDROOT
BRANCH   1   3
ATOM      3  N   HIS d   1     -10.482   1.245  -4.060  0.00  0.00    -0.346 N 
ATOM      4  C   LEU d   1      -9.879   1.900  -3.073  0.00  0.00     0.241 C 
ATOM      5  O   LEU d   1      -8.828   1.521  -2.583  0.00  0.00    -0.271 OA
ATOM      6  H   HIS d   1     -11.401   1.554  -4.377  0.00  0.00     0.163 HD
BRANCH   4   7
ATOM      7  CA  LEU d   1     -10.557   3.189  -2.597  0.00  0.00     0.089 C 
ATOM      8  H   LEU d   1      -9.831   3.973  -2.812  0.00  0.00     0.087 H 
BRANCH   7   9
ATOM      9  N   LEU d   1     -11.759   3.578  -3.301  0.00  0.00    -0.346 N 
ATOM     10  C   PRO d   1     -11.743   4.461  -4.308  0.00  0.00     0.241 C 
ATOM     11  O   PRO d   1     -10.705   4.906  -4.787  0.00  0.00    -0.271 OA
ATOM     12  H   LEU d   1     -12.649   3.166  -3.021  0.00  0.00     0.163 HD
BRANCH  10  13
ATOM     13  CA  PRO d   1     -13.072   4.828  -4.947  0.00  0.00     0.091 C 
ATOM     14  N   PRO d   1     -13.053   6.223  -5.328  0.00  0.00    -0.339 N 
ATOM     15  C   ACE d   1     -13.210   7.244  -4.455  0.00  0.00     0.216 C 
ATOM     16  CD  PRO d   1     -13.762   6.455  -6.602  0.00  0.00    -0.001 C 
ATOM     17  O   ACE d   1     -13.536   8.406  -4.838  0.00  0.00    -0.274 OA
ATOM     18  CG  PRO d   1     -13.846   5.063  -7.221  0.00  0.00    -0.048 C 
ATOM     19  H   PRO d   1     -13.245   7.168  -7.244  0.00  0.00     0.064 H 
ATOM     20  H   PRO d   1     -14.743   6.908  -6.458  0.00  0.00     0.064 H 
ATOM     21  CB  PRO d   1     -13.179   4.105  -6.302  0.00  0.00    -0.036 C 
ATOM     22  H   PRO d   1     -14.889   4.779  -7.365  0.00  0.00     0.035 H 
ATOM     23  H   PRO d   1     -13.353   5.055  -8.193  0.00  0.00     0.035 H 
ATOM     24  H   PRO d   1     -13.748   3.179  -6.213  0.00  0.00     0.036 H 
ATOM     25  H   PRO d   1     -12.197   3.816  -6.676  0.00  0.00     0.036 H 
ATOM     26  H   PRO d   1     -13.868   4.582  -4.244  0.00  0.00     0.087 H 
BRANCH  15  27
ATOM     27  CH3 ACE d   1     -12.611   7.033  -3.093  0.00  0.00    -0.003 C 
ATOM     28  H   ACE d   1     -11.685   7.603  -3.012  0.00  0.00     0.040 H 
ATOM     29  H   ACE d   1     -13.315   7.370  -2.332  0.00  0.00     0.040 H 
ATOM     30  H   ACE d   1     -12.400   5.973  -2.950  0.00  0.00     0.040 H 
ENDBRANCH  15  27
ENDBRANCH  10  13
ENDBRANCH   7   9
BRANCH   7  31
ATOM     31  CB  LEU d   1     -10.882   3.073  -1.094  0.00  0.00    -0.035 C 
ATOM     32  H   LEU d   1      -9.974   2.748  -0.586  0.00  0.00     0.037 H 
ATOM     33  H   LEU d   1     -11.711   2.373  -0.991  0.00  0.00     0.037 H 
BRANCH  31  34
ATOM     34  CG  LEU d   1     -11.319   4.408  -0.456  0.00  0.00    -0.059 C 
ATOM     35  H   LEU d   1     -11.933   4.948  -1.177  0.00  0.00     0.038 H 
BRANCH  34  36
ATOM     36  CD1 LEU d   1     -12.157   4.134   0.794  0.00  0.00    -0.073 C 
ATOM     37  H   LEU d   1     -13.041   3.559   0.518  0.00  0.00     0.028 H 
ATOM     38  H   LEU d   1     -11.563   3.568   1.511  0.00  0.00     0.028 H 
ATOM     39  H   LEU d   1     -12.462   5.081   1.240  0.00  0.00     0.028 H 
ENDBRANCH  34  36
BRANCH  34  40
ATOM     40  CD2 LEU d   1     -10.131   5.304  -0.146  0.00  0.00    -0.073 C 
ATOM     41  H   LEU d   1      -9.465   4.794   0.550  0.00  0.00     0.028 H 
ATOM     42  H   LEU d   1      -9.594   5.526  -1.068  0.00  0.00     0.028 H 
ATOM     43  H   LEU d   1     -10.485   6.233   0.302  0.00  0.00     0.028 H 
ENDBRANCH  34  40
ENDBRANCH  31  34
ENDBRANCH   7  31
ENDBRANCH   4   7
ENDBRANCH   1   3
BRANCH   1  44
ATOM     44  C   HIS d   1     -10.518  -0.067  -6.026  0.00  0.00     0.241 C 
ATOM     45  O   HIS d   1     -11.568   0.506  -6.268  0.00  0.00    -0.271 OA
ATOM     46  N   SER d   1      -9.859  -0.848  -6.879  0.00  0.00    -0.344 N 
ATOM     47  H   SER d   1      -8.945  -1.216  -6.616  0.00  0.00     0.163 HD
BRANCH  46  48
ATOM     48  CA  SER d   1     -10.421  -1.190  -8.188  0.00  0.00     0.109 C 
ATOM     49  H   SER d   1     -10.735  -0.277  -8.694  0.00  0.00     0.090 H 
BRANCH  48  50
ATOM     50  C   SER d   1     -11.715  -2.038  -8.072  0.00  0.00     0.243 C 
ATOM     51  O   SER d   1     -12.079  -2.518  -6.980  0.00  0.00    -0.271 OA
ATOM     52  N   TPO d   1     -12.413  -2.231  -9.204  0.00  0.00    -0.342 N 
ATOM     53  H   TPO d   1     -12.044  -1.861 -10.080  0.00  0.00     0.163 HD
BRANCH  52  54
ATOM     54  CA  TPO d   1     -13.702  -2.965  -9.222  0.00  0.00     0.121 C 
ATOM     55  H   TPO d   1     -14.446  -2.435  -8.627  0.00  0.00     0.093 H 
BRANCH  54  56
ATOM     56  CB  TPO d   1     -14.121  -3.066 -10.692  0.00  0.00     0.077 C 
ATOM     57  H   TPO d   1     -13.427  -3.734 -11.203  0.00  0.00     0.087 H 
BRANCH  56  58
ATOM     58  CG2 TPO d   1     -15.535  -3.633 -10.871  0.00  0.00    -0.049 C 
ATOM     59  H   TPO d   1     -15.581  -4.634 -10.442  0.00  0.00     0.031 H 
ATOM     60  H   TPO d   1     -16.251  -2.986 -10.364  0.00  0.00     0.031 H 
ATOM     61  H   TPO d   1     -15.774  -3.680 -11.933  0.00  0.00     0.031 H 
ENDBRANCH  56  58
BRANCH  56  62
ATOM     62  OG1 TPO d   1     -14.128  -1.730 -11.210  0.00  0.00    -0.275 OA
BRANCH  62  63
ATOM     63  P   TPO d   1     -13.073  -1.284 -12.371  0.00  0.00     0.422 P 
ATOM     64  O1P TPO d   1     -13.313  -2.319 -13.458  0.00  0.00    -0.617 OA
ATOM     65  O2P TPO d   1     -11.711  -1.295 -11.790  0.00  0.00    -0.617 OA
ATOM     66  O3P TPO d   1     -13.652   0.058 -12.633  0.00  0.00    -0.617 OA
ENDBRANCH  62  63
ENDBRANCH  56  62
ENDBRANCH  54  56
BRANCH  54  67
ATOM     67  C   TPO d   1     -13.584  -4.327  -8.610  0.00  0.00     0.199 C 
ATOM     68  O   TPO d   1     -12.703  -5.104  -9.001  0.00  0.00    -0.646 OA
ATOM     69  OXT TPO d   1     -14.342  -4.659  -7.655  0.00  0.00    -0.646 OA
ENDBRANCH  54  67
ENDBRANCH  52  54
ENDBRANCH  48  50
BRANCH  48  70
ATOM     70  CB  SER d   1      -9.345  -1.856  -9.024  0.00  0.00     0.044 C 
ATOM     71  H   SER d   1      -8.489  -1.182  -9.060  0.00  0.00     0.077 H 
ATOM     72  H   SER d   1      -9.769  -2.062 -10.007  0.00  0.00     0.077 H 
BRANCH  70  73
ATOM     73  OG  SER d   1      -8.908  -3.068  -8.489  0.00  0.00    -0.398 OA
ATOM     74  H   SER d   1      -9.649  -3.676  -8.430  0.00  0.00     0.209 HD
ENDBRANCH  70  73
ENDBRANCH  48  70
ENDBRANCH  46  48
ENDBRANCH   1  44
BRANCH   1  75
ATOM     75  CB  HIS d   1      -9.928  -1.187  -3.825  0.00  0.00     0.004 C 
ATOM     76  H   HIS d   1      -9.386  -0.977  -2.903  0.00  0.00     0.046 H 
ATOM     77  H   HIS d   1      -9.510  -1.989  -4.433  0.00  0.00     0.046 H 
BRANCH  75  78
ATOM     78  CG  HIS d   1     -11.310  -1.622  -3.426  0.00  0.00     0.053 A 
ATOM     79  ND1 HIS d   1     -12.246  -2.061  -4.337  0.00  0.00    -0.247 NA
ATOM     80  CE1 HIS d   1     -13.353  -2.415  -3.704  0.00  0.00     0.064 A 
ATOM     81  NE2 HIS d   1     -13.164  -2.232  -2.409  0.00  0.00    -0.359 N 
ATOM     82  H   HIS d   1     -14.263  -2.792  -4.170  0.00  0.00     0.143 H 
ATOM     83  CD2 HIS d   1     -11.893  -1.738  -2.208  0.00  0.00     0.002 A 
ATOM     84  H   HIS d   1     -13.848  -2.425  -1.677  0.00  0.00     0.166 HD
ATOM     85  H   HIS d   1     -11.441  -1.487  -1.248  0.00  0.00     0.114 H 
ENDBRANCH  75  78
ENDBRANCH   1  75
TORSDOF 22
