REMARK  15 active torsions:
REMARK  status: ('A' for Active; 'I' for Inactive)
REMARK    1  A    between atoms: C2G_7  and  N2G_8 
REMARK    2  A    between atoms: N9G_11  and  C1E_12 
REMARK    3  A    between atoms: C2E_13  and  O2E_14 
REMARK    4  A    between atoms: O2E_14  and  C6E_15 
REMARK    5  A    between atoms: N1C_25  and  C6C_26 
REMARK    6  A    between atoms: C6C_26  and  C9I_27 
REMARK    7  A    between atoms: C6I_31  and  N6I_32 
REMARK    8  A    between atoms: C1D_47  and  N9N_48 
REMARK    9  A    between atoms: C2N_51  and  N2N_52 
REMARK   10  A    between atoms: C2D_59  and  O2D_60 
REMARK   11  A    between atoms: O2D_60  and  C6D_61 
REMARK   12  A    between atoms: C2B_92  and  O2B_93 
REMARK   13  A    between atoms: O2B_93  and  C6B_94 
REMARK   14  A    between atoms: C1B_95  and  N9A_97 
REMARK   15  A    between atoms: C6A_105  and  N6A_106 
ROOT
ATOM      1  C1E C2X d   1     -26.115   4.108   9.700  0.00  0.00     0.140 C 
ATOM      2  C2E C2X d   1     -25.878   3.145  10.848  0.00  0.00     0.108 C 
ATOM      3  C3E C2X d   1     -24.541   3.648  11.327  0.00  0.00     0.106 C 
ATOM      4  O3E C2X d   1     -24.826   4.928  11.848  0.00  0.00    -0.279 OA
ATOM      5  PV  C2X d   1     -24.765   5.377  13.377  0.00  0.00     0.408 P 
ATOM      6  O2V C2X d   1     -23.613   4.682  14.071  0.00  0.00    -0.624 OA
ATOM      7  O1V C2X d   1     -26.164   5.257  13.946  0.00  0.00    -0.624 OA
ATOM      8  O5C C2X d   1     -24.497   6.956  13.202  0.00  0.00    -0.289 OA
ATOM      9  C5C C2X d   1     -23.275   7.582  12.833  0.00  0.00     0.039 C 
ATOM     10  C4C C2X d   1     -23.047   7.768  11.327  0.00  0.00     0.018 C 
ATOM     11  C7C C2X d   1     -23.634   8.996  10.630  0.00  0.00     0.091 C 
ATOM     12  N1C C2X d   1     -22.506   9.443   9.785  0.00  0.00    -0.064 N 
ATOM     13  C2C C2X d   1     -21.316   8.618   9.867  0.00  0.00     0.108 C 
ATOM     14  C3C C2X d   1     -21.577   8.059  11.248  0.00  0.00     0.081 C 
ATOM     15  O3C C2X d   1     -20.965   6.822  11.479  0.00  0.00    -0.282 OA
ATOM     16  PY  C2X d   1     -19.807   6.731  12.579  0.00  0.00     0.408 P 
ATOM     17  O1Y C2X d   1     -18.530   6.659  11.771  0.00  0.00    -0.624 OA
ATOM     18  O2Y C2X d   1     -19.991   7.766  13.649  0.00  0.00    -0.624 OA
ATOM     19  O5D C2X d   1     -20.134   5.313  13.209  0.00  0.00    -0.287 OA
ATOM     20  C5D C2X d   1     -21.282   4.605  12.797  0.00  0.00     0.058 C 
ATOM     21  C4D C2X d   1     -20.854   3.161  12.915  0.00  0.00     0.090 C 
ATOM     22  O4D C2X d   1     -20.563   2.647  11.617  0.00  0.00    -0.353 OA
ATOM     23  C1D C2X d   1     -19.441   1.758  11.674  0.00  0.00     0.140 C 
ATOM     24  C2D C2X d   1     -18.987   1.735  13.128  0.00  0.00     0.108 C 
ATOM     25  C3D C2X d   1     -19.545   3.035  13.684  0.00  0.00     0.106 C 
ATOM     26  O3D C2X d   1     -19.764   3.025  15.097  0.00  0.00    -0.279 OA
ATOM     27  O4E C2X d   1     -24.838   4.235   9.081  0.00  0.00    -0.353 OA
ATOM     28  C4E C2X d   1     -23.807   3.959  10.036  0.00  0.00     0.090 C 
ATOM     29  C5E C2X d   1     -23.030   2.744   9.581  0.00  0.00     0.058 C 
ATOM     30  O5E C2X d   1     -23.982   1.687   9.571  0.00  0.00    -0.287 OA
ATOM     31  PU  C2X d   1     -23.503   0.162   9.727  0.00  0.00     0.408 P 
ATOM     32  O1U C2X d   1     -24.741  -0.702   9.811  0.00  0.00    -0.624 OA
ATOM     33  O2U C2X d   1     -22.470  -0.083   8.651  0.00  0.00    -0.624 OA
ATOM     34  O3U C2X d   1     -22.788   0.143  11.177  0.00  0.00    -0.290 OA
ATOM     35  C1L C2X d   1     -23.482  -0.279  12.357  0.00  0.00     0.032 C 
ATOM     36  C2L C2X d   1     -22.753   0.232  13.605  0.00  0.00    -0.045 C 
ATOM     37  C3L C2X d   1     -21.764  -0.790  14.180  0.00  0.00    -0.063 C 
ATOM     38  C4L C2X d   1     -21.319  -0.401  15.594  0.00  0.00    -0.063 C 
ATOM     39  C5L C2X d   1     -19.927  -0.938  15.933  0.00  0.00    -0.043 C 
ATOM     40  C6L C2X d   1     -19.809  -1.327  17.410  0.00  0.00     0.054 C 
ATOM     41  O6L C2X d   1     -18.547  -0.922  17.966  0.00  0.00    -0.180 OA
ATOM     42  N6L C2X d   1     -18.120  -1.438  19.252  0.00  0.00     0.177 N 
ATOM     43  O3X C2X d   1     -17.819  -0.607  20.397  0.00  0.00    -0.063 OA
ATOM     44  PX  C2X d   1     -16.379   0.104  20.567  0.00  0.00     0.438 P 
ATOM     45  O2X C2X d   1     -16.576   1.558  20.928  0.00  0.00    -0.623 OA
ATOM     46  O1X C2X d   1     -15.503  -0.761  21.441  0.00  0.00    -0.623 OA
ATOM     47  O3B C2X d   1     -15.776   0.033  19.072  0.00  0.00    -0.278 OA
ATOM     48  C3B C2X d   1     -16.111   0.968  18.049  0.00  0.00     0.106 C 
ATOM     49  C4B C2X d   1     -16.348   0.188  16.762  0.00  0.00     0.090 C 
ATOM     50  C5B C2X d   1     -17.221   1.005  15.812  0.00  0.00     0.058 C 
ATOM     51  O5B C2X d   1     -18.092   1.820  16.596  0.00  0.00    -0.287 OA
ATOM     52  PZ  C2X d   1     -18.585   3.312  16.177  0.00  0.00     0.408 P 
ATOM     53  O2Z C2X d   1     -17.449   4.048  15.520  0.00  0.00    -0.624 OA
ATOM     54  O1Z C2X d   1     -19.255   3.871  17.409  0.00  0.00    -0.624 OA
ATOM     55  C2B C2X d   1     -14.836   1.694  17.735  0.00  0.00     0.108 C 
ATOM     56  C1B C2X d   1     -14.120   0.481  17.206  0.00  0.00     0.140 C 
ATOM     57  O4B C2X d   1     -15.034  -0.001  16.212  0.00  0.00    -0.353 OA
ATOM     58  H6  C2X d   1     -26.459   5.080  10.084  0.00  0.00     0.122 H 
ATOM     59  H7  C2X d   1     -25.847   2.096  10.519  0.00  0.00     0.094 H 
ATOM     60  H11 C2X d   1     -24.011   2.974  12.015  0.00  0.00     0.092 H 
ATOM     61  H12 C2X d   1     -22.450   6.970  13.226  0.00  0.00     0.076 H 
ATOM     62  H13 C2X d   1     -23.250   8.576  13.303  0.00  0.00     0.076 H 
ATOM     63  H14 C2X d   1     -23.343   6.854  10.791  0.00  0.00     0.049 H 
ATOM     64  H15 C2X d   1     -23.919   9.770  11.358  0.00  0.00     0.076 H 
ATOM     65  H16 C2X d   1     -24.509   8.728  10.019  0.00  0.00     0.076 H 
ATOM     66  H17 C2X d   1     -22.188  10.033  10.538  0.00  0.00     0.280 HD
ATOM     67  H25 C2X d   1     -20.390   9.209   9.820  0.00  0.00     0.080 H 
ATOM     68  H26 C2X d   1     -21.291   7.836   9.094  0.00  0.00     0.080 H 
ATOM     69  H27 C2X d   1     -21.265   8.787  12.011  0.00  0.00     0.087 H 
ATOM     70  H28 C2X d   1     -21.549   4.854  11.759  0.00  0.00     0.079 H 
ATOM     71  H29 C2X d   1     -22.136   4.819  13.457  0.00  0.00     0.079 H 
ATOM     72  H30 C2X d   1     -21.648   2.576  13.402  0.00  0.00     0.090 H 
ATOM     73  H31 C2X d   1     -19.729   0.746  11.353  0.00  0.00     0.122 H 
ATOM     74  H37 C2X d   1     -17.893   1.676  13.225  0.00  0.00     0.094 H 
ATOM     75  H41 C2X d   1     -18.870   3.870  13.445  0.00  0.00     0.092 H 
ATOM     76  H42 C2X d   1     -23.134   4.820  10.159  0.00  0.00     0.090 H 
ATOM     77  H43 C2X d   1     -22.212   2.522  10.282  0.00  0.00     0.079 H 
ATOM     78  H44 C2X d   1     -22.617   2.903   8.574  0.00  0.00     0.079 H 
ATOM     79  H45 C2X d   1     -23.522  -1.378  12.383  0.00  0.00     0.075 H 
ATOM     80  H46 C2X d   1     -24.505   0.125  12.342  0.00  0.00     0.075 H 
ATOM     81  H47 C2X d   1     -23.501   0.469  14.376  0.00  0.00     0.036 H 
ATOM     82  H48 C2X d   1     -22.199   1.145  13.339  0.00  0.00     0.036 H 
ATOM     83  H49 C2X d   1     -20.880  -0.839  13.527  0.00  0.00     0.033 H 
ATOM     84  H50 C2X d   1     -22.249  -1.777  14.216  0.00  0.00     0.033 H 
ATOM     85  H51 C2X d   1     -22.041  -0.809  16.317  0.00  0.00     0.033 H 
ATOM     86  H52 C2X d   1     -21.303   0.696  15.671  0.00  0.00     0.033 H 
ATOM     87  H53 C2X d   1     -19.182  -0.161  15.709  0.00  0.00     0.036 H 
ATOM     88  H54 C2X d   1     -19.728  -1.826  15.315  0.00  0.00     0.036 H 
ATOM     89  H55 C2X d   1     -19.904  -2.419  17.500  0.00  0.00     0.078 H 
ATOM     90  H56 C2X d   1     -20.619  -0.841  17.973  0.00  0.00     0.078 H 
ATOM     91  H57 C2X d   1     -17.281  -1.966  19.070  0.00  0.00     0.356 HD
ATOM     92  H58 C2X d   1     -18.852  -2.063  19.552  0.00  0.00     0.356 HD
ATOM     93  H59 C2X d   1     -16.947   1.626  18.327  0.00  0.00     0.092 H 
ATOM     94  H60 C2X d   1     -16.828  -0.779  16.969  0.00  0.00     0.090 H 
ATOM     95  H61 C2X d   1     -17.814   0.330  15.178  0.00  0.00     0.079 H 
ATOM     96  H62 C2X d   1     -16.587   1.641  15.178  0.00  0.00     0.079 H 
ATOM     97  H63 C2X d   1     -14.969   2.490  16.988  0.00  0.00     0.094 H 
ATOM     98  H67 C2X d   1     -14.026  -0.278  17.997  0.00  0.00     0.122 H 
ENDROOT
BRANCH  12  99
ATOM     99  C6C C2X d   1     -22.453  10.602   8.886  0.00  0.00     0.111 C 
ATOM    100  H18 C2X d   1     -21.418  10.797   8.569  0.00  0.00     0.083 H 
ATOM    101  H19 C2X d   1     -22.858  11.495   9.384  0.00  0.00     0.083 H 
BRANCH  99 102
ATOM    102  C9I C2X d   1     -23.304  10.224   7.706  0.00  0.00     0.014 A 
ATOM    103  C8I C2X d   1     -22.952   9.509   6.562  0.00  0.00    -0.012 A 
ATOM    104  N7I C2X d   1     -24.075   9.355   5.788  0.00  0.00    -0.360 N 
ATOM    105  H20 C2X d   1     -21.957   9.137   6.324  0.00  0.00     0.112 H 
ATOM    106  C5I C2X d   1     -25.154   9.913   6.372  0.00  0.00     0.107 A 
ATOM    107  H21 C2X d   1     -24.091   8.874   4.877  0.00  0.00     0.165 HD
ATOM    108  C6I C2X d   1     -26.494  10.067   6.038  0.00  0.00     0.151 A 
ATOM    109  C4I C2X d   1     -24.743  10.480   7.544  0.00  0.00     0.098 A 
ATOM    110  N1I C2X d   1     -27.324  10.714   6.886  0.00  0.00    -0.223 NA
ATOM    111  C2I C2X d   1     -26.872  11.225   8.031  0.00  0.00     0.089 A 
ATOM    112  N3I C2X d   1     -25.588  11.102   8.392  0.00  0.00    -0.239 NA
ATOM    113  H24 C2X d   1     -27.558  11.752   8.684  0.00  0.00     0.146 H 
BRANCH 108 114
ATOM    114  N6I C2X d   1     -26.986   9.561   4.884  0.00  0.00    -0.382 N 
ATOM    115  H22 C2X d   1     -27.982   9.684   4.651  0.00  0.00     0.157 HD
ATOM    116  H23 C2X d   1     -26.365   9.053   4.238  0.00  0.00     0.157 HD
ENDBRANCH 108 114
ENDBRANCH  99 102
ENDBRANCH  12  99
BRANCH   2 117
ATOM    117  O2E C2X d   1     -26.850   3.320  11.870  0.00  0.00    -0.384 OA
BRANCH 117 118
ATOM    118  C6E C2X d   1     -27.900   2.359  11.768  0.00  0.00     0.005 C 
ATOM    119  H8  C2X d   1     -28.630   2.527  12.574  0.00  0.00     0.066 H 
ATOM    120  H9  C2X d   1     -27.480   1.346  11.858  0.00  0.00     0.066 H 
ATOM    121  H10 C2X d   1     -28.399   2.463  10.793  0.00  0.00     0.066 H 
ENDBRANCH 117 118
ENDBRANCH   2 117
BRANCH   1 122
ATOM    122  N9G C2X d   1     -27.105   3.596   8.729  0.00  0.00    -0.295 N 
ATOM    123  C8G C2X d   1     -26.801   2.909   7.611  0.00  0.00     0.071 A 
ATOM    124  N7G C2X d   1     -27.916   2.582   6.933  0.00  0.00    -0.234 NA
ATOM    125  H1  C2X d   1     -25.790   2.653   7.298  0.00  0.00     0.144 H 
ATOM    126  C5G C2X d   1     -28.956   3.068   7.615  0.00  0.00     0.171 A 
ATOM    127  C6G C2X d   1     -30.412   3.070   7.434  0.00  0.00     0.292 A 
ATOM    128  C4G C2X d   1     -28.427   3.746   8.806  0.00  0.00     0.161 A 
ATOM    129  O6G C2X d   1     -30.943   2.511   6.461  0.00  0.00    -0.265 OA
ATOM    130  N1G C2X d   1     -31.147   3.681   8.341  0.00  0.00    -0.154 N 
ATOM    131  C2G C2X d   1     -30.628   4.292   9.410  0.00  0.00     0.680 A 
ATOM    132  H2  C2X d   1     -32.140   3.688   8.224  0.00  0.00     0.187 HD
ATOM    133  N3G C2X d   1     -29.295   4.340   9.663  0.00  0.00    -0.174 N 
ATOM    134  H5  C2X d   1     -28.944   4.825  10.501  0.00  0.00     0.186 HD
BRANCH 131 135
ATOM    135  N2G C2X d   1     -31.512   4.868  10.256  0.00  0.00    -0.234 N 
ATOM    136  H3  C2X d   1     -31.176   5.355  11.099  0.00  0.00     0.174 HD
ATOM    137  H4  C2X d   1     -32.522   4.820  10.057  0.00  0.00     0.174 HD
ENDBRANCH 131 135
ENDBRANCH   1 122
BRANCH  23 138
ATOM    138  N9N C2X d   1     -18.377   2.284  10.776  0.00  0.00    -0.295 N 
ATOM    139  C4N C2X d   1     -18.465   2.425   9.447  0.00  0.00     0.161 A 
ATOM    140  N3N C2X d   1     -19.412   2.175   8.501  0.00  0.00    -0.174 N 
ATOM    141  C5N C2X d   1     -17.176   2.983   9.005  0.00  0.00     0.171 A 
ATOM    142  C2N C2X d   1     -19.175   2.435   7.185  0.00  0.00     0.680 A 
ATOM    143  H32 C2X d   1     -20.321   1.783   8.785  0.00  0.00     0.186 HD
ATOM    144  N1N C2X d   1     -18.018   2.945   6.734  0.00  0.00    -0.154 N 
ATOM    145  C6N C2X d   1     -17.001   3.236   7.551  0.00  0.00     0.292 A 
ATOM    146  H35 C2X d   1     -17.913   3.113   5.754  0.00  0.00     0.187 HD
ATOM    147  O6N C2X d   1     -15.937   3.709   7.092  0.00  0.00    -0.265 OA
ATOM    148  N7N C2X d   1     -16.424   3.131  10.112  0.00  0.00    -0.234 NA
ATOM    149  C8N C2X d   1     -17.164   2.710  11.170  0.00  0.00     0.071 A 
ATOM    150  H36 C2X d   1     -16.820   2.717  12.203  0.00  0.00     0.144 H 
BRANCH 142 151
ATOM    151  N2N C2X d   1     -20.138   2.173   6.270  0.00  0.00    -0.234 N 
ATOM    152  H33 C2X d   1     -19.967   2.366   5.273  0.00  0.00     0.174 HD
ATOM    153  H34 C2X d   1     -21.041   1.780   6.571  0.00  0.00     0.174 HD
ENDBRANCH 142 151
ENDBRANCH  23 138
BRANCH  24 154
ATOM    154  O2D C2X d   1     -19.624   0.633  13.782  0.00  0.00    -0.384 OA
BRANCH 154 155
ATOM    155  C6D C2X d   1     -18.897  -0.593  13.670  0.00  0.00     0.005 C 
ATOM    156  H38 C2X d   1     -19.443  -1.392  14.193  0.00  0.00     0.066 H 
ATOM    157  H39 C2X d   1     -17.902  -0.472  14.122  0.00  0.00     0.066 H 
ATOM    158  H40 C2X d   1     -18.787  -0.859  12.608  0.00  0.00     0.066 H 
ENDBRANCH 154 155
ENDBRANCH  24 154
BRANCH  55 159
ATOM    159  O2B C2X d   1     -14.167   2.209  18.881  0.00  0.00    -0.384 OA
BRANCH 159 160
ATOM    160  C6B C2X d   1     -13.801   3.577  18.699  0.00  0.00     0.005 C 
ATOM    161  H64 C2X d   1     -13.288   3.942  19.601  0.00  0.00     0.066 H 
ATOM    162  H65 C2X d   1     -14.705   4.178  18.523  0.00  0.00     0.066 H 
ATOM    163  H66 C2X d   1     -13.128   3.664  17.833  0.00  0.00     0.066 H 
ENDBRANCH 159 160
ENDBRANCH  55 159
BRANCH  56 164
ATOM    164  N9A C2X d   1     -12.748   0.823  16.768  0.00  0.00    -0.294 N 
ATOM    165  C4A C2X d   1     -12.213   2.050  16.780  0.00  0.00     0.167 A 
ATOM    166  C5A C2X d   1     -10.912   1.934  16.321  0.00  0.00     0.149 A 
ATOM    167  N3A C2X d   1     -12.693   3.274  17.124  0.00  0.00    -0.222 NA
ATOM    168  N7A C2X d   1     -10.687   0.628  16.056  0.00  0.00    -0.236 NA
ATOM    169  C6A C2X d   1     -10.126   3.073  16.219  0.00  0.00     0.155 A 
ATOM    170  C8A C2X d   1     -11.823  -0.049  16.340  0.00  0.00     0.071 A 
ATOM    171  H68 C2X d   1     -11.963  -1.124  16.238  0.00  0.00     0.144 H 
ATOM    172  N1A C2X d   1     -10.644   4.271  16.571  0.00  0.00    -0.222 NA
ATOM    173  C2A C2X d   1     -11.907   4.360  17.016  0.00  0.00     0.091 A 
ATOM    174  H69 C2X d   1     -12.303   5.330  17.295  0.00  0.00     0.146 H 
BRANCH 169 175
ATOM    175  N6A C2X d   1      -8.853   2.973  15.772  0.00  0.00    -0.382 N 
ATOM    176  H70 C2X d   1      -8.267   3.816  15.695  0.00  0.00     0.157 HD
ATOM    177  H71 C2X d   1      -8.470   2.054  15.509  0.00  0.00     0.157 HD
ENDBRANCH 169 175
ENDBRANCH  56 164
TORSDOF 15
