REMARK  6 active torsions:
REMARK  status: ('A' for Active; 'I' for Inactive)
REMARK    1  A    between atoms: CAE_1  and  CAQ_3 
REMARK    2  A    between atoms: CAR_7  and  CAF_9 
REMARK    3  A    between atoms: CAG_10  and  CAS_11 
REMARK    4  A    between atoms: CAO_13  and  CAB_14 
REMARK    5  A    between atoms: CAP_15  and  OAD_16 
REMARK    6  A    between atoms: CAN_17  and  CAA_18 
ROOT
ATOM      1  CAS A93 d   1      -0.284  -0.013  -7.472  0.00  0.00    -0.035 A 
ATOM      2  CAL A93 d   1       0.111  -1.163  -8.165  0.00  0.00    -0.065 A 
ATOM      3  CAO A93 d   1       0.230  -1.178  -9.566  0.00  0.00    -0.028 A 
ATOM      4  CAP A93 d   1      -0.036   0.005 -10.259  0.00  0.00     0.077 A 
ATOM      5  CAN A93 d   1      -0.413   1.176  -9.598  0.00  0.00    -0.028 A 
ATOM      6  CAK A93 d   1      -0.532   1.154  -8.200  0.00  0.00    -0.065 A 
ATOM      7  H8  A93 d   1       0.331  -2.066  -7.607  0.00  0.00     0.085 H 
ATOM      8  H16 A93 d   1      -0.821   2.058  -7.676  0.00  0.00     0.085 H 
ENDROOT
BRANCH   1   9
ATOM      9  CAG A93 d   1      -0.426  -0.055  -5.979  0.00  0.00    -0.072 C 
ATOM     10  CAF A93 d   1      -1.045   0.901  -5.284  0.00  0.00    -0.072 C 
ATOM     11  H6  A93 d   1      -1.419   1.755  -5.847  0.00  0.00     0.084 H 
ATOM     12  H7  A93 d   1      -0.006  -0.902  -5.439  0.00  0.00     0.084 H 
BRANCH  10  13
ATOM     13  CAR A93 d   1      -1.275   0.912  -3.799  0.00  0.00    -0.035 A 
ATOM     14  CAJ A93 d   1      -2.133   1.909  -3.358  0.00  0.00    -0.073 A 
ATOM     15  CAH A93 d   1      -2.466   2.061  -2.021  0.00  0.00    -0.081 A 
ATOM     16  H4  A93 d   1      -2.558   2.593  -4.084  0.00  0.00     0.084 H 
ATOM     17  CAI A93 d   1      -1.923   1.210  -1.088  0.00  0.00    -0.070 A 
ATOM     18  H3  A93 d   1      -3.149   2.845  -1.714  0.00  0.00     0.083 H 
ATOM     19  CAQ A93 d   1      -1.061   0.199  -1.483  0.00  0.00     0.002 A 
ATOM     20  H2  A93 d   1      -2.170   1.330  -0.039  0.00  0.00     0.084 H 
ATOM     21  CAM A93 d   1      -0.717   0.042  -2.851  0.00  0.00    -0.060 A 
ATOM     22  H5  A93 d   1      -0.032  -0.740  -3.159  0.00  0.00     0.086 H 
BRANCH  19  23
ATOM     23  CAE A93 d   1      -0.572  -0.627  -0.317  0.00  0.00     0.118 C 
ATOM     24  OAE A93 d   1       0.434  -0.283   0.295  0.00  0.00    -0.301 OA
ATOM     25  H1  A93 d   1      -1.111  -1.526  -0.020  0.00  0.00     0.151 H 
ENDBRANCH  19  23
ENDBRANCH  10  13
ENDBRANCH   1   9
BRANCH   3  26
ATOM     26  CAB A93 d   1       0.648  -2.422 -10.317  0.00  0.00    -0.049 C 
ATOM     27  H9  A93 d   1       0.811  -3.243  -9.604  0.00  0.00     0.033 H 
ATOM     28  H10 A93 d   1       1.580  -2.223 -10.866  0.00  0.00     0.033 H 
ATOM     29  H11 A93 d   1      -0.143  -2.705 -11.027  0.00  0.00     0.033 H 
ENDBRANCH   3  26
BRANCH   5  30
ATOM     30  CAA A93 d   1      -0.714   2.434 -10.387  0.00  0.00    -0.049 C 
ATOM     31  H13 A93 d   1      -0.991   3.243  -9.695  0.00  0.00     0.033 H 
ATOM     32  H14 A93 d   1      -1.547   2.242 -11.079  0.00  0.00     0.033 H 
ATOM     33  H15 A93 d   1       0.177   2.730 -10.959  0.00  0.00     0.033 H 
ENDBRANCH   5  30
BRANCH   4  34
ATOM     34  OAD A93 d   1       0.070   0.025 -11.629  0.00  0.00    -0.360 OA
ATOM     35  H12 A93 d   1      -0.141   0.894 -11.949  0.00  0.00     0.217 HD
ENDBRANCH   4  34
TORSDOF 6
