REMARK  7 active torsions:
REMARK  status: ('A' for Active; 'I' for Inactive)
REMARK    1  A    between atoms: C1_1  and  O2_2 
REMARK    2  A    between atoms: O2_2  and  C12_16 
REMARK    3  A    between atoms: C4_7  and  C7_10 
REMARK    4  A    between atoms: C7_10  and  C8_12 
REMARK    5  A    between atoms: C8_12  and  C9_13 
REMARK    6  A    between atoms: C9_13  and  C10_14 
REMARK    7  A    between atoms: C12_16  and  C13_17 
ROOT
ATOM      1  C1  EAA d   1       8.730   3.489  31.524  0.00  0.00     0.092 A 
ATOM      2  C2  EAA d   1       9.344   2.306  30.877  0.00  0.00     0.090 A 
ATOM      3 CL1  EAA d   1       9.576   0.752  31.747  0.00  0.00    -0.080 Cl
ATOM      4  C3  EAA d   1       9.778   2.415  29.469  0.00  0.00     0.072 A 
ATOM      5 CL2  EAA d   1      10.520   0.961  28.756  0.00  0.00    -0.081 Cl
ATOM      6  C4  EAA d   1       9.592   3.694  28.725  0.00  0.00     0.038 A 
ATOM      7  C5  EAA d   1       8.998   4.746  29.430  0.00  0.00    -0.065 A 
ATOM      8  C6  EAA d   1       8.581   4.655  30.769  0.00  0.00    -0.048 A 
ATOM      9  H1  EAA d   1       8.851   5.687  28.913  0.00  0.00     0.085 H 
ATOM     10  H2  EAA d   1       8.127   5.522  31.234  0.00  0.00     0.087 H 
ENDROOT
BRANCH   6  11
ATOM     11  C7  EAA d   1       9.999   3.908  27.273  0.00  0.00     0.189 C 
ATOM     12  O1  EAA d   1       9.540   4.863  26.666  0.00  0.00    -0.287 OA
BRANCH  11  13
ATOM     13  C8  EAA d   1      10.928   3.055  26.520  0.00  0.00    -0.017 C 
ATOM     14  C11 EAA d   1      11.712   2.193  27.142  0.00  0.00    -0.112 C 
ATOM     15  H8  EAA d   1      11.661   2.094  28.225  0.00  0.00     0.067 H 
ATOM     16  H9  EAA d   1      12.409   1.581  26.572  0.00  0.00     0.067 H 
BRANCH  13  17
ATOM     17  C9  EAA d   1      11.019   3.174  25.005  0.00  0.00    -0.041 C 
ATOM     18  H3  EAA d   1      11.159   4.232  24.739  0.00  0.00     0.039 H 
ATOM     19  H4  EAA d   1      10.082   2.806  24.562  0.00  0.00     0.039 H 
BRANCH  17  20
ATOM     20  C10 EAA d   1      12.181   2.366  24.443  0.00  0.00    -0.073 C 
ATOM     21  H5  EAA d   1      12.211   2.479  23.349  0.00  0.00     0.028 H 
ATOM     22  H6  EAA d   1      12.047   1.304  24.698  0.00  0.00     0.028 H 
ATOM     23  H7  EAA d   1      13.124   2.731  24.875  0.00  0.00     0.028 H 
ENDBRANCH  17  20
ENDBRANCH  13  17
ENDBRANCH  11  13
ENDBRANCH   6  11
BRANCH   1  24
ATOM     24  O2  EAA d   1       8.321   3.402  32.835  0.00  0.00    -0.339 OA
BRANCH  24  25
ATOM     25  C12 EAA d   1       8.306   4.553  33.685  0.00  0.00     0.106 C 
ATOM     26  H10 EAA d   1       8.852   5.372  33.194  0.00  0.00     0.091 H 
ATOM     27  H11 EAA d   1       8.797   4.305  34.638  0.00  0.00     0.091 H 
BRANCH  25  28
ATOM     28  C13 EAA d   1       6.890   4.994  33.957  0.00  0.00     0.198 C 
ATOM     29  O   EAA d   1       6.019   4.808  33.078  0.00  0.00    -0.646 OA
ATOM     30  OXT EAA d   1       6.639   5.531  35.056  0.00  0.00    -0.646 OA
ENDBRANCH  25  28
ENDBRANCH  24  25
ENDBRANCH   1  24
TORSDOF 7
