REMARK WARNING: 32 MAX_TORS EXCEEDED!!!
REMARK  36 active torsions:
REMARK  status: ('A' for Active; 'I' for Inactive)
REMARK    1  A    between atoms: C_1  and  CH3_3 
REMARK       I    between atoms: N_4  and  C_1 
REMARK    2  A    between atoms: CA_5  and  N_4 
REMARK    3  A    between atoms: C1_6  and  CA_5 
REMARK    4  A    between atoms: CA_5  and  CB_8 
REMARK       I    between atoms: N1_11  and  C1_6 
REMARK    5  A    between atoms: CB_8  and  OG1_9 
REMARK    6  A    between atoms: CB_8  and  CG2_10 
REMARK    7  A    between atoms: CA1_12  and  N1_11 
REMARK    8  A    between atoms: C2_13  and  CA1_12 
REMARK    9  A    between atoms: CA1_12  and  CB1_15 
REMARK       I    between atoms: N2_19  and  C2_13 
REMARK   10  A    between atoms: CB1_15  and  CG1_16 
REMARK   11  A    between atoms: CB1_15  and  CG21_17 
REMARK   12  A    between atoms: CG1_16  and  CD1_18 
REMARK   13  A    between atoms: CA2_20  and  N2_19 
REMARK   14  A    between atoms: C3_21  and  CA2_20 
REMARK   15  A    between atoms: CA2_20  and  CB2_22 
REMARK   16  A    between atoms: N3_26  and  C3_21 
REMARK   17  A    between atoms: CB2_22  and  CG_23 
REMARK   18  A    between atoms: CG_23  and  CD_24 
REMARK   19  A    between atoms: CD_24  and  CE_25 
REMARK   20  A    between atoms: CA3_27  and  N3_26 
REMARK   21  A    between atoms: C4_28  and  CA3_27 
REMARK   22  A    between atoms: CA3_27  and  CB3_30 
REMARK       I    between atoms: N4_34  and  C4_28 
REMARK   23  A    between atoms: CB3_30  and  CG3_31 
REMARK   24  A    between atoms: CG3_31  and  CD2_32 
REMARK   25  A    between atoms: CD2_32  and  CE1_33 
REMARK   26  A    between atoms: CA4_35  and  N4_34 
REMARK   27  A    between atoms: C5_36  and  CA4_35 
REMARK   28  A    between atoms: CA4_35  and  CB4_38 
REMARK       I    between atoms: N5_43  and  C5_36 
REMARK   29  A    between atoms: CB4_38  and  CG4_39 
REMARK   30  A    between atoms: CG4_39  and  CD3_40 
REMARK       I    between atoms: CD3_40  and  NE2_42 
REMARK   31  A    between atoms: C7_108  and  N5_43 
REMARK       I    between atoms: C6_44  and  N6_53 
REMARK   32  A    between atoms: C7_108  and  C6_44 
REMARK   33  A    between atoms: CB5_46  and  CG5_47 
REMARK   34  A    between atoms: C7_108  and  CB5_46 
REMARK   35  A    between atoms: CG5_47  and  CD4_48 
REMARK   36  A    between atoms: CD4_48  and  NE_49 
REMARK       I    between atoms: NE_49  and  CZ_50 
REMARK       I    between atoms: CZ_50  and  NH1_51 
ROOT
ATOM      1  N3  2NC d   1       5.906  -0.648  14.960  0.00  0.00    -0.060 N 
ATOM      2  H   2NC d   1       6.199  -1.434  14.380  0.00  0.00     0.278 HD
ATOM      3  H   2NC d   1       6.502  -0.393  15.748  0.00  0.00     0.278 HD
ENDROOT
BRANCH   1   4
ATOM      4  C3  2NC d   1       4.630  -1.051  15.549  0.00  0.00     0.101 C 
ATOM      5  H   2NC d   1       4.589  -0.628  16.553  0.00  0.00     0.078 H 
ATOM      6  H   2NC d   1       3.841  -0.696  14.886  0.00  0.00     0.078 H 
BRANCH   4   7
ATOM      7  CA2 2NC d   1       4.461  -2.547  15.686  0.00  0.00     0.035 C 
ATOM      8  H   2NC d   1       4.448  -2.894  14.653  0.00  0.00     0.075 H 
BRANCH   7   9
ATOM      9  N2  2NC d   1       5.588  -3.252  16.350  0.00  0.00    -0.353 N 
ATOM     10  C2  2NC d   1       6.425  -3.909  15.579  0.00  0.00     0.241 C 
ATOM     11  O2  2NC d   1       6.345  -3.816  14.359  0.00  0.00    -0.271 OA
ATOM     12  H   2NC d   1       5.707  -3.227  17.363  0.00  0.00     0.163 HD
BRANCH  10  13
ATOM     13  CA1 2NC d   1       7.466  -4.798  16.249  0.00  0.00     0.092 C 
ATOM     14  H   2NC d   1       7.706  -4.343  17.210  0.00  0.00     0.088 H 
BRANCH  13  15
ATOM     15  N1  2NC d   1       6.943  -6.132  16.540  0.00  0.00    -0.346 N 
ATOM     16  C1  2NC d   1       6.765  -6.571  17.769  0.00  0.00     0.243 C 
ATOM     17  O1  2NC d   1       7.066  -5.899  18.772  0.00  0.00    -0.271 OA
ATOM     18  H   2NC d   1       6.707  -6.747  15.761  0.00  0.00     0.163 HD
BRANCH  16  19
ATOM     19  CA  2NC d   1       6.143  -7.982  17.946  0.00  0.00     0.113 C 
ATOM     20  H   2NC d   1       5.229  -7.857  18.527  0.00  0.00     0.091 H 
BRANCH  19  21
ATOM     21  N   2NC d   1       5.653  -8.654  16.710  0.00  0.00    -0.346 N 
ATOM     22  C   2NC d   1       4.351  -8.789  16.411  0.00  0.00     0.214 C 
ATOM     23  O   2NC d   1       3.455  -8.674  17.266  0.00  0.00    -0.274 OA
ATOM     24  H   2NC d   1       6.341  -9.030  16.058  0.00  0.00     0.163 HD
BRANCH  22  25
ATOM     25  CH3 2NC d   1       4.109  -9.528  15.124  0.00  0.00    -0.003 C 
ATOM     26  H   2NC d   1       3.837 -10.560  15.345  0.00  0.00     0.040 H 
ATOM     27  H   2NC d   1       3.299  -9.046  14.577  0.00  0.00     0.040 H 
ATOM     28  H   2NC d   1       5.017  -9.511  14.521  0.00  0.00     0.040 H 
ENDBRANCH  22  25
ENDBRANCH  19  21
BRANCH  19  29
ATOM     29  CB  2NC d   1       7.178  -8.829  18.643  0.00  0.00     0.060 C 
ATOM     30  H   2NC d   1       7.493  -8.317  19.552  0.00  0.00     0.086 H 
BRANCH  29  31
ATOM     31  OG1 2NC d   1       8.313  -9.008  17.791  0.00  0.00    -0.393 OA
ATOM     32  H   2NC d   1       8.967  -9.548  18.241  0.00  0.00     0.210 HD
ENDBRANCH  29  31
BRANCH  29  33
ATOM     33  CG2 2NC d   1       6.571 -10.230  19.050  0.00  0.00    -0.050 C 
ATOM     34  H   2NC d   1       6.262 -10.765  18.152  0.00  0.00     0.031 H 
ATOM     35  H   2NC d   1       7.326 -10.812  19.579  0.00  0.00     0.031 H 
ATOM     36  H   2NC d   1       5.708 -10.076  19.698  0.00  0.00     0.031 H 
ENDBRANCH  29  33
ENDBRANCH  19  29
ENDBRANCH  16  19
ENDBRANCH  13  15
BRANCH  13  37
ATOM     37  CB1 2NC d   1       8.789  -4.851  15.428  0.00  0.00    -0.030 C 
ATOM     38  H   2NC d   1       8.486  -5.167  14.430  0.00  0.00     0.043 H 
BRANCH  37  39
ATOM     39  CG1 2NC d   1       9.794  -5.869  15.988  0.00  0.00    -0.063 C 
ATOM     40  H   2NC d   1      10.662  -5.839  15.330  0.00  0.00     0.033 H 
ATOM     41  H   2NC d   1       9.270  -6.824  16.038  0.00  0.00     0.033 H 
BRANCH  39  42
ATOM     42  CD1 2NC d   1      10.321  -5.579  17.426  0.00  0.00    -0.076 C 
ATOM     43  H   2NC d   1      10.825  -4.613  17.439  0.00  0.00     0.027 H 
ATOM     44  H   2NC d   1       9.483  -5.562  18.122  0.00  0.00     0.027 H 
ATOM     45  H   2NC d   1      11.023  -6.360  17.719  0.00  0.00     0.027 H 
ENDBRANCH  39  42
ENDBRANCH  37  39
BRANCH  37  46
ATOM     46  CG2 2NC d   1       9.475  -3.483  15.337  0.00  0.00    -0.071 C 
ATOM     47  H   2NC d   1       8.805  -2.773  14.852  0.00  0.00     0.028 H 
ATOM     48  H   2NC d   1       9.714  -3.131  16.340  0.00  0.00     0.028 H 
ATOM     49  H   2NC d   1      10.392  -3.576  14.755  0.00  0.00     0.028 H 
ENDBRANCH  37  46
ENDBRANCH  13  37
ENDBRANCH  10  13
ENDBRANCH   7   9
BRANCH   7  50
ATOM     50  CB2 2NC d   1       3.141  -2.924  16.371  0.00  0.00    -0.045 C 
ATOM     51  H   2NC d   1       2.353  -2.645  15.672  0.00  0.00     0.036 H 
ATOM     52  H   2NC d   1       3.150  -2.415  17.335  0.00  0.00     0.036 H 
BRANCH  50  53
ATOM     53  CG  2NC d   1       2.919  -4.397  16.681  0.00  0.00    -0.064 C 
ATOM     54  H   2NC d   1       1.937  -4.475  17.148  0.00  0.00     0.033 H 
ATOM     55  H   2NC d   1       3.754  -4.716  17.304  0.00  0.00     0.033 H 
BRANCH  53  56
ATOM     56  CD  2NC d   1       2.901  -5.328  15.452  0.00  0.00    -0.068 C 
ATOM     57  H   2NC d   1       2.688  -6.358  15.737  0.00  0.00     0.032 H 
ATOM     58  H   2NC d   1       3.872  -5.353  14.958  0.00  0.00     0.032 H 
BRANCH  56  59
ATOM     59  CE  2NC d   1       1.836  -4.779  14.541  0.00  0.00    -0.077 C 
ATOM     60  H   2NC d   1       0.877  -4.787  15.059  0.00  0.00     0.027 H 
ATOM     61  H   2NC d   1       2.091  -3.757  14.261  0.00  0.00     0.027 H 
ATOM     62  H   2NC d   1       1.772  -5.397  13.646  0.00  0.00     0.027 H 
ENDBRANCH  56  59
ENDBRANCH  53  56
ENDBRANCH  50  53
ENDBRANCH   7  50
ENDBRANCH   4   7
ENDBRANCH   1   4
BRANCH   1  63
ATOM     63  CA3 2NC d   1       5.908   0.522  14.069  0.00  0.00     0.178 C 
ATOM     64  H   2NC d   1       5.667   1.403  14.664  0.00  0.00     0.099 H 
BRANCH  63  65
ATOM     65  C4  2NC d   1       4.824   0.423  12.985  0.00  0.00     0.249 C 
ATOM     66  O3  2NC d   1       4.537  -0.604  12.348  0.00  0.00    -0.271 OA
ATOM     67  N4  2NC d   1       4.226   1.562  12.716  0.00  0.00    -0.346 N 
ATOM     68  H   2NC d   1       4.444   2.389  13.271  0.00  0.00     0.163 HD
BRANCH  67  69
ATOM     69  CA4 2NC d   1       3.240   1.657  11.616  0.00  0.00     0.090 C 
ATOM     70  H   2NC d   1       3.518   0.957  10.828  0.00  0.00     0.087 H 
BRANCH  69  71
ATOM     71  C5  2NC d   1       3.268   3.054  11.021  0.00  0.00     0.241 C 
ATOM     72  O4  2NC d   1       3.360   4.072  11.710  0.00  0.00    -0.271 OA
ATOM     73  N5  2NC d   1       3.244   3.087   9.710  0.00  0.00    -0.346 N 
ATOM     74  H   2NC d   1       3.167   2.219   9.179  0.00  0.00     0.163 HD
BRANCH  73  75
ATOM     75  C7  2NC d   1       3.307   4.278   9.069  0.00  0.00     0.089 C 
ATOM     76  H   2NC d   1       3.297   5.113   9.785  0.00  0.00     0.087 H 
BRANCH  75  77
ATOM     77  C6  2NC d   1       2.183   4.412   8.084  0.00  0.00     0.238 C 
ATOM     78  O5  2NC d   1       1.913   3.460   7.313  0.00  0.00    -0.271 OA
ATOM     79  N6  2NC d   1       1.469   5.556   8.033  0.00  0.00    -0.368 N 
ATOM     80  H   2NC d   1       0.704   5.651   7.365  0.00  0.00     0.159 HD
ATOM     81  H   2NC d   1       1.694   6.326   8.663  0.00  0.00     0.159 HD
ENDBRANCH  75  77
BRANCH  75  82
ATOM     82  CB5 2NC d   1       4.696   4.226   8.219  0.00  0.00    -0.036 C 
ATOM     83  H   2NC d   1       4.982   3.172   8.084  0.00  0.00     0.036 H 
ATOM     84  H   2NC d   1       4.519   4.687   7.236  0.00  0.00     0.036 H 
BRANCH  82  85
ATOM     85  CG5 2NC d   1       5.863   4.965   8.901  0.00  0.00    -0.048 C 
ATOM     86  H   2NC d   1       6.746   4.325   8.887  0.00  0.00     0.035 H 
ATOM     87  H   2NC d   1       5.583   5.202   9.928  0.00  0.00     0.035 H 
BRANCH  85  88
ATOM     88  CD4 2NC d   1       6.183   6.293   8.140  0.00  0.00     0.009 C 
ATOM     89  H   2NC d   1       5.972   6.133   7.083  0.00  0.00     0.064 H 
ATOM     90  H   2NC d   1       7.228   6.543   8.325  0.00  0.00     0.064 H 
BRANCH  88  91
ATOM     91  NE  2NC d   1       5.360   7.419   8.601  0.00  0.00    -0.227 N 
ATOM     92  CZ  2NC d   1       5.813   8.622   8.935  0.00  0.00     0.665 C 
ATOM     93  NH1 2NC d   1       7.104   8.939   8.843  0.00  0.00    -0.235 N 
ATOM     94  NH2 2NC d   1       4.957   9.532   9.350  0.00  0.00    -0.235 N 
ATOM     95  H   2NC d   1       7.776   8.249   8.508  0.00  0.00     0.174 HD
ATOM     96  H   2NC d   1       7.420   9.872   9.107  0.00  0.00     0.174 HD
ATOM     97  H   2NC d   1       3.964   9.308   9.411  0.00  0.00     0.174 HD
ATOM     98  H   2NC d   1       5.287  10.461   9.611  0.00  0.00     0.174 HD
ATOM     99  H   2NC d   1       4.354   7.264   8.671  0.00  0.00     0.177 HD
ENDBRANCH  88  91
ENDBRANCH  85  88
ENDBRANCH  82  85
ENDBRANCH  75  82
ENDBRANCH  73  75
ENDBRANCH  69  71
BRANCH  69 100
ATOM    100  CB4 2NC d   1       1.836   1.226  12.072  0.00  0.00    -0.030 C 
ATOM    101  H   2NC d   1       1.560   1.854  12.919  0.00  0.00     0.037 H 
ATOM    102  H   2NC d   1       1.882   0.164  12.315  0.00  0.00     0.037 H 
BRANCH 100 103
ATOM    103  CG4 2NC d   1       0.755   1.407  10.989  0.00  0.00     0.011 C 
ATOM    104  H   2NC d   1      -0.056   0.717  11.220  0.00  0.00     0.047 H 
ATOM    105  H   2NC d   1       1.227   1.223  10.024  0.00  0.00     0.047 H 
BRANCH 103 106
ATOM    106  CD3 2NC d   1       0.167   2.792  10.944  0.00  0.00     0.215 C 
ATOM    107  OE1 2NC d   1       0.223   3.517  11.924  0.00  0.00    -0.274 OA
ATOM    108  NE2 2NC d   1      -0.414   3.165   9.808  0.00  0.00    -0.370 N 
ATOM    109  H   2NC d   1      -0.836   4.090   9.731  0.00  0.00     0.159 HD
ATOM    110  H   2NC d   1      -0.438   2.526   9.013  0.00  0.00     0.159 HD
ENDBRANCH 103 106
ENDBRANCH 100 103
ENDBRANCH  69 100
ENDBRANCH  67  69
ENDBRANCH  63  65
BRANCH  63 111
ATOM    111  CB3 2NC d   1       7.295   0.706  13.460  0.00  0.00    -0.030 C 
ATOM    112  H   2NC d   1       7.485  -0.188  12.867  0.00  0.00     0.036 H 
ATOM    113  H   2NC d   1       7.970   0.887  14.296  0.00  0.00     0.036 H 
BRANCH 111 114
ATOM    114  CG3 2NC d   1       7.469   1.881  12.517  0.00  0.00    -0.063 C 
ATOM    115  H   2NC d   1       8.376   2.426  12.780  0.00  0.00     0.033 H 
ATOM    116  H   2NC d   1       6.608   2.544  12.601  0.00  0.00     0.033 H 
BRANCH 114 117
ATOM    117  CD2 2NC d   1       7.580   1.374  11.087  0.00  0.00    -0.068 C 
ATOM    118  H   2NC d   1       7.710   2.226  10.419  0.00  0.00     0.032 H 
ATOM    119  H   2NC d   1       6.673   0.825  10.836  0.00  0.00     0.032 H 
BRANCH 117 120
ATOM    120  CE1 2NC d   1       8.781   0.441  10.939  0.00  0.00    -0.077 C 
ATOM    121  H   2NC d   1       9.693   0.981  11.195  0.00  0.00     0.027 H 
ATOM    122  H   2NC d   1       8.662  -0.411  11.608  0.00  0.00     0.027 H 
ATOM    123  H   2NC d   1       8.842   0.090   9.909  0.00  0.00     0.027 H 
ENDBRANCH 117 120
ENDBRANCH 114 117
ENDBRANCH 111 114
ENDBRANCH  63 111
ENDBRANCH   1  63
TORSDOF 36
