REMARK  4 active torsions:
REMARK  status: ('A' for Active; 'I' for Inactive)
REMARK    1  A    between atoms: C2_2  and  C1_1 
REMARK    2  A    between atoms: C8_8  and  C6_6 
REMARK    3  A    between atoms: N5_24  and  C10_10 
REMARK    4  A    between atoms: C12_11  and  N5_24 
ROOT
ATOM      1  C8  855 d   1      14.743  65.859   5.924  0.00  0.00     0.181 A 
ATOM      2  N9  855 d   1      15.662  66.579   5.254  0.00  0.00    -0.208 NA
ATOM      3  C10 855 d   1      16.474  67.416   5.931  0.00  0.00     0.143 A 
ATOM      4  C18 855 d   1      16.401  67.566   7.336  0.00  0.00     0.039 A 
ATOM      5  C19 855 d   1      17.216  68.435   8.152  0.00  0.00    -0.067 A 
ATOM      6  C20 855 d   1      17.037  68.486   9.557  0.00  0.00    -0.082 A 
ATOM      7  C21 855 d   1      16.050  67.678  10.165  0.00  0.00    -0.081 A 
ATOM      8  C22 855 d   1      15.237  66.821   9.367  0.00  0.00    -0.054 A 
ATOM      9  C23 855 d   1      15.392  66.751   7.965  0.00  0.00     0.073 A 
ATOM     10  N24 855 d   1      14.580  65.915   7.272  0.00  0.00    -0.226 NA
ATOM     11  H11 855 d   1      17.973  69.055   7.685  0.00  0.00     0.085 H 
ATOM     12  H12 855 d   1      17.654  69.141  10.162  0.00  0.00     0.083 H 
ATOM     13  H13 855 d   1      15.911  67.710  11.240  0.00  0.00     0.083 H 
ATOM     14  H14 855 d   1      14.482  66.209   9.847  0.00  0.00     0.087 H 
ENDROOT
BRANCH   1  15
ATOM     15  C6  855 d   1      13.872  64.995   5.122  0.00  0.00     0.104 A 
ATOM     16  C5  855 d   1      14.305  64.371   3.922  0.00  0.00    -0.051 A 
ATOM     17  C4  855 d   1      13.377  63.574   3.204  0.00  0.00    -0.079 A 
ATOM     18  H6  855 d   1      15.320  64.501   3.564  0.00  0.00     0.087 H 
ATOM     19  C3  855 d   1      12.050  63.421   3.683  0.00  0.00    -0.059 A 
ATOM     20  H5  855 d   1      13.682  63.081   2.288  0.00  0.00     0.083 H 
ATOM     21  C2  855 d   1      11.688  64.067   4.880  0.00  0.00     0.031 A 
ATOM     22  H4  855 d   1      11.331  62.820   3.139  0.00  0.00     0.086 H 
ATOM     23  N7  855 d   1      12.574  64.838   5.586  0.00  0.00    -0.250 NA
BRANCH  21  24
ATOM     24  C1  855 d   1      10.302  63.945   5.427  0.00  0.00    -0.035 C 
ATOM     25  H1  855 d   1       9.702  63.303   4.766  0.00  0.00     0.035 H 
ATOM     26  H2  855 d   1       9.842  64.942   5.486  0.00  0.00     0.035 H 
ATOM     27  H3  855 d   1      10.342  63.500   6.432  0.00  0.00     0.035 H 
ENDBRANCH  21  24
ENDBRANCH   1  15
BRANCH   3  28
ATOM     28  N5  855 d   1      17.395  68.128   5.153  0.00  0.00    -0.340 N 
ATOM     29  H15 855 d   1      18.249  68.397   5.662  0.00  0.00     0.167 HD
BRANCH  28  30
ATOM     30  C12 855 d   1      17.378  68.546   3.810  0.00  0.00     0.036 A 
ATOM     31  C17 855 d   1      16.213  68.407   2.978  0.00  0.00    -0.040 A 
ATOM     32  C16 855 d   1      16.275  68.850   1.647  0.00  0.00     0.004 A 
ATOM     33  H7  855 d   1      15.303  67.968   3.372  0.00  0.00     0.089 H 
ATOM     34  N15 855 d   1      17.404  69.414   1.099  0.00  0.00    -0.273 NA
ATOM     35  H8  855 d   1      15.395  68.743   1.024  0.00  0.00     0.114 H 
ATOM     36  C14 855 d   1      18.514  69.538   1.910  0.00  0.00     0.004 A 
ATOM     37  C13 855 d   1      18.540  69.123   3.250  0.00  0.00    -0.040 A 
ATOM     38  H9  855 d   1      19.411  69.978   1.490  0.00  0.00     0.114 H 
ATOM     39  H10 855 d   1      19.437  69.243   3.846  0.00  0.00     0.089 H 
ENDBRANCH  28  30
ENDBRANCH   3  28
TORSDOF 4
