REMARK  5 active torsions:
REMARK  status: ('A' for Active; 'I' for Inactive)
REMARK    1  A    between atoms: N2_2  and  C13_4 
REMARK    2  A    between atoms: C8_9  and  C7_10 
REMARK       I    between atoms: C7_10  and  N1_12 
REMARK    3  A    between atoms: N1_12  and  C6_13 
REMARK    4  A    between atoms: C14_14  and  C15_15 
REMARK       I    between atoms: C15_15  and  N3_16 
REMARK    5  A    between atoms: C3_21  and  C1_22 
ROOT
ATOM      1  C6  HBT d   1     -12.829 -28.654  -6.528  0.00  0.00     0.093 A 
ATOM      2  C14 HBT d   1     -13.027 -28.870  -7.914  0.00  0.00     0.073 A 
ATOM      3  S1  HBT d   1     -11.463 -29.454  -5.912  0.00  0.00    -0.075 SA
ATOM      4  C5  HBT d   1     -11.159 -30.125  -7.424  0.00  0.00    -0.008 A 
ATOM      5  C4  HBT d   1      -9.955 -31.029  -7.587  0.00  0.00    -0.031 C 
ATOM      6  C3  HBT d   1      -9.563 -31.231  -9.079  0.00  0.00    -0.053 C 
ATOM      7  C2  HBT d   1     -10.803 -31.336  -9.988  0.00  0.00    -0.058 C 
ATOM      8  C17 HBT d   1     -11.852 -30.213  -9.836  0.00  0.00    -0.039 C 
ATOM      9  C16 HBT d   1     -12.025 -29.748  -8.396  0.00  0.00    -0.026 A 
ATOM     10  H8  HBT d   1     -10.188 -32.010  -7.147  0.00  0.00     0.041 H 
ATOM     11  H9  HBT d   1      -9.102 -30.581  -7.055  0.00  0.00     0.041 H 
ATOM     12  H10 HBT d   1      -8.974 -30.361  -9.406  0.00  0.00     0.040 H 
ATOM     13  H14 HBT d   1     -11.300 -32.292  -9.770  0.00  0.00     0.034 H 
ATOM     14  H15 HBT d   1     -10.456 -31.333 -11.032  0.00  0.00     0.034 H 
ATOM     15  H16 HBT d   1     -12.820 -30.586 -10.202  0.00  0.00     0.040 H 
ATOM     16  H17 HBT d   1     -11.536 -29.354 -10.446  0.00  0.00     0.040 H 
ENDROOT
BRANCH   1  17
ATOM     17  N1  HBT d   1     -13.674 -27.879  -5.722  0.00  0.00    -0.316 N 
ATOM     18  C7  HBT d   1     -13.405 -27.454  -4.458  0.00  0.00     0.259 C 
ATOM     19  O1  HBT d   1     -12.346 -27.690  -3.901  0.00  0.00    -0.267 OA
ATOM     20  H5  HBT d   1     -14.556 -27.614  -6.112  0.00  0.00     0.169 HD
BRANCH  18  21
ATOM     21  C8  HBT d   1     -14.469 -26.713  -3.747  0.00  0.00     0.065 A 
ATOM     22  C13 HBT d   1     -14.226 -25.579  -3.008  0.00  0.00     0.118 A 
ATOM     23  C12 HBT d   1     -15.207 -24.873  -2.315  0.00  0.00    -0.050 A 
ATOM     24  C11 HBT d   1     -16.496 -25.338  -2.346  0.00  0.00    -0.081 A 
ATOM     25  H1  HBT d   1     -14.956 -23.975  -1.763  0.00  0.00     0.087 H 
ATOM     26  C10 HBT d   1     -16.792 -26.497  -3.060  0.00  0.00    -0.082 A 
ATOM     27  H2  HBT d   1     -17.280 -24.807  -1.818  0.00  0.00     0.083 H 
ATOM     28  C9  HBT d   1     -15.790 -27.181  -3.754  0.00  0.00    -0.065 A 
ATOM     29  H3  HBT d   1     -17.809 -26.872  -3.078  0.00  0.00     0.083 H 
ATOM     30  H4  HBT d   1     -16.037 -28.082  -4.303  0.00  0.00     0.085 H 
BRANCH  22  31
ATOM     31  N2  HBT d   1     -12.896 -24.986  -2.970  0.00  0.00    -0.115 N 
ATOM     32  O2  HBT d   1     -12.745 -24.194  -2.067  0.00  0.00    -0.532 OA
ATOM     33  O3  HBT d   1     -12.097 -25.235  -3.846  0.00  0.00    -0.532 OA
ENDBRANCH  22  31
ENDBRANCH  18  21
ENDBRANCH   1  17
BRANCH   2  34
ATOM     34  C15 HBT d   1     -14.097 -28.281  -8.644  0.00  0.00     0.252 C 
ATOM     35  N3  HBT d   1     -13.961 -28.021  -9.949  0.00  0.00    -0.366 N 
ATOM     36  H6  HBT d   1     -14.716 -27.607 -10.458  0.00  0.00     0.159 HD
ATOM     37  H7  HBT d   1     -13.104 -28.241 -10.416  0.00  0.00     0.159 HD
ATOM     38  O4  HBT d   1     -15.143 -27.979  -8.101  0.00  0.00    -0.268 OA
ENDBRANCH   2  34
BRANCH   6  39
ATOM     39  C1  HBT d   1      -8.683 -32.494  -9.193  0.00  0.00    -0.073 C 
ATOM     40  H11 HBT d   1      -8.398 -32.649 -10.244  0.00  0.00     0.028 H 
ATOM     41  H12 HBT d   1      -9.247 -33.367  -8.833  0.00  0.00     0.028 H 
ATOM     42  H13 HBT d   1      -7.777 -32.366  -8.583  0.00  0.00     0.028 H 
ENDBRANCH   6  39
TORSDOF 5
