REMARK  10 active torsions:
REMARK  status: ('A' for Active; 'I' for Inactive)
REMARK    1  A    between atoms: O1_1  and  C16_2 
REMARK    2  A    between atoms: C16_2  and  C17_3 
REMARK    3  A    between atoms: C16_2  and  C15_13 
REMARK    4  A    between atoms: C17_3  and  O2_4 
REMARK    5  A    between atoms: O2_4  and  C18_5 
REMARK    6  A    between atoms: C15_13  and  N3_14 
REMARK    7  A    between atoms: C14_15  and  N4_16 
REMARK    8  A    between atoms: N2_23  and  C7_24 
REMARK    9  A    between atoms: C7_24  and  C6_25 
REMARK   10  A    between atoms: C6_25  and  N1_26 
ROOT
ATOM      1  N3  768 d   1      -2.877   6.922  28.011  0.00  0.00    -0.179 N 
ATOM      2  C14 768 d   1      -3.478   7.802  27.295  0.00  0.00     0.681 A 
ATOM      3  C13 768 d   1      -2.185   7.606  28.907  0.00  0.00     0.079 A 
ATOM      4  C12 768 d   1      -1.335   7.215  29.924  0.00  0.00    -0.054 A 
ATOM      5  C11 768 d   1      -0.691   8.175  30.695  0.00  0.00    -0.081 A 
ATOM      6  C10 768 d   1      -0.890   9.540  30.446  0.00  0.00    -0.081 A 
ATOM      7  C9  768 d   1      -1.736   9.985  29.426  0.00  0.00    -0.054 A 
ATOM      8  C8  768 d   1      -2.393   9.052  28.632  0.00  0.00     0.079 A 
ATOM      9  N2  768 d   1      -3.255   9.105  27.622  0.00  0.00    -0.180 N 
ATOM     10  H   768 d   1      -1.170   6.156  30.121  0.00  0.00     0.087 H 
ATOM     11  H   768 d   1      -0.025   7.864  31.500  0.00  0.00     0.083 H 
ATOM     12  H   768 d   1      -0.372  10.273  31.064  0.00  0.00     0.083 H 
ATOM     13  H   768 d   1      -1.879  11.052  29.255  0.00  0.00     0.087 H 
ENDROOT
BRANCH   1  14
ATOM     14  C15 768 d   1      -2.974   5.461  27.960  0.00  0.00     0.043 C 
ATOM     15  H   768 d   1      -3.323   5.107  26.990  0.00  0.00     0.069 H 
ATOM     16  H   768 d   1      -2.004   4.981  28.089  0.00  0.00     0.069 H 
BRANCH  14  17
ATOM     17  C16 768 d   1      -3.949   5.106  29.089  0.00  0.00     0.073 C 
ATOM     18  H   768 d   1      -3.737   5.703  29.976  0.00  0.00     0.088 H 
BRANCH  17  19
ATOM     19  O1  768 d   1      -5.235   5.334  28.512  0.00  0.00    -0.392 OA
ATOM     20  H   768 d   1      -5.293   6.244  28.212  0.00  0.00     0.210 HD
ENDBRANCH  17  19
BRANCH  17  21
ATOM     21  C17 768 d   1      -3.845   3.651  29.573  0.00  0.00     0.051 C 
ATOM     22  H   768 d   1      -4.492   3.041  28.943  0.00  0.00     0.079 H 
ATOM     23  H   768 d   1      -4.136   3.626  30.623  0.00  0.00     0.079 H 
BRANCH  21  24
ATOM     24  O2  768 d   1      -2.518   3.131  29.473  0.00  0.00    -0.347 OA
BRANCH  24  25
ATOM     25  C18 768 d   1      -1.811   2.544  30.499  0.00  0.00     0.090 A 
ATOM     26  C19 768 d   1      -2.126   1.264  30.949  0.00  0.00    -0.048 A 
ATOM     27  C20 768 d   1      -1.366   0.683  31.969  0.00  0.00    -0.059 A 
ATOM     28  H   768 d   1      -2.960   0.718  30.509  0.00  0.00     0.087 H 
ATOM     29  C21 768 d   1      -0.275   1.372  32.529  0.00  0.00     0.035 A 
ATOM     30  H   768 d   1      -1.621  -0.312  32.333  0.00  0.00     0.086 H 
ATOM     31 CL1  768 d   1       0.547   0.777  33.638  0.00  0.00    -0.084 Cl
ATOM     32  C22 768 d   1       0.091   2.651  32.100  0.00  0.00    -0.038 A 
ATOM     33  C23 768 d   1      -0.621   3.243  31.087  0.00  0.00     0.069 A 
ATOM     34  H   768 d   1       0.930   3.171  32.563  0.00  0.00     0.088 H 
ATOM     35 CL2  768 d   1      -0.209   4.610  30.666  0.00  0.00    -0.081 Cl
ENDBRANCH  24  25
ENDBRANCH  21  24
ENDBRANCH  17  21
ENDBRANCH  14  17
ENDBRANCH   1  14
BRANCH   2  36
ATOM     36  N4  768 d   1      -4.308   7.354  26.314  0.00  0.00    -0.234 N 
ATOM     37  H   768 d   1      -4.832   8.020  25.746  0.00  0.00     0.174 HD
ATOM     38  H   768 d   1      -4.406   6.353  26.147  0.00  0.00     0.174 HD
ENDBRANCH   2  36
BRANCH   9  39
ATOM     39  C7  768 d   1      -3.754  10.322  27.001  0.00  0.00     0.031 C 
ATOM     40  H   768 d   1      -2.891  10.854  26.599  0.00  0.00     0.068 H 
ATOM     41  H   768 d   1      -4.303  10.870  27.766  0.00  0.00     0.068 H 
BRANCH  39  42
ATOM     42  C6  768 d   1      -4.713  10.088  25.844  0.00  0.00     0.006 C 
ATOM     43  H   768 d   1      -4.508   9.135  25.357  0.00  0.00     0.066 H 
ATOM     44  H   768 d   1      -4.599  10.861  25.084  0.00  0.00     0.066 H 
BRANCH  42  45
ATOM     45  N1  768 d   1      -6.050  10.105  26.399  0.00  0.00    -0.411 N 
ATOM     46  C5  768 d   1      -6.396   9.302  27.564  0.00  0.00    -0.010 C 
ATOM     47  C4  768 d   1      -6.398  10.375  28.651  0.00  0.00    -0.050 C 
ATOM     48  H   768 d   1      -5.712   8.476  27.755  0.00  0.00     0.063 H 
ATOM     49  H   768 d   1      -7.338   8.762  27.469  0.00  0.00     0.063 H 
ATOM     50  C3  768 d   1      -7.294  11.567  28.296  0.00  0.00    -0.062 C 
ATOM     51  H   768 d   1      -5.378  10.742  28.763  0.00  0.00     0.035 H 
ATOM     52  H   768 d   1      -6.782   9.926  29.567  0.00  0.00     0.035 H 
ATOM     53  C2  768 d   1      -7.175  12.072  26.841  0.00  0.00    -0.050 C 
ATOM     54  H   768 d   1      -6.986  12.392  28.939  0.00  0.00     0.033 H 
ATOM     55  H   768 d   1      -8.323  11.234  28.427  0.00  0.00     0.033 H 
ATOM     56  C1  768 d   1      -7.119  10.931  25.827  0.00  0.00    -0.010 C 
ATOM     57  H   768 d   1      -6.249  12.641  26.758  0.00  0.00     0.035 H 
ATOM     58  H   768 d   1      -8.057  12.674  26.621  0.00  0.00     0.035 H 
ATOM     59  H   768 d   1      -8.065  10.405  25.701  0.00  0.00     0.063 H 
ATOM     60  H   768 d   1      -6.927  11.257  24.805  0.00  0.00     0.063 H 
ENDBRANCH  42  45
ENDBRANCH  39  42
ENDBRANCH   9  39
TORSDOF 10
