REMARK  5 active torsions:
REMARK  status: ('A' for Active; 'I' for Inactive)
REMARK    1  A    between atoms: C10_7  and  N9_8 
REMARK       I    between atoms: N9_8  and  C7_9 
REMARK    2  A    between atoms: C7_9  and  C2_11 
REMARK    3  A    between atoms: C3_12  and  N17_17 
REMARK    4  A    between atoms: N17_17  and  C18_18 
REMARK    5  A    between atoms: C18_18  and  C19_19 
ROOT
ATOM      1  C2  8ST d   1       5.774  17.904  34.514  0.00  0.00     0.058 A 
ATOM      2  C3  8ST d   1       5.418  16.566  34.725  0.00  0.00     0.044 A 
ATOM      3  C4  8ST d   1       5.323  15.994  36.029  0.00  0.00    -0.057 A 
ATOM      4  C5  8ST d   1       5.634  16.819  37.168  0.00  0.00    -0.081 A 
ATOM      5  C6  8ST d   1       5.939  18.223  36.984  0.00  0.00    -0.082 A 
ATOM      6  C1  8ST d   1       5.989  18.769  35.684  0.00  0.00    -0.066 A 
ATOM      7  H6  8ST d   1       5.023  14.960  36.160  0.00  0.00     0.086 H 
ATOM      8  H7  8ST d   1       5.640  16.389  38.163  0.00  0.00     0.083 H 
ATOM      9  H8  8ST d   1       6.129  18.854  37.845  0.00  0.00     0.083 H 
ATOM     10  H9  8ST d   1       6.186  19.826  35.547  0.00  0.00     0.085 H 
ENDROOT
BRANCH   1  11
ATOM     11  C7  8ST d   1       5.650  18.614  33.160  0.00  0.00     0.258 C 
ATOM     12  N9  8ST d   1       6.191  19.947  33.176  0.00  0.00    -0.323 N 
ATOM     13  H5  8ST d   1       6.607  20.317  34.007  0.00  0.00     0.169 HD
ATOM     14  O8  8ST d   1       5.161  18.174  32.177  0.00  0.00    -0.267 OA
BRANCH  12  15
ATOM     15  C10 8ST d   1       6.124  20.731  31.990  0.00  0.00     0.035 C 
ATOM     16  C11 8ST d   1       7.276  21.526  31.603  0.00  0.00    -0.056 C 
ATOM     17  C12 8ST d   1       7.132  22.427  30.491  0.00  0.00    -0.060 C 
ATOM     18  H2  8ST d   1       8.216  21.443  32.136  0.00  0.00     0.087 H 
ATOM     19  C13 8ST d   1       5.857  22.535  29.948  0.00  0.00     0.034 C 
ATOM     20  H1  8ST d   1       7.971  22.990  30.098  0.00  0.00     0.086 H 
ATOM     21 CL16 8ST d   1       5.595  23.556  28.545  0.00  0.00    -0.084 Cl
ATOM     22  C14 8ST d   1       4.644  21.801  30.444  0.00  0.00    -0.060 C 
ATOM     23  C15 8ST d   1       4.800  20.979  31.549  0.00  0.00    -0.056 C 
ATOM     24  H3  8ST d   1       3.682  21.910  29.956  0.00  0.00     0.086 H 
ATOM     25  H4  8ST d   1       3.945  20.544  32.055  0.00  0.00     0.087 H 
ENDBRANCH  12  15
ENDBRANCH   1  11
BRANCH   2  26
ATOM     26  N17 8ST d   1       5.038  15.659  33.708  0.00  0.00    -0.385 N 
ATOM     27  H10 8ST d   1       5.077  16.186  32.824  0.00  0.00     0.160 HD
BRANCH  26  28
ATOM     28  C18 8ST d   1       4.618  14.317  33.360  0.00  0.00     0.017 C 
ATOM     29  H11 8ST d   1       5.355  13.601  33.753  0.00  0.00     0.071 H 
ATOM     30  H12 8ST d   1       4.573  14.232  32.264  0.00  0.00     0.071 H 
BRANCH  28  31
ATOM     31  C19 8ST d   1       3.240  13.976  33.939  0.00  0.00    -0.038 C 
ATOM     32  C24 8ST d   1       2.825  12.696  33.988  0.00  0.00    -0.058 C 
ATOM     33  C23 8ST d   1       1.491  12.434  34.418  0.00  0.00     0.002 C 
ATOM     34  H13 8ST d   1       3.488  11.886  33.708  0.00  0.00     0.086 H 
ATOM     35  N22 8ST d   1       0.546  13.492  34.496  0.00  0.00    -0.273 NA
ATOM     36  H14 8ST d   1       1.197  11.425  34.686  0.00  0.00     0.114 H 
ATOM     37  C21 8ST d   1       0.973  14.824  34.380  0.00  0.00     0.002 C 
ATOM     38  C20 8ST d   1       2.269  15.070  33.983  0.00  0.00    -0.058 C 
ATOM     39  H15 8ST d   1       0.297  15.643  34.598  0.00  0.00     0.114 H 
ATOM     40  H16 8ST d   1       2.569  16.073  33.703  0.00  0.00     0.086 H 
ENDBRANCH  28  31
ENDBRANCH  26  28
ENDBRANCH   2  26
TORSDOF 5
