REMARK  10 active torsions:
REMARK  status: ('A' for Active; 'I' for Inactive)
REMARK    1  A    between atoms: C25_30  and  O30_4 
REMARK    2  A    between atoms: C23_28  and  O31_5 
REMARK       I    between atoms: N28_8  and  C1_9 
REMARK    3  A    between atoms: C24_29  and  N28_8 
REMARK    4  A    between atoms: C1_9  and  C2_10 
REMARK    5  A    between atoms: C2_10  and  C3_11 
REMARK    6  A    between atoms: C3_11  and  C4_12 
REMARK    7  A    between atoms: C4_12  and  C18_25 
REMARK    8  A    between atoms: C9_17  and  C10_18 
REMARK    9  A    between atoms: C15_23  and  C17_24 
REMARK   10  A    between atoms: C22_27  and  C21_26 
ROOT
ATOM      1  O16 PMN d   1      62.386  34.577   5.618  0.00  0.00    -0.374 OA
ATOM      2  O19 PMN d   1      60.137  31.527   0.693  0.00  0.00    -0.292 OA
ATOM      3  C4  PMN d   1      60.241  32.663   3.011  0.00  0.00     0.028 C 
ATOM      4  C5  PMN d   1      60.569  32.431   1.468  0.00  0.00     0.157 C 
ATOM      5  C6  PMN d   1      61.481  33.383   0.904  0.00  0.00    -0.041 C 
ATOM      6  C7  PMN d   1      62.035  34.410   1.503  0.00  0.00    -0.091 C 
ATOM      7  C8  PMN d   1      61.806  34.861   2.850  0.00  0.00    -0.012 C 
ATOM      8  C9  PMN d   1      61.319  33.625   3.677  0.00  0.00    -0.004 C 
ATOM      9  C10 PMN d   1      61.093  34.094   5.112  0.00  0.00     0.045 C 
ATOM     10  C11 PMN d   1      60.282  35.426   5.091  0.00  0.00    -0.034 C 
ATOM     11  C12 PMN d   1      61.230  36.441   4.421  0.00  0.00    -0.021 C 
ATOM     12  C13 PMN d   1      60.898  36.104   2.944  0.00  0.00    -0.048 C 
ATOM     13  C14 PMN d   1      63.091  35.426   3.493  0.00  0.00    -0.025 C 
ATOM     14  C15 PMN d   1      62.619  35.845   4.864  0.00  0.00     0.062 C 
ATOM     15  H   PMN d   1      61.744  33.236  -0.143  0.00  0.00     0.088 H 
ATOM     16  H   PMN d   1      62.749  34.986   0.914  0.00  0.00     0.078 H 
ATOM     17  H   PMN d   1      62.106  32.871   3.688  0.00  0.00     0.047 H 
ATOM     18  H   PMN d   1      60.625  33.286   5.674  0.00  0.00     0.084 H 
ATOM     19  H   PMN d   1      59.986  35.741   6.091  0.00  0.00     0.037 H 
ATOM     20  H   PMN d   1      59.342  35.325   4.549  0.00  0.00     0.037 H 
ATOM     21  H   PMN d   1      61.185  37.511   4.623  0.00  0.00     0.044 H 
ATOM     22  H   PMN d   1      59.845  35.957   2.703  0.00  0.00     0.035 H 
ATOM     23  H   PMN d   1      61.076  36.893   2.213  0.00  0.00     0.035 H 
ATOM     24  H   PMN d   1      63.526  36.247   2.924  0.00  0.00     0.039 H 
ATOM     25  H   PMN d   1      63.904  34.701   3.526  0.00  0.00     0.039 H 
ENDROOT
BRANCH   3  26
ATOM     26  C3  PMN d   1      60.403  31.396   3.938  0.00  0.00    -0.043 C 
ATOM     27  H   PMN d   1      60.456  31.772   4.960  0.00  0.00     0.035 H 
ATOM     28  H   PMN d   1      59.562  30.742   3.708  0.00  0.00     0.035 H 
BRANCH  26  29
ATOM     29  C2  PMN d   1      61.610  30.596   3.734  0.00  0.00     0.011 C 
ATOM     30  H   PMN d   1      61.836  30.426   2.681  0.00  0.00     0.047 H 
ATOM     31  H   PMN d   1      62.514  31.088   4.094  0.00  0.00     0.047 H 
BRANCH  29  32
ATOM     32  C1  PMN d   1      61.291  29.319   4.486  0.00  0.00     0.222 C 
ATOM     33  O20 PMN d   1      60.840  28.314   3.982  0.00  0.00    -0.273 OA
ATOM     34  N28 PMN d   1      61.497  29.253   5.758  0.00  0.00    -0.323 N 
ATOM     35  H   PMN d   1      61.883  30.116   6.141  0.00  0.00     0.169 HD
BRANCH  34  36
ATOM     36  C24 PMN d   1      61.305  28.239   6.756  0.00  0.00     0.102 A 
ATOM     37  C23 PMN d   1      59.952  28.019   7.121  0.00  0.00     0.112 A 
ATOM     38  C22 PMN d   1      59.675  27.076   8.095  0.00  0.00     0.076 A 
ATOM     39  C27 PMN d   1      60.679  26.357   8.686  0.00  0.00    -0.061 A 
ATOM     40  C26 PMN d   1      61.961  26.568   8.328  0.00  0.00    -0.048 A 
ATOM     41  H   PMN d   1      60.441  25.613   9.447  0.00  0.00     0.085 H 
ATOM     42  C25 PMN d   1      62.320  27.499   7.378  0.00  0.00     0.095 A 
ATOM     43  H   PMN d   1      62.743  25.980   8.808  0.00  0.00     0.087 H 
BRANCH  37  44
ATOM     44  O31 PMN d   1      59.009  28.764   6.486  0.00  0.00    -0.357 OA
ATOM     45  H   PMN d   1      58.400  28.182   6.026  0.00  0.00     0.217 HD
ENDBRANCH  37  44
BRANCH  38  46
ATOM     46  C21 PMN d   1      58.315  26.810   8.549  0.00  0.00     0.212 C 
ATOM     47  O32 PMN d   1      57.372  27.426   7.998  0.00  0.00    -0.644 OA
ATOM     48  O33 PMN d   1      58.381  25.964   9.569  0.00  0.00    -0.644 OA
ENDBRANCH  38  46
BRANCH  42  49
ATOM     49  O30 PMN d   1      63.644  27.649   7.092  0.00  0.00    -0.358 OA
ATOM     50  H   PMN d   1      64.157  27.045   7.633  0.00  0.00     0.217 HD
ENDBRANCH  42  49
ENDBRANCH  34  36
ENDBRANCH  29  32
ENDBRANCH  26  29
ENDBRANCH   3  26
BRANCH   3  51
ATOM     51  C18 PMN d   1      58.753  33.220   2.896  0.00  0.00    -0.062 C 
ATOM     52  H   PMN d   1      58.107  32.444   2.485  0.00  0.00     0.029 H 
ATOM     53  H   PMN d   1      58.396  33.506   3.885  0.00  0.00     0.029 H 
ATOM     54  H   PMN d   1      58.742  34.090   2.239  0.00  0.00     0.029 H 
ENDBRANCH   3  51
BRANCH  14  55
ATOM     55  C17 PMN d   1      63.529  36.624   5.823  0.00  0.00    -0.047 C 
ATOM     56  H   PMN d   1      63.789  37.584   5.376  0.00  0.00     0.031 H 
ATOM     57  H   PMN d   1      63.005  36.790   6.764  0.00  0.00     0.031 H 
ATOM     58  H   PMN d   1      64.437  36.050   6.007  0.00  0.00     0.031 H 
ENDBRANCH  14  55
TORSDOF 10
