REMARK  6 active torsions:
REMARK  status: ('A' for Active; 'I' for Inactive)
REMARK       I    between atoms: N28_4  and  C11_5 
REMARK    1  A    between atoms: C24_28  and  N28_4 
REMARK    2  A    between atoms: C11_5  and  C2_6 
REMARK    3  A    between atoms: C2_6  and  C3_7 
REMARK    4  A    between atoms: C3_7  and  C4_8 
REMARK    5  A    between atoms: C4_8  and  C18_18 
REMARK    6  A    between atoms: C22_26  and  C21_25 
ROOT
ATOM      1  C1  N32 d   1      62.273  36.148  44.614  0.00  0.00    -0.033 C 
ATOM      2  O19 N32 d   1      57.930  36.857  48.235  0.00  0.00    -0.292 OA
ATOM      3  C4  N32 d   1      59.237  36.533  46.281  0.00  0.00     0.026 C 
ATOM      4  C5  N32 d   1      59.026  36.660  47.771  0.00  0.00     0.157 C 
ATOM      5  C6  N32 d   1      60.224  36.544  48.660  0.00  0.00    -0.041 C 
ATOM      6  C7  N32 d   1      61.480  36.430  48.173  0.00  0.00    -0.090 C 
ATOM      7  C8  N32 d   1      61.746  36.566  46.701  0.00  0.00    -0.014 C 
ATOM      8  C9  N32 d   1      60.578  36.146  45.724  0.00  0.00    -0.029 C 
ATOM      9  C10 N32 d   1      60.872  36.344  44.226  0.00  0.00    -0.053 C 
ATOM     10  C14 N32 d   1      63.015  37.445  46.245  0.00  0.00    -0.034 C 
ATOM     11  C15 N32 d   1      63.147  37.253  44.785  0.00  0.00    -0.084 C 
ATOM     12  C17 N32 d   1      63.415  38.213  43.906  0.00  0.00    -0.119 C 
ATOM     13  C28 N32 d   1      62.461  35.104  46.582  0.00  0.00    -0.054 C 
ATOM     14  C29 N32 d   1      62.825  34.835  45.056  0.00  0.00    -0.057 C 
ATOM     15  H1  N32 d   1      62.575  35.987  43.569  0.00  0.00     0.046 H 
ATOM     16  H7  N32 d   1      60.079  36.552  49.739  0.00  0.00     0.088 H 
ATOM     17  H8  N32 d   1      62.307  36.238  48.855  0.00  0.00     0.078 H 
ATOM     18  H9  N32 d   1      60.561  35.049  45.805  0.00  0.00     0.043 H 
ATOM     19  H10 N32 d   1      60.457  35.573  43.560  0.00  0.00     0.034 H 
ATOM     20  H11 N32 d   1      60.630  37.341  43.828  0.00  0.00     0.034 H 
ATOM     21  H12 N32 d   1      63.924  37.098  46.759  0.00  0.00     0.041 H 
ATOM     22  H13 N32 d   1      62.846  38.507  46.476  0.00  0.00     0.041 H 
ATOM     23  H14 N32 d   1      63.493  37.975  42.846  0.00  0.00     0.067 H 
ATOM     24  H15 N32 d   1      63.556  39.238  44.245  0.00  0.00     0.067 H 
ATOM     25  H19 N32 d   1      61.772  34.325  46.941  0.00  0.00     0.034 H 
ATOM     26  H20 N32 d   1      63.378  35.090  47.189  0.00  0.00     0.034 H 
ATOM     27  H21 N32 d   1      63.905  34.731  44.876  0.00  0.00     0.034 H 
ATOM     28  H22 N32 d   1      62.297  33.971  44.626  0.00  0.00     0.034 H 
ENDROOT
BRANCH   3  29
ATOM     29  C3  N32 d   1      58.099  36.843  45.316  0.00  0.00    -0.043 C 
ATOM     30  H5  N32 d   1      58.229  36.277  44.382  0.00  0.00     0.035 H 
ATOM     31  H6  N32 d   1      57.133  36.581  45.772  0.00  0.00     0.035 H 
BRANCH  29  32
ATOM     32  C2  N32 d   1      58.159  38.333  45.037  0.00  0.00     0.010 C 
ATOM     33  H3  N32 d   1      58.172  38.890  45.985  0.00  0.00     0.047 H 
ATOM     34  H4  N32 d   1      59.066  38.569  44.461  0.00  0.00     0.047 H 
BRANCH  32  35
ATOM     35  C11 N32 d   1      56.958  38.700  44.256  0.00  0.00     0.218 C 
ATOM     36  O20 N32 d   1      55.859  38.547  44.799  0.00  0.00    -0.274 OA
ATOM     37  N28 N32 d   1      57.136  39.177  43.056  0.00  0.00    -0.343 N 
ATOM     38  H2  N32 d   1      58.057  39.472  42.803  0.00  0.00     0.163 HD
BRANCH  37  39
ATOM     39  C24 N32 d   1      56.097  39.307  42.073  0.00  0.00     0.132 A 
ATOM     40  C23 N32 d   1      55.184  38.344  41.673  0.00  0.00     0.196 A 
ATOM     41  O31 N32 d   1      55.225  37.178  42.182  0.00  0.00    -0.289 OA
ATOM     42  C22 N32 d   1      54.223  38.620  40.679  0.00  0.00     0.085 A 
ATOM     43  C27 N32 d   1      54.168  39.899  40.118  0.00  0.00    -0.076 A 
ATOM     44  C26 N32 d   1      55.085  40.887  40.512  0.00  0.00     0.009 A 
ATOM     45  H26 N32 d   1      53.410  40.131  39.371  0.00  0.00     0.079 H 
ATOM     46  C25 N32 d   1      56.057  40.569  41.484  0.00  0.00     0.160 A 
ATOM     47  H24 N32 d   1      55.625  41.205  39.608  0.00  0.00     0.050 H 
ATOM     48  H25 N32 d   1      54.500  41.731  40.905  0.00  0.00     0.050 H 
ATOM     49  O30 N32 d   1      56.912  41.441  41.799  0.00  0.00    -0.295 OA
ATOM     50  H23 N32 d   1      55.392  39.615  42.859  0.00  0.00     0.097 H 
BRANCH  42  51
ATOM     51  C21 N32 d   1      53.273  37.680  40.175  0.00  0.00     0.212 C 
ATOM     52  O32 N32 d   1      53.386  36.449  40.437  0.00  0.00    -0.644 OA
ATOM     53  O33 N32 d   1      52.366  38.059  39.355  0.00  0.00    -0.644 OA
ENDBRANCH  42  51
ENDBRANCH  37  39
ENDBRANCH  32  35
ENDBRANCH  29  32
ENDBRANCH   3  29
BRANCH   3  54
ATOM     54  C18 N32 d   1      58.822  35.058  46.396  0.00  0.00    -0.062 C 
ATOM     55  H16 N32 d   1      57.803  34.995  46.806  0.00  0.00     0.029 H 
ATOM     56  H17 N32 d   1      59.520  34.532  47.064  0.00  0.00     0.029 H 
ATOM     57  H18 N32 d   1      58.846  34.592  45.400  0.00  0.00     0.029 H 
ENDBRANCH   3  54
TORSDOF 6
