REMARK  9 active torsions:
REMARK  status: ('A' for Active; 'I' for Inactive)
REMARK       I    between atoms: N28_4  and  C11_5 
REMARK    1  A    between atoms: C24_28  and  N28_4 
REMARK    2  A    between atoms: C11_5  and  C2_6 
REMARK    3  A    between atoms: C2_6  and  C3_7 
REMARK    4  A    between atoms: C3_7  and  C4_8 
REMARK    5  A    between atoms: C4_8  and  C18_18 
REMARK    6  A    between atoms: C28_19  and  O34_32 
REMARK    7  A    between atoms: C25_29  and  O30_21 
REMARK    8  A    between atoms: C23_27  and  O31_22 
REMARK    9  A    between atoms: C22_26  and  C21_25 
ROOT
ATOM      1  C1  N3A d   1      -0.204  72.312  68.169  0.00  0.00    -0.030 C 
ATOM      2  O19 N3A d   1      -3.270  68.695  72.070  0.00  0.00    -0.292 OA
ATOM      3  C4  N3A d   1      -1.924  69.449  70.253  0.00  0.00     0.026 C 
ATOM      4  C5  N3A d   1      -2.454  69.479  71.701  0.00  0.00     0.157 C 
ATOM      5  C6  N3A d   1      -1.909  70.542  72.647  0.00  0.00    -0.041 C 
ATOM      6  C7  N3A d   1      -1.123  71.571  72.148  0.00  0.00    -0.088 C 
ATOM      7  C8  N3A d   1      -0.720  71.811  70.669  0.00  0.00     0.012 C 
ATOM      8  C9  N3A d   1      -1.633  70.909  69.728  0.00  0.00    -0.026 C 
ATOM      9  C10 N3A d   1      -1.007  70.956  68.300  0.00  0.00    -0.053 C 
ATOM     10  C14 N3A d   1      -1.104  73.325  70.369  0.00  0.00    -0.032 C 
ATOM     11  C15 N3A d   1      -1.028  73.388  68.866  0.00  0.00    -0.084 C 
ATOM     12  C17 N3A d   1      -1.706  74.323  68.210  0.00  0.00    -0.119 C 
ATOM     13  C28 N3A d   1       0.789  71.547  70.384  0.00  0.00     0.047 C 
ATOM     14  C29 N3A d   1       1.141  72.097  68.975  0.00  0.00    -0.033 C 
ATOM     15  H1  N3A d   1      -0.009  72.575  67.119  0.00  0.00     0.047 H 
ATOM     16  H7  N3A d   1      -2.136  70.494  73.711  0.00  0.00     0.088 H 
ATOM     17  H8  N3A d   1      -0.747  72.290  72.875  0.00  0.00     0.078 H 
ATOM     18  H9  N3A d   1      -2.615  71.402  69.669  0.00  0.00     0.043 H 
ATOM     19  H10 N3A d   1      -0.326  70.103  68.162  0.00  0.00     0.034 H 
ATOM     20  H11 N3A d   1      -1.802  70.917  67.541  0.00  0.00     0.034 H 
ATOM     21  H12 N3A d   1      -0.386  74.017  70.833  0.00  0.00     0.041 H 
ATOM     22  H13 N3A d   1      -2.119  73.556  70.726  0.00  0.00     0.041 H 
ATOM     23  H14 N3A d   1      -1.654  74.372  67.123  0.00  0.00     0.067 H 
ATOM     24  H15 N3A d   1      -2.314  75.041  68.759  0.00  0.00     0.067 H 
ATOM     25  H19 N3A d   1       1.006  70.469  70.416  0.00  0.00     0.084 H 
ATOM     26  H20 N3A d   1       1.672  73.055  69.073  0.00  0.00     0.037 H 
ATOM     27  H21 N3A d   1       1.780  71.376  68.444  0.00  0.00     0.037 H 
ENDROOT
BRANCH   3  28
ATOM     28  C3  N3A d   1      -2.934  68.746  69.249  0.00  0.00    -0.043 C 
ATOM     29  H5  N3A d   1      -2.482  68.724  68.246  0.00  0.00     0.035 H 
ATOM     30  H6  N3A d   1      -3.118  67.717  69.591  0.00  0.00     0.035 H 
BRANCH  28  31
ATOM     31  C2  N3A d   1      -4.305  69.509  69.173  0.00  0.00     0.011 C 
ATOM     32  H3  N3A d   1      -4.746  69.608  70.176  0.00  0.00     0.047 H 
ATOM     33  H4  N3A d   1      -4.165  70.508  68.734  0.00  0.00     0.047 H 
BRANCH  31  34
ATOM     34  C11 N3A d   1      -5.245  68.610  68.234  0.00  0.00     0.222 C 
ATOM     35  O20 N3A d   1      -5.748  67.647  68.726  0.00  0.00    -0.273 OA
ATOM     36  N28 N3A d   1      -5.383  69.032  66.989  0.00  0.00    -0.323 N 
ATOM     37  H2  N3A d   1      -4.917  69.873  66.715  0.00  0.00     0.169 HD
BRANCH  36  38
ATOM     38  C24 N3A d   1      -6.204  68.308  65.974  0.00  0.00     0.102 A 
ATOM     39  C23 N3A d   1      -5.775  67.059  65.588  0.00  0.00     0.112 A 
ATOM     40  C22 N3A d   1      -6.567  66.365  64.561  0.00  0.00     0.076 A 
ATOM     41  C27 N3A d   1      -7.710  66.997  64.060  0.00  0.00    -0.061 A 
ATOM     42  C26 N3A d   1      -8.145  68.271  64.451  0.00  0.00    -0.048 A 
ATOM     43  H25 N3A d   1      -8.298  66.466  63.320  0.00  0.00     0.085 H 
ATOM     44  C25 N3A d   1      -7.330  68.934  65.439  0.00  0.00     0.095 A 
ATOM     45  H24 N3A d   1      -9.037  68.728  64.037  0.00  0.00     0.087 H 
BRANCH  39  46
ATOM     46  O31 N3A d   1      -4.641  66.480  66.157  0.00  0.00    -0.357 OA
ATOM     47  H23 N3A d   1      -4.002  66.303  65.477  0.00  0.00     0.217 HD
ENDBRANCH  39  46
BRANCH  40  48
ATOM     48  C21 N3A d   1      -6.153  65.060  64.121  0.00  0.00     0.212 C 
ATOM     49  O32 N3A d   1      -5.106  64.558  64.556  0.00  0.00    -0.644 OA
ATOM     50  O33 N3A d   1      -6.842  64.474  63.269  0.00  0.00    -0.644 OA
ENDBRANCH  40  48
BRANCH  44  51
ATOM     51  O30 N3A d   1      -7.606  70.177  65.868  0.00  0.00    -0.358 OA
ATOM     52  H22 N3A d   1      -8.390  70.494  65.434  0.00  0.00     0.217 HD
ENDBRANCH  44  51
ENDBRANCH  36  38
ENDBRANCH  31  34
ENDBRANCH  28  31
ENDBRANCH   3  28
BRANCH   3  53
ATOM     53  C18 N3A d   1      -0.687  68.505  70.305  0.00  0.00    -0.062 C 
ATOM     54  H16 N3A d   1      -0.994  67.518  70.682  0.00  0.00     0.029 H 
ATOM     55  H17 N3A d   1       0.073  68.933  70.975  0.00  0.00     0.029 H 
ATOM     56  H18 N3A d   1      -0.266  68.396  69.295  0.00  0.00     0.029 H 
ENDBRANCH   3  53
BRANCH  13  57
ATOM     57  O34 N3A d   1       1.508  72.224  71.440  0.00  0.00    -0.394 OA
ATOM     58  H26 N3A d   1       1.293  73.149  71.425  0.00  0.00     0.210 HD
ENDBRANCH  13  57
TORSDOF 9
