REMARK  5 active torsions:
REMARK  status: ('A' for Active; 'I' for Inactive)
REMARK    1  A    between atoms: C5_5  and  C7_7 
REMARK    2  A    between atoms: C7_7  and  N8_8 
REMARK    3  A    between atoms: C11_11  and  O15_15 
REMARK    4  A    between atoms: O15_15  and  C16_16 
REMARK    5  A    between atoms: C16_16  and  C17_17 
ROOT
ATOM      1  N8  P36 d   1      33.683  38.785  23.480  0.00  0.00    -0.319 N 
ATOM      2  C9  P36 d   1      34.071  39.834  22.680  0.00  0.00     0.268 A 
ATOM      3  C10 P36 d   1      34.789  39.475  21.449  0.00  0.00     0.112 A 
ATOM      4  C11 P36 d   1      35.046  38.188  21.171  0.00  0.00     0.093 A 
ATOM      5  C12 P36 d   1      34.624  37.131  22.056  0.00  0.00    -0.034 A 
ATOM      6  C13 P36 d   1      33.960  37.467  23.172  0.00  0.00    -0.014 A 
ATOM      7  O14 P36 d   1      33.883  41.020  22.887  0.00  0.00    -0.266 OA
ATOM      8 BR23 P36 d   1      35.251  40.928  20.402  0.00  0.00    -0.042 Br
ATOM      9  H8  P36 d   1      34.838  36.089  21.825  0.00  0.00     0.089 H 
ATOM     10  H9  P36 d   1      33.631  36.682  23.852  0.00  0.00     0.111 H 
ENDROOT
BRANCH   4  11
ATOM     11  O15 P36 d   1      35.725  37.923  19.994  0.00  0.00    -0.345 OA
BRANCH  11  12
ATOM     12  C16 P36 d   1      36.062  36.559  19.732  0.00  0.00     0.050 C 
ATOM     13  H10 P36 d   1      35.161  35.933  19.661  0.00  0.00     0.082 H 
ATOM     14  H11 P36 d   1      36.728  36.157  20.510  0.00  0.00     0.082 H 
BRANCH  12  15
ATOM     15  C17 P36 d   1      36.763  36.651  18.414  0.00  0.00    -0.034 A 
ATOM     16  C18 P36 d   1      36.095  36.350  17.249  0.00  0.00    -0.075 A 
ATOM     17  C19 P36 d   1      36.739  36.440  16.033  0.00  0.00    -0.082 A 
ATOM     18  H12 P36 d   1      35.057  36.041  17.288  0.00  0.00     0.084 H 
ATOM     19  C20 P36 d   1      38.053  36.852  15.976  0.00  0.00    -0.083 A 
ATOM     20  H13 P36 d   1      36.211  36.186  15.121  0.00  0.00     0.083 H 
ATOM     21  C21 P36 d   1      38.719  37.163  17.141  0.00  0.00    -0.082 A 
ATOM     22  H14 P36 d   1      38.559  36.931  15.021  0.00  0.00     0.083 H 
ATOM     23  C22 P36 d   1      38.080  37.056  18.354  0.00  0.00    -0.075 A 
ATOM     24  H15 P36 d   1      39.751  37.493  17.102  0.00  0.00     0.083 H 
ATOM     25  H16 P36 d   1      38.614  37.291  19.267  0.00  0.00     0.084 H 
ENDBRANCH  12  15
ENDBRANCH  11  12
ENDBRANCH   4  11
BRANCH   1  26
ATOM     26  C7  P36 d   1      32.963  39.094  24.691  0.00  0.00     0.026 C 
ATOM     27  H6  P36 d   1      32.512  40.091  24.578  0.00  0.00     0.072 H 
ATOM     28  H7  P36 d   1      32.168  38.344  24.819  0.00  0.00     0.072 H 
BRANCH  26  29
ATOM     29  C5  P36 d   1      33.798  39.099  25.918  0.00  0.00    -0.040 A 
ATOM     30  C4  P36 d   1      33.277  38.569  27.082  0.00  0.00    -0.075 A 
ATOM     31  C3  P36 d   1      34.037  38.568  28.233  0.00  0.00    -0.082 A 
ATOM     32  H4  P36 d   1      32.275  38.156  27.091  0.00  0.00     0.084 H 
ATOM     33  C2  P36 d   1      35.309  39.089  28.213  0.00  0.00    -0.083 A 
ATOM     34  H3  P36 d   1      33.632  38.157  29.151  0.00  0.00     0.083 H 
ATOM     35  C1  P36 d   1      35.823  39.615  27.047  0.00  0.00    -0.082 A 
ATOM     36  H2  P36 d   1      35.909  39.086  29.116  0.00  0.00     0.083 H 
ATOM     37  C6  P36 d   1      35.071  39.624  25.893  0.00  0.00    -0.075 A 
ATOM     38  H1  P36 d   1      36.827  40.025  27.038  0.00  0.00     0.083 H 
ATOM     39  H5  P36 d   1      35.476  40.039  24.977  0.00  0.00     0.084 H 
ENDBRANCH  26  29
ENDBRANCH   1  26
TORSDOF 5
