REMARK  3 active torsions:
REMARK  status: ('A' for Active; 'I' for Inactive)
REMARK    1  A    between atoms: C5_5  and  S6_6 
REMARK    2  A    between atoms: S6_6  and  C7_7 
REMARK    3  A    between atoms: C11_11  and  C12_12 
ROOT
ATOM      1  C7  52P d   1      35.490  36.497  20.228  0.00  0.00     0.090 A 
ATOM      2  C8  52P d   1      35.131  36.031  21.581  0.00  0.00    -0.047 A 
ATOM      3  C9  52P d   1      34.753  37.015  22.403  0.00  0.00    -0.055 A 
ATOM      4  C10 52P d   1      34.698  38.396  22.005  0.00  0.00     0.053 A 
ATOM      5  C11 52P d   1      34.300  39.361  22.860  0.00  0.00     0.096 A 
ATOM      6  C20 52P d   1      34.274  40.749  22.370  0.00  0.00     0.258 A 
ATOM      7  O21 52P d   1      33.938  41.714  23.031  0.00  0.00    -0.270 OA
ATOM      8  N22 52P d   1      34.672  40.925  21.034  0.00  0.00    -0.206 NA
ATOM      9  C23 52P d   1      35.027  39.918  20.289  0.00  0.00     0.089 A 
ATOM     10  N24 52P d   1      35.064  38.665  20.699  0.00  0.00    -0.252 N 
ATOM     11  N25 52P d   1      35.463  37.705  19.794  0.00  0.00    -0.286 N 
ATOM     12  H3  52P d   1      35.170  34.985  21.881  0.00  0.00     0.087 H 
ATOM     13  H4  52P d   1      34.473  36.758  23.424  0.00  0.00     0.086 H 
ATOM     14  H5  52P d   1      33.258  39.213  22.539  0.00  0.00     0.072 H 
ATOM     15  H9  52P d   1      35.312  40.124  19.259  0.00  0.00     0.146 H 
ATOM     16  H10 52P d   1      35.724  37.943  18.826  0.00  0.00     0.188 HD
ENDROOT
BRANCH   1  17
ATOM     17  S6  52P d   1      35.994  35.239  19.117  0.00  0.00    -0.068 SA
BRANCH  17  18
ATOM     18  C5  52P d   1      36.788  36.074  17.771  0.00  0.00     0.045 A 
ATOM     19  C4  52P d   1      36.237  35.979  16.513  0.00  0.00    -0.060 A 
ATOM     20  C3  52P d   1      36.817  36.595  15.431  0.00  0.00    -0.044 A 
ATOM     21  H2  52P d   1      35.327  35.407  16.374  0.00  0.00     0.085 H 
ATOM     22  C2  52P d   1      37.970  37.314  15.600  0.00  0.00     0.119 A 
ATOM     23  H1  52P d   1      36.365  36.513  14.449  0.00  0.00     0.088 H 
ATOM     24  F1  52P d   1      38.518  37.899  14.520  0.00  0.00    -0.206 F 
ATOM     25  C28 52P d   1      38.550  37.426  16.849  0.00  0.00    -0.007 A 
ATOM     26  C26 52P d   1      37.952  36.801  17.927  0.00  0.00     0.136 A 
ATOM     27  H11 52P d   1      39.462  37.997  16.982  0.00  0.00     0.093 H 
ATOM     28  F27 52P d   1      38.502  36.901  19.148  0.00  0.00    -0.205 F 
ENDBRANCH  17  18
ENDBRANCH   1  17
BRANCH   5  29
ATOM     29  C12 52P d   1      33.902  39.090  24.247  0.00  0.00     0.004 A 
ATOM     30  C13 52P d   1      32.663  38.569  24.580  0.00  0.00     0.043 A 
ATOM     31 CL14 52P d   1      31.468  38.176  23.390  0.00  0.00    -0.084 Cl
ATOM     32  C15 52P d   1      32.345  38.336  25.903  0.00  0.00    -0.061 A 
ATOM     33  C16 52P d   1      33.247  38.622  26.905  0.00  0.00    -0.080 A 
ATOM     34  H6  52P d   1      31.375  37.923  26.157  0.00  0.00     0.086 H 
ATOM     35  C17 52P d   1      34.476  39.145  26.585  0.00  0.00    -0.061 A 
ATOM     36  H7  52P d   1      32.988  38.435  27.941  0.00  0.00     0.083 H 
ATOM     37  C18 52P d   1      34.790  39.373  25.266  0.00  0.00     0.043 A 
ATOM     38  H8  52P d   1      35.192  39.376  27.365  0.00  0.00     0.086 H 
ATOM     39 CL19 52P d   1      36.336  40.027  24.902  0.00  0.00    -0.084 Cl
ENDBRANCH   5  29
TORSDOF 3
