REMARK  5 active torsions:
REMARK  status: ('A' for Active; 'I' for Inactive)
REMARK       I    between atoms: C11_2  and  N27_3 
REMARK    1  A    between atoms: C11_2  and  C23_8 
REMARK    2  A    between atoms: C23_8  and  N26_9 
REMARK    3  A    between atoms: C21_16  and  N29_17 
REMARK       I    between atoms: N29_17  and  C12_18 
REMARK       I    between atoms: C12_18  and  N25_19 
REMARK    4  A    between atoms: N28_22  and  C7_23 
REMARK    5  A    between atoms: C9_30  and  C22_31 
ROOT
ATOM      1  N29 YET d   1       3.079   8.036  27.268  0.00  0.00    -0.212 N 
ATOM      2  C12 YET d   1       2.522   7.482  26.185  0.00  0.00     0.688 C 
ATOM      3  N25 YET d   1       1.276   7.843  25.833  0.00  0.00    -0.126 N 
ATOM      4  C1  YET d   1       0.694   7.381  24.873  0.00  0.00     0.196 C 
ATOM      5  N24 YET d   1       0.127   6.900  23.981  0.00  0.00    -0.171 NA
ATOM      6  N28 YET d   1       3.216   6.574  25.470  0.00  0.00    -0.191 N 
ATOM      7  H20 YET d   1       4.027   7.727  27.525  0.00  0.00     0.178 HD
ATOM      8  H21 YET d   1       0.790   8.547  26.407  0.00  0.00     0.197 HD
ATOM      9  H22 YET d   1       2.773   6.146  24.645  0.00  0.00     0.184 HD
ENDROOT
BRANCH   1  10
ATOM     10  C21 YET d   1       2.446   9.047  28.116  0.00  0.00     0.103 C 
ATOM     11  C10 YET d   1       3.519   9.830  28.825  0.00  0.00     0.243 C 
ATOM     12  N26 YET d   1       3.182  10.911  29.541  0.00  0.00    -0.342 N 
ATOM     13  O30 YET d   1       4.679   9.463  28.710  0.00  0.00    -0.271 OA
ATOM     14  C18 YET d   1       1.816  11.433  29.722  0.00  0.00    -0.002 C 
ATOM     15  C14 YET d   1       1.034  10.412  30.553  0.00  0.00    -0.050 C 
ATOM     16  H11 YET d   1       1.333  11.567  28.743  0.00  0.00     0.064 H 
ATOM     17  H12 YET d   1       1.850  12.398  30.249  0.00  0.00     0.064 H 
ATOM     18  C13 YET d   1       0.448   9.330  29.643  0.00  0.00    -0.061 C 
ATOM     19  H13 YET d   1       0.217  10.924  31.082  0.00  0.00     0.035 H 
ATOM     20  H14 YET d   1       1.709   9.945  31.285  0.00  0.00     0.035 H 
ATOM     21  C17 YET d   1       1.526   8.364  29.130  0.00  0.00    -0.037 C 
ATOM     22  H15 YET d   1      -0.035   9.814  28.781  0.00  0.00     0.033 H 
ATOM     23  H16 YET d   1      -0.301   8.758  30.209  0.00  0.00     0.033 H 
ATOM     24  H17 YET d   1       1.037   7.504  28.648  0.00  0.00     0.036 H 
ATOM     25  H18 YET d   1       2.128   8.014  29.981  0.00  0.00     0.036 H 
ATOM     26  H19 YET d   1       1.851   9.729  27.491  0.00  0.00     0.088 H 
BRANCH  12  27
ATOM     27  C23 YET d   1       4.218  11.679  30.221  0.00  0.00     0.071 C 
ATOM     28  H9  YET d   1       3.831  12.021  31.192  0.00  0.00     0.079 H 
ATOM     29  H10 YET d   1       5.094  11.034  30.382  0.00  0.00     0.079 H 
BRANCH  27  30
ATOM     30  C11 YET d   1       4.636  12.885  29.403  0.00  0.00     0.237 C 
ATOM     31  O31 YET d   1       4.083  13.130  28.347  0.00  0.00    -0.272 OA
ATOM     32  N27 YET d   1       5.612  13.649  29.893  0.00  0.00    -0.351 N 
ATOM     33  C20 YET d   1       6.280  13.369  31.161  0.00  0.00    -0.002 C 
ATOM     34  C19 YET d   1       6.097  14.842  29.204  0.00  0.00    -0.002 C 
ATOM     35  C16 YET d   1       7.310  14.482  31.302  0.00  0.00    -0.049 C 
ATOM     36  H1  YET d   1       6.772  12.385  31.133  0.00  0.00     0.064 H 
ATOM     37  H2  YET d   1       5.562  13.396  31.994  0.00  0.00     0.064 H 
ATOM     38  C15 YET d   1       7.338  15.248  29.992  0.00  0.00    -0.049 C 
ATOM     39  H3  YET d   1       8.302  14.052  31.507  0.00  0.00     0.035 H 
ATOM     40  H4  YET d   1       7.025  15.155  32.124  0.00  0.00     0.035 H 
ATOM     41  H7  YET d   1       8.245  14.991  29.425  0.00  0.00     0.035 H 
ATOM     42  H8  YET d   1       7.322  16.330  30.188  0.00  0.00     0.035 H 
ATOM     43  H5  YET d   1       5.341  15.641  29.227  0.00  0.00     0.064 H 
ATOM     44  H6  YET d   1       6.356  14.612  28.160  0.00  0.00     0.064 H 
ENDBRANCH  27  30
ENDBRANCH  12  27
ENDBRANCH   1  10
BRANCH   6  45
ATOM     45  C7  YET d   1       4.529   6.191  25.815  0.00  0.00     0.050 A 
ATOM     46  C2  YET d   1       4.831   5.887  27.151  0.00  0.00    -0.054 A 
ATOM     47  C3  YET d   1       6.115   5.516  27.532  0.00  0.00    -0.047 A 
ATOM     48  H23 YET d   1       4.049   5.942  27.899  0.00  0.00     0.087 H 
ATOM     49  C8  YET d   1       7.073   5.461  26.540  0.00  0.00     0.086 A 
ATOM     50  H25 YET d   1       6.354   5.280  28.563  0.00  0.00     0.087 H 
ATOM     51  C6  YET d   1       6.819   5.748  25.220  0.00  0.00     0.002 A 
ATOM     52  O32 YET d   1       8.424   5.105  26.695  0.00  0.00    -0.315 OA
ATOM     53  C4  YET d   1       5.530   6.124  24.835  0.00  0.00    -0.044 A 
ATOM     54  C5  YET d   1       8.038   5.590  24.444  0.00  0.00    -0.042 A 
ATOM     55  H24 YET d   1       5.308   6.359  23.800  0.00  0.00     0.088 H 
ATOM     56  C9  YET d   1       8.949   5.203  25.439  0.00  0.00     0.050 A 
ATOM     57  H29 YET d   1       8.201   5.733  23.377  0.00  0.00     0.088 H 
BRANCH  56  58
ATOM     58  C22 YET d   1      10.394   4.898  25.188  0.00  0.00    -0.031 C 
ATOM     59  H26 YET d   1      10.617   5.035  24.120  0.00  0.00     0.036 H 
ATOM     60  H27 YET d   1      10.604   3.857  25.476  0.00  0.00     0.036 H 
ATOM     61  H28 YET d   1      11.021   5.577  25.784  0.00  0.00     0.036 H 
ENDBRANCH  56  58
ENDBRANCH   6  45
TORSDOF 5
