REMARK  6 active torsions:
REMARK  status: ('A' for Active; 'I' for Inactive)
REMARK    1  A    between atoms: N1_12  and  C1_2 
REMARK    2  A    between atoms: N2_17  and  C4_5 
REMARK    3  A    between atoms: C6_11  and  C7_10 
REMARK    4  A    between atoms: N2_17  and  C6_11 
REMARK    5  A    between atoms: C12_13  and  C13_14 
REMARK    6  A    between atoms: C14_15  and  N2_17 
ROOT
ATOM      1 CL1  GKK d   1      -1.859 -11.089  28.297  0.00  0.00    -0.083 Cl
ATOM      2  C14 GKK d   1      -3.557  -8.109  26.197  0.00  0.00     0.032 A 
ATOM      3  C15 GKK d   1      -4.496  -7.682  27.087  0.00  0.00    -0.056 A 
ATOM      4  C16 GKK d   1      -4.645  -8.263  28.307  0.00  0.00    -0.059 A 
ATOM      5  C17 GKK d   1      -3.861  -9.307  28.703  0.00  0.00     0.066 A 
ATOM      6  C18 GKK d   1      -4.074  -9.823  29.995  0.00  0.00     0.101 C 
ATOM      7  N3  GKK d   1      -4.248 -10.245  31.051  0.00  0.00    -0.191 NA
ATOM      8  C19 GKK d   1      -2.893  -9.782  27.847  0.00  0.00     0.057 A 
ATOM      9  C20 GKK d   1      -2.768  -9.168  26.615  0.00  0.00    -0.035 A 
ATOM     10  H17 GKK d   1      -5.143  -6.856  26.815  0.00  0.00     0.087 H 
ATOM     11  H18 GKK d   1      -5.406  -7.888  28.982  0.00  0.00     0.086 H 
ATOM     12  H19 GKK d   1      -2.008  -9.537  25.936  0.00  0.00     0.089 H 
ENDROOT
BRANCH   2  13
ATOM     13  N2  GKK d   1      -3.396  -7.522  24.930  0.00  0.00    -0.370 N 
BRANCH  13  14
ATOM     14  C4  GKK d   1      -4.093  -6.297  24.567  0.00  0.00     0.037 C 
ATOM     15  C3  GKK d   1      -3.447  -5.064  25.148  0.00  0.00    -0.022 C 
ATOM     16  C2  GKK d   1      -3.134  -4.111  24.025  0.00  0.00     0.085 C 
ATOM     17  H6  GKK d   1      -4.136  -4.585  25.859  0.00  0.00     0.038 H 
ATOM     18  H7  GKK d   1      -2.518  -5.342  25.668  0.00  0.00     0.038 H 
ATOM     19  N1  GKK d   1      -3.204  -4.940  22.836  0.00  0.00    -0.073 N 
ATOM     20  H4  GKK d   1      -2.128  -3.682  24.144  0.00  0.00     0.076 H 
ATOM     21  H5  GKK d   1      -3.876  -3.300  23.981  0.00  0.00     0.076 H 
ATOM     22  C5  GKK d   1      -4.083  -6.075  23.070  0.00  0.00     0.102 C 
ATOM     23  H16 GKK d   1      -2.282  -5.328  22.711  0.00  0.00     0.279 HD
ATOM     24  H9  GKK d   1      -5.098  -5.852  22.710  0.00  0.00     0.079 H 
ATOM     25  H10 GKK d   1      -3.699  -6.968  22.554  0.00  0.00     0.079 H 
ATOM     26  H8  GKK d   1      -5.130  -6.372  24.925  0.00  0.00     0.075 H 
BRANCH  19  27
ATOM     27  C1  GKK d   1      -3.466  -4.197  21.629  0.00  0.00     0.066 C 
ATOM     28  H1  GKK d   1      -2.750  -3.365  21.548  0.00  0.00     0.068 H 
ATOM     29  H2  GKK d   1      -4.490  -3.797  21.659  0.00  0.00     0.068 H 
ATOM     30  H3  GKK d   1      -3.357  -4.861  20.759  0.00  0.00     0.068 H 
ENDBRANCH  19  27
ENDBRANCH  13  14
BRANCH  13  31
ATOM     31  C6  GKK d   1      -2.176  -7.898  24.274  0.00  0.00     0.020 C 
ATOM     32  H14 GKK d   1      -1.749  -7.002  23.800  0.00  0.00     0.071 H 
ATOM     33  H15 GKK d   1      -1.478  -8.278  25.035  0.00  0.00     0.071 H 
BRANCH  31  34
ATOM     34  C7  GKK d   1      -2.342  -8.941  23.232  0.00  0.00    -0.025 A 
ATOM     35  C8  GKK d   1      -3.428  -9.767  23.262  0.00  0.00    -0.074 A 
ATOM     36  C9  GKK d   1      -3.626 -10.735  22.325  0.00  0.00    -0.082 A 
ATOM     37  H13 GKK d   1      -4.156  -9.649  24.057  0.00  0.00     0.084 H 
ATOM     38  C10 GKK d   1      -2.723 -10.886  21.326  0.00  0.00    -0.082 A 
ATOM     39  H11 GKK d   1      -4.497 -11.378  22.378  0.00  0.00     0.083 H 
ATOM     40  C11 GKK d   1      -1.629 -10.086  21.277  0.00  0.00    -0.068 A 
ATOM     41  H12 GKK d   1      -2.875 -11.645  20.567  0.00  0.00     0.083 H 
ATOM     42  C12 GKK d   1      -1.413  -9.111  22.223  0.00  0.00     0.055 A 
ATOM     43  H20 GKK d   1      -0.910 -10.217  20.476  0.00  0.00     0.084 H 
BRANCH  42  44
ATOM     44  C13 GKK d   1      -0.185  -8.265  22.100  0.00  0.00     0.418 C 
ATOM     45  F1  GKK d   1       0.469  -8.060  23.178  0.00  0.00    -0.166 F 
ATOM     46  F2  GKK d   1       0.709  -8.721  21.287  0.00  0.00    -0.166 F 
ATOM     47  F3  GKK d   1      -0.395  -7.081  21.691  0.00  0.00    -0.166 F 
ENDBRANCH  42  44
ENDBRANCH  31  34
ENDBRANCH  13  31
ENDBRANCH   2  13
TORSDOF 6
