REMARK WARNING: 32 MAX_TORS EXCEEDED!!!
REMARK  35 active torsions:
REMARK  status: ('A' for Active; 'I' for Inactive)
REMARK    1  A    between atoms: N_1  and  CA_2 
REMARK    2  A    between atoms: CA_2  and  C_3 
REMARK    3  A    between atoms: CA_2  and  CB_5 
REMARK       I    between atoms: C_3  and  N_6 
REMARK    4  A    between atoms: N_6  and  CA_7 
REMARK    5  A    between atoms: CA_7  and  C_8 
REMARK    6  A    between atoms: CA_7  and  CB_10 
REMARK       I    between atoms: C_8  and  N_12 
REMARK    7  A    between atoms: CB_10  and  OG_11 
REMARK    8  A    between atoms: N_12  and  CA_13 
REMARK    9  A    between atoms: CA_13  and  C_14 
REMARK   10  A    between atoms: CA_13  and  CB_16 
REMARK       I    between atoms: C_14  and  N_17 
REMARK   11  A    between atoms: N_17  and  CA_18 
REMARK   12  A    between atoms: CA_18  and  C_19 
REMARK   13  A    between atoms: CA_18  and  CB_21 
REMARK       I    between atoms: C_19  and  N_25 
REMARK   14  A    between atoms: CB_21  and  CG_22 
REMARK   15  A    between atoms: N_25  and  CA_26 
REMARK   16  A    between atoms: CA_26  and  C_27 
REMARK   17  A    between atoms: CA_26  and  CB_29 
REMARK       I    between atoms: C_27  and  N_31 
REMARK   18  A    between atoms: CB_29  and  OG_30 
REMARK   19  A    between atoms: N_31  and  CA_32 
REMARK   20  A    between atoms: CA_32  and  C_33 
REMARK   21  A    between atoms: CA_32  and  CB_35 
REMARK       I    between atoms: C_33  and  N_38 
REMARK   22  A    between atoms: CB_35  and  OG1_36 
REMARK   23  A    between atoms: CB_35  and  CG2_37 
REMARK   24  A    between atoms: N_38  and  CA_39 
REMARK   25  A    between atoms: CA_39  and  C_40 
REMARK   26  A    between atoms: CA_39  and  CB_42 
REMARK       I    between atoms: C_40  and  N_45 
REMARK   27  A    between atoms: CB_42  and  OG1_43 
REMARK   28  A    between atoms: CB_42  and  CG2_44 
REMARK   29  A    between atoms: N_45  and  CA_46 
REMARK   30  A    between atoms: CA_46  and  C_47 
REMARK   31  A    between atoms: CA_46  and  CB_49 
REMARK       I    between atoms: C_47  and  N_54 
REMARK   32  A    between atoms: CB_49  and  CG_50 
REMARK   33  A    between atoms: CG_50  and  CD_51 
REMARK   34  A    between atoms: N_54  and  CA_55 
REMARK   35  A    between atoms: CA_55  and  C_56 
ROOT
ATOM      1  CA  SER d   1     -17.851  23.808  -1.023  0.00  0.00     0.109 C 
ATOM      2  H23 SER d   1     -17.156  23.457  -1.800  0.00  0.00     0.090 H 
ENDROOT
BRANCH   1   3
ATOM      3  N   SER d   1     -19.163  23.219  -1.237  0.00  0.00    -0.344 N 
ATOM      4  C   ASP d   1     -19.429  22.468  -2.298  0.00  0.00     0.241 C 
ATOM      5  O   ASP d   1     -18.590  22.210  -3.169  0.00  0.00    -0.271 OA
ATOM      6  H22 SER d   1     -19.885  23.385  -0.566  0.00  0.00     0.163 HD
BRANCH   4   7
ATOM      7  CA  ASP d   1     -20.851  21.927  -2.405  0.00  0.00     0.098 C 
ATOM      8  H19 ASP d   1     -21.569  22.733  -2.193  0.00  0.00     0.088 H 
BRANCH   7   9
ATOM      9  N   ASP d   1     -21.030  21.462  -3.772  0.00  0.00    -0.346 N 
ATOM     10  C   ALA d   1     -22.130  21.717  -4.473  0.00  0.00     0.240 C 
ATOM     11  O   ALA d   1     -23.104  22.324  -4.013  0.00  0.00    -0.271 OA
ATOM     12  H18 ASP d   1     -20.299  20.931  -4.200  0.00  0.00     0.163 HD
BRANCH  10  13
ATOM     13  CA  ALA d   1     -22.138  21.190  -5.906  0.00  0.00     0.086 C 
ATOM     14  H14 ALA d   1     -21.635  20.212  -5.927  0.00  0.00     0.086 H 
BRANCH  13  15
ATOM     15  N   ALA d   1     -23.507  21.022  -6.378  0.00  0.00    -0.346 N 
ATOM     16  C   SER d   1     -24.225  19.960  -6.025  0.00  0.00     0.243 C 
ATOM     17  O   SER d   1     -23.793  19.074  -5.285  0.00  0.00    -0.271 OA
ATOM     18  H13 ALA d   1     -23.912  21.715  -6.975  0.00  0.00     0.163 HD
BRANCH  16  19
ATOM     19  CA  SER d   1     -25.646  19.895  -6.564  0.00  0.00     0.109 C 
ATOM     20  H9  SER d   1     -25.773  20.683  -7.321  0.00  0.00     0.090 H 
BRANCH  19  21
ATOM     21  N   SER d   1     -25.921  18.604  -7.198  0.00  0.00    -0.344 N 
ATOM     22  C   ALA d   1     -25.743  18.415  -8.506  0.00  0.00     0.248 C 
ATOM     23  O   ALA d   1     -25.340  19.303  -9.264  0.00  0.00    -0.271 OA
ATOM     24  H8  SER d   1     -26.250  17.845  -6.636  0.00  0.00     0.163 HD
BRANCH  22  25
ATOM     25  CA  ALA d   1     -26.065  17.017  -9.044  0.00  0.00     0.172 C 
ATOM     26  H4  ALA d   1     -27.074  16.736  -8.709  0.00  0.00     0.098 H 
BRANCH  25  27
ATOM     27  N   ALA d   1     -26.035  16.998 -10.538  0.00  0.00    -0.067 N 
ATOM     28  H1  ALA d   1     -26.250  16.070 -10.867  0.00  0.00     0.275 HD
ATOM     29  H2  ALA d   1     -25.117  17.264 -10.859  0.00  0.00     0.275 HD
ATOM     30  H3  ALA d   1     -26.718  17.647 -10.896  0.00  0.00     0.275 HD
ENDBRANCH  25  27
BRANCH  25  31
ATOM     31  CB  ALA d   1     -25.061  15.999  -8.496  0.00  0.00    -0.042 C 
ATOM     32  H5  ALA d   1     -25.085  16.015  -7.396  0.00  0.00     0.030 H 
ATOM     33  H6  ALA d   1     -24.050  16.257  -8.844  0.00  0.00     0.030 H 
ATOM     34  H7  ALA d   1     -25.326  14.993  -8.854  0.00  0.00     0.030 H 
ENDBRANCH  25  31
ENDBRANCH  22  25
ENDBRANCH  19  21
BRANCH  19  35
ATOM     35  CB  SER d   1     -26.619  20.162  -5.405  0.00  0.00     0.044 C 
ATOM     36  H10 SER d   1     -26.341  21.109  -4.919  0.00  0.00     0.077 H 
ATOM     37  H11 SER d   1     -26.540  19.340  -4.678  0.00  0.00     0.077 H 
BRANCH  35  38
ATOM     38  OG  SER d   1     -27.960  20.252  -5.849  0.00  0.00    -0.398 OA
ATOM     39  H12 SER d   1     -28.528  20.417  -5.106  0.00  0.00     0.209 HD
ENDBRANCH  35  38
ENDBRANCH  19  35
ENDBRANCH  16  19
ENDBRANCH  13  15
BRANCH  13  40
ATOM     40  CB  ALA d   1     -21.380  22.153  -6.813  0.00  0.00    -0.049 C 
ATOM     41  H15 ALA d   1     -20.350  22.270  -6.445  0.00  0.00     0.030 H 
ATOM     42  H16 ALA d   1     -21.883  23.131  -6.811  0.00  0.00     0.030 H 
ATOM     43  H17 ALA d   1     -21.360  21.753  -7.838  0.00  0.00     0.030 H 
ENDBRANCH  13  40
ENDBRANCH  10  13
ENDBRANCH   7   9
BRANCH   7  44
ATOM     44  CB  ASP d   1     -21.077  20.783  -1.400  0.00  0.00     0.043 C 
ATOM     45  H20 ASP d   1     -22.075  20.355  -1.574  0.00  0.00     0.052 H 
ATOM     46  H21 ASP d   1     -21.027  21.195  -0.382  0.00  0.00     0.052 H 
BRANCH  44  47
ATOM     47  CG  ASP d   1     -20.043  19.671  -1.526  0.00  0.00     0.175 C 
ATOM     48  OD1 ASP d   1     -18.929  19.822  -0.978  0.00  0.00    -0.648 OA
ATOM     49  OD2 ASP d   1     -20.343  18.645  -2.179  0.00  0.00    -0.648 OA
ENDBRANCH  44  47
ENDBRANCH   7  44
ENDBRANCH   4   7
ENDBRANCH   1   3
BRANCH   1  50
ATOM     50  C   SER d   1     -17.347  23.382   0.345  0.00  0.00     0.243 C 
ATOM     51  O   SER d   1     -18.145  23.166   1.266  0.00  0.00    -0.271 OA
ATOM     52  N   THR d   1     -16.027  23.262   0.477  0.00  0.00    -0.344 N 
ATOM     53  H27 THR d   1     -15.437  23.441  -0.310  0.00  0.00     0.163 HD
BRANCH  52  54
ATOM     54  CA  THR d   1     -15.426  22.875   1.746  0.00  0.00     0.113 C 
ATOM     55  H28 THR d   1     -15.998  22.030   2.157  0.00  0.00     0.091 H 
BRANCH  54  56
ATOM     56  C   THR d   1     -15.467  24.037   2.728  0.00  0.00     0.243 C 
ATOM     57  O   THR d   1     -15.166  23.852   3.906  0.00  0.00    -0.271 OA
ATOM     58  N   THR d   1     -15.827  25.229   2.247  0.00  0.00    -0.344 N 
ATOM     59  H34 THR d   1     -16.053  25.315   1.277  0.00  0.00     0.163 HD
BRANCH  58  60
ATOM     60  CA  THR d   1     -15.899  26.419   3.108  0.00  0.00     0.113 C 
ATOM     61  H35 THR d   1     -15.794  26.080   4.149  0.00  0.00     0.091 H 
BRANCH  60  62
ATOM     62  C   THR d   1     -17.231  27.176   2.975  0.00  0.00     0.243 C 
ATOM     63  O   THR d   1     -17.881  27.147   1.930  0.00  0.00    -0.271 OA
ATOM     64  N   GLU d   1     -17.615  27.867   4.045  0.00  0.00    -0.346 N 
ATOM     65  H41 GLU d   1     -17.033  27.866   4.858  0.00  0.00     0.163 HD
BRANCH  64  66
ATOM     66  CA  GLU d   1     -18.857  28.625   4.066  0.00  0.00     0.090 C 
ATOM     67  H42 GLU d   1     -19.568  28.166   3.364  0.00  0.00     0.087 H 
BRANCH  66  68
ATOM     68  C   GLU d   1     -18.599  30.067   3.640  0.00  0.00     0.240 C 
ATOM     69  O   GLU d   1     -17.785  30.762   4.247  0.00  0.00    -0.271 OA
ATOM     70  N   GLY d   1     -19.283  30.508   2.586  0.00  0.00    -0.353 N 
ATOM     71  H47 GLY d   1     -19.921  29.895   2.121  0.00  0.00     0.162 HD
BRANCH  70  72
ATOM     72  CA  GLY d   1     -19.115  31.871   2.101  0.00  0.00     0.043 C 
ATOM     73  H48 GLY d   1     -19.233  32.551   2.958  0.00  0.00     0.074 H 
ATOM     74  H49 GLY d   1     -19.908  32.068   1.365  0.00  0.00     0.074 H 
BRANCH  72  75
ATOM     75  C   GLY d   1     -17.779  32.179   1.441  0.00  0.00     0.105 C 
ATOM     76  O   GLY d   1     -16.892  31.290   1.407  0.00  0.00    -0.305 OA
ATOM     77  H50 GLY d   1     -17.594  33.159   1.003  0.00  0.00     0.145 H 
ENDBRANCH  72  75
ENDBRANCH  70  72
ENDBRANCH  66  68
BRANCH  66  78
ATOM     78  CB  GLU d   1     -19.458  28.599   5.475  0.00  0.00    -0.029 C 
ATOM     79  H43 GLU d   1     -20.353  29.238   5.477  0.00  0.00     0.037 H 
ATOM     80  H44 GLU d   1     -18.713  29.010   6.172  0.00  0.00     0.037 H 
BRANCH  78  81
ATOM     81  CG  GLU d   1     -19.862  27.217   5.974  0.00  0.00     0.018 C 
ATOM     82  H45 GLU d   1     -18.977  26.563   5.972  0.00  0.00     0.049 H 
ATOM     83  H46 GLU d   1     -20.626  26.802   5.300  0.00  0.00     0.049 H 
BRANCH  81  84
ATOM     84  CD  GLU d   1     -20.427  27.279   7.381  0.00  0.00     0.172 C 
ATOM     85  OE1 GLU d   1     -21.666  27.150   7.529  0.00  0.00    -0.648 OA
ATOM     86  OE2 GLU d   1     -19.627  27.479   8.331  0.00  0.00    -0.648 OA
ENDBRANCH  81  84
ENDBRANCH  78  81
ENDBRANCH  66  78
ENDBRANCH  64  66
ENDBRANCH  60  62
BRANCH  60  87
ATOM     87  CB  THR d   1     -14.761  27.437   2.800  0.00  0.00     0.060 C 
ATOM     88  H36 THR d   1     -14.861  28.292   3.485  0.00  0.00     0.086 H 
BRANCH  87  89
ATOM     89  OG1 THR d   1     -14.907  27.911   1.449  0.00  0.00    -0.393 OA
ATOM     90  H37 THR d   1     -14.851  27.177   0.849  0.00  0.00     0.210 HD
ENDBRANCH  87  89
BRANCH  87  91
ATOM     91  CG2 THR d   1     -13.360  26.803   3.017  0.00  0.00    -0.050 C 
ATOM     92  H38 THR d   1     -12.582  27.547   2.791  0.00  0.00     0.031 H 
ATOM     93  H39 THR d   1     -13.243  25.936   2.350  0.00  0.00     0.031 H 
ATOM     94  H40 THR d   1     -13.263  26.477   4.063  0.00  0.00     0.031 H 
ENDBRANCH  87  91
ENDBRANCH  60  87
ENDBRANCH  58  60
ENDBRANCH  54  56
BRANCH  54  95
ATOM     95  CB  THR d   1     -13.941  22.450   1.589  0.00  0.00     0.060 C 
ATOM     96  H29 THR d   1     -13.534  22.202   2.580  0.00  0.00     0.086 H 
BRANCH  95  97
ATOM     97  OG1 THR d   1     -13.187  23.534   1.027  0.00  0.00    -0.393 OA
ATOM     98  H30 THR d   1     -13.543  23.758   0.175  0.00  0.00     0.210 HD
ENDBRANCH  95  97
BRANCH  95  99
ATOM     99  CG2 THR d   1     -13.822  21.237   0.691  0.00  0.00    -0.050 C 
ATOM    100  H31 THR d   1     -12.763  20.955   0.595  0.00  0.00     0.031 H 
ATOM    101  H32 THR d   1     -14.230  21.475  -0.302  0.00  0.00     0.031 H 
ATOM    102  H33 THR d   1     -14.386  20.400   1.128  0.00  0.00     0.031 H 
ENDBRANCH  95  99
ENDBRANCH  54  95
ENDBRANCH  52  54
ENDBRANCH   1  50
BRANCH   1 103
ATOM    103  CB  SER d   1     -17.954  25.336  -1.081  0.00  0.00     0.044 C 
ATOM    104  H24 SER d   1     -18.576  25.684  -0.243  0.00  0.00     0.077 H 
ATOM    105  H25 SER d   1     -18.424  25.626  -2.032  0.00  0.00     0.077 H 
BRANCH 103 106
ATOM    106  OG  SER d   1     -16.680  25.948  -0.993  0.00  0.00    -0.398 OA
ATOM    107  H26 SER d   1     -16.139  25.656  -1.717  0.00  0.00     0.209 HD
ENDBRANCH 103 106
ENDBRANCH   1 103
TORSDOF 35
