REMARK  6 active torsions:
REMARK  status: ('A' for Active; 'I' for Inactive)
REMARK    1  A    between atoms: C20_4  and  O24_9 
REMARK    2  A    between atoms: O24_9  and  C26_8 
REMARK    3  A    between atoms: C2_14  and  C5_13 
REMARK    4  A    between atoms: C1_21  and  C3_22 
REMARK    5  A    between atoms: C17_24  and  O21_25 
REMARK    6  A    between atoms: O21_25  and  C25_26 
ROOT
ATOM      1  C9  PF4 d   1       9.076  17.803  37.419  0.00  0.00     0.146 A 
ATOM      2  C18 PF4 d   1       7.425  18.293  35.562  0.00  0.00    -0.062 A 
ATOM      3  C2  PF4 d   1      10.546  18.825  38.648  0.00  0.00     0.074 A 
ATOM      4  N6  PF4 d   1       9.604  18.978  37.633  0.00  0.00    -0.337 N 
ATOM      5  C14 PF4 d   1       8.033  17.500  36.462  0.00  0.00     0.050 A 
ATOM      6  S19 PF4 d   1       7.291  15.931  36.370  0.00  0.00    -0.098 SA
ATOM      7  C23 PF4 d   1       6.164  16.333  35.089  0.00  0.00    -0.044 A 
ATOM      8  C22 PF4 d   1       6.378  17.613  34.783  0.00  0.00    -0.075 A 
ATOM      9  N4  PF4 d   1       9.609  16.891  38.266  0.00  0.00    -0.227 NA
ATOM     10  C1  PF4 d   1      10.515  17.534  39.048  0.00  0.00     0.097 A 
ATOM     11  H4  PF4 d   1       7.684  19.342  35.423  0.00  0.00     0.085 H 
ATOM     12  H12 PF4 d   1       9.368  19.853  37.144  0.00  0.00     0.167 HD
ATOM     13  H13 PF4 d   1       5.433  15.668  34.633  0.00  0.00     0.095 H 
ATOM     14  H14 PF4 d   1       5.813  18.124  34.005  0.00  0.00     0.084 H 
ENDROOT
BRANCH   3  15
ATOM     15  C5  PF4 d   1      11.314  19.981  39.127  0.00  0.00    -0.007 A 
ATOM     16  C10 PF4 d   1      11.777  20.924  38.208  0.00  0.00    -0.068 A 
ATOM     17  C15 PF4 d   1      12.486  22.044  38.694  0.00  0.00    -0.050 A 
ATOM     18  H10 PF4 d   1      11.597  20.799  37.146  0.00  0.00     0.085 H 
ATOM     19  C20 PF4 d   1      12.685  22.192  40.082  0.00  0.00     0.068 A 
ATOM     20  H9  PF4 d   1      12.875  22.785  38.005  0.00  0.00     0.087 H 
ATOM     21  C16 PF4 d   1      12.193  21.242  40.969  0.00  0.00    -0.050 A 
ATOM     22  C11 PF4 d   1      11.506  20.134  40.495  0.00  0.00    -0.068 A 
ATOM     23  H5  PF4 d   1      12.347  21.367  42.035  0.00  0.00     0.087 H 
ATOM     24  H11 PF4 d   1      11.122  19.393  41.187  0.00  0.00     0.085 H 
BRANCH  19  25
ATOM     25  O24 PF4 d   1      13.364  23.242  40.661  0.00  0.00    -0.356 OA
BRANCH  25  26
ATOM     26  C26 PF4 d   1      13.710  24.403  39.914  0.00  0.00     0.010 C 
ATOM     27  H6  PF4 d   1      14.244  25.112  40.564  0.00  0.00     0.066 H 
ATOM     28  H7  PF4 d   1      12.795  24.877  39.528  0.00  0.00     0.066 H 
ATOM     29  H8  PF4 d   1      14.358  24.118  39.072  0.00  0.00     0.066 H 
ENDBRANCH  25  26
ENDBRANCH  19  25
ENDBRANCH   3  15
BRANCH  10  30
ATOM     30  C3  PF4 d   1      11.301  16.771  40.036  0.00  0.00    -0.005 A 
ATOM     31  C7  PF4 d   1      10.706  15.814  40.857  0.00  0.00    -0.068 A 
ATOM     32  C12 PF4 d   1      11.478  15.064  41.749  0.00  0.00    -0.050 A 
ATOM     33  H1  PF4 d   1       9.636  15.650  40.803  0.00  0.00     0.085 H 
ATOM     34  C17 PF4 d   1      12.872  15.267  41.804  0.00  0.00     0.068 A 
ATOM     35  H15 PF4 d   1      11.008  14.331  42.394  0.00  0.00     0.087 H 
ATOM     36  C13 PF4 d   1      13.467  16.208  40.945  0.00  0.00    -0.050 A 
ATOM     37  C8  PF4 d   1      12.675  16.953  40.064  0.00  0.00    -0.068 A 
ATOM     38  H2  PF4 d   1      14.541  16.357  40.965  0.00  0.00     0.087 H 
ATOM     39  H3  PF4 d   1      13.138  17.675  39.401  0.00  0.00     0.085 H 
BRANCH  34  40
ATOM     40  O21 PF4 d   1      13.596  14.508  42.683  0.00  0.00    -0.356 OA
BRANCH  40  41
ATOM     41  C25 PF4 d   1      15.030  14.637  42.792  0.00  0.00     0.010 C 
ATOM     42  H16 PF4 d   1      15.404  13.937  43.554  0.00  0.00     0.066 H 
ATOM     43  H17 PF4 d   1      15.284  15.667  43.084  0.00  0.00     0.066 H 
ATOM     44  H18 PF4 d   1      15.494  14.405  41.822  0.00  0.00     0.066 H 
ENDBRANCH  40  41
ENDBRANCH  34  40
ENDBRANCH  10  30
TORSDOF 6
