REMARK  6 active torsions:
REMARK  status: ('A' for Active; 'I' for Inactive)
REMARK    1  A    between atoms: C20_4  and  C21_5 
REMARK    2  A    between atoms: O18_17  and  C20_4 
REMARK    3  A    between atoms: C15_18  and  O18_17 
REMARK    4  A    between atoms: C1_22  and  C3_21 
REMARK    5  A    between atoms: C5_26  and  C2_23 
REMARK    6  A    between atoms: C5_26  and  C10_27 
ROOT
ATOM      1  C7  PF6 d   1      12.589  16.942  43.243  0.00  0.00    -0.068 A 
ATOM      2  C8  PF6 d   1      14.086  15.891  41.709  0.00  0.00    -0.068 A 
ATOM      3  C15 PF6 d   1      12.125  17.071  40.892  0.00  0.00     0.069 A 
ATOM      4  C12 PF6 d   1      13.292  16.332  40.646  0.00  0.00    -0.050 A 
ATOM      5  C11 PF6 d   1      11.820  17.363  42.200  0.00  0.00    -0.050 A 
ATOM      6  C3  PF6 d   1      13.735  16.211  43.021  0.00  0.00    -0.005 A 
ATOM      7  H1  PF6 d   1      12.296  17.185  44.258  0.00  0.00     0.085 H 
ATOM      8  H6  PF6 d   1      14.974  15.301  41.514  0.00  0.00     0.085 H 
ATOM      9  H14 PF6 d   1      13.579  16.102  39.627  0.00  0.00     0.087 H 
ATOM     10  H15 PF6 d   1      10.934  17.951  42.410  0.00  0.00     0.087 H 
ENDROOT
BRANCH   3  11
ATOM     11  O18 PF6 d   1      11.236  17.577  39.972  0.00  0.00    -0.345 OA
BRANCH  11  12
ATOM     12  C20 PF6 d   1      11.410  17.108  38.634  0.00  0.00     0.066 C 
ATOM     13  H4  PF6 d   1      12.355  17.502  38.233  0.00  0.00     0.084 H 
ATOM     14  H5  PF6 d   1      11.443  16.009  38.638  0.00  0.00     0.084 H 
BRANCH  12  15
ATOM     15  C21 PF6 d   1      10.260  17.571  37.752  0.00  0.00     0.059 A 
ATOM     16  C23 PF6 d   1      10.060  18.932  37.470  0.00  0.00    -0.056 A 
ATOM     17  C25 PF6 d   1       9.006  19.308  36.664  0.00  0.00    -0.069 A 
ATOM     18  H12 PF6 d   1      10.728  19.680  37.882  0.00  0.00     0.086 H 
ATOM     19  C26 PF6 d   1       8.179  18.286  36.131  0.00  0.00    -0.007 A 
ATOM     20  H11 PF6 d   1       8.815  20.352  36.444  0.00  0.00     0.085 H 
ATOM     21  C28 PF6 d   1       7.097  18.558  35.296  0.00  0.00    -0.071 A 
ATOM     22  C24 PF6 d   1       8.440  16.929  36.471  0.00  0.00     0.067 A 
ATOM     23  C30 PF6 d   1       6.319  17.538  34.832  0.00  0.00    -0.082 A 
ATOM     24  H10 PF6 d   1       6.873  19.581  35.015  0.00  0.00     0.084 H 
ATOM     25  C29 PF6 d   1       6.584  16.210  35.155  0.00  0.00    -0.081 A 
ATOM     26  H9  PF6 d   1       5.472  17.767  34.195  0.00  0.00     0.083 H 
ATOM     27  C27 PF6 d   1       7.627  15.902  35.962  0.00  0.00    -0.054 A 
ATOM     28  H8  PF6 d   1       5.954  15.421  34.760  0.00  0.00     0.083 H 
ATOM     29  H13 PF6 d   1       7.834  14.868  36.214  0.00  0.00     0.087 H 
ATOM     30  N22 PF6 d   1       9.478  16.642  37.254  0.00  0.00    -0.251 NA
ENDBRANCH  12  15
ENDBRANCH  11  12
ENDBRANCH   3  11
BRANCH   6  31
ATOM     31  C1  PF6 d   1      14.515  15.725  44.166  0.00  0.00     0.095 A 
ATOM     32  C2  PF6 d   1      14.653  16.249  45.426  0.00  0.00    -0.006 A 
ATOM     33  C6  PF6 d   1      15.461  15.358  46.130  0.00  0.00     0.004 A 
ATOM     34  N9  PF6 d   1      15.783  14.350  45.367  0.00  0.00    -0.288 N 
ATOM     35  H2  PF6 d   1      15.777  15.485  47.164  0.00  0.00     0.114 H 
ATOM     36  N4  PF6 d   1      15.180  14.537  44.135  0.00  0.00    -0.174 NA
ATOM     37  H16 PF6 d   1      16.381  13.555  45.634  0.00  0.00     0.188 HD
BRANCH  32  38
ATOM     38  C5  PF6 d   1      14.101  17.550  46.007  0.00  0.00    -0.013 C 
ATOM     39  H17 PF6 d   1      13.976  18.258  45.174  0.00  0.00     0.047 H 
ATOM     40  H18 PF6 d   1      14.849  17.941  46.712  0.00  0.00     0.047 H 
BRANCH  38  41
ATOM     41  C10 PF6 d   1      12.779  17.475  46.742  0.00  0.00    -0.051 A 
ATOM     42  C13 PF6 d   1      12.196  18.664  47.197  0.00  0.00    -0.060 A 
ATOM     43  C16 PF6 d   1      10.984  18.668  47.850  0.00  0.00     0.002 A 
ATOM     44  H3  PF6 d   1      12.711  19.603  47.031  0.00  0.00     0.086 H 
ATOM     45  N19 PF6 d   1      10.368  17.524  48.105  0.00  0.00    -0.273 NA
ATOM     46  H7  PF6 d   1      10.535  19.606  48.155  0.00  0.00     0.114 H 
ATOM     47  C17 PF6 d   1      10.891  16.361  47.710  0.00  0.00     0.002 A 
ATOM     48  C14 PF6 d   1      12.109  16.290  47.024  0.00  0.00    -0.060 A 
ATOM     49  H19 PF6 d   1      10.356  15.444  47.927  0.00  0.00     0.114 H 
ATOM     50  H20 PF6 d   1      12.520  15.334  46.720  0.00  0.00     0.086 H 
ENDBRANCH  38  41
ENDBRANCH  32  38
ENDBRANCH   6  31
TORSDOF 6
