REMARK  5 active torsions:
REMARK  status: ('A' for Active; 'I' for Inactive)
REMARK    1  A    between atoms: C19_7  and  C20_4 
REMARK    2  A    between atoms: C16_6  and  O18_17 
REMARK    3  A    between atoms: O18_17  and  C19_7 
REMARK    4  A    between atoms: C1_20  and  C3_19 
REMARK    5  A    between atoms: C2_21  and  C5_24 
ROOT
ATOM      1  C7  PF8 d   1      12.491  18.459  43.185  0.00  0.00    -0.068 A 
ATOM      2  C13 PF8 d   1      11.153  16.224  42.114  0.00  0.00    -0.050 A 
ATOM      3  C8  PF8 d   1      11.741  16.176  43.392  0.00  0.00    -0.068 A 
ATOM      4  C16 PF8 d   1      11.226  17.410  41.374  0.00  0.00     0.069 A 
ATOM      5  C12 PF8 d   1      11.898  18.518  41.917  0.00  0.00    -0.050 A 
ATOM      6  C3  PF8 d   1      12.411  17.288  43.934  0.00  0.00    -0.007 A 
ATOM      7  H1  PF8 d   1      13.011  19.323  43.582  0.00  0.00     0.085 H 
ATOM      8  H3  PF8 d   1      10.650  15.354  41.708  0.00  0.00     0.087 H 
ATOM      9  H4  PF8 d   1      11.676  15.262  43.971  0.00  0.00     0.085 H 
ATOM     10  H13 PF8 d   1      11.959  19.436  41.344  0.00  0.00     0.087 H 
ENDROOT
BRANCH   4  11
ATOM     11  O18 PF8 d   1      10.652  17.478  40.121  0.00  0.00    -0.345 OA
BRANCH  11  12
ATOM     12  C19 PF8 d   1      10.724  18.646  39.281  0.00  0.00     0.066 C 
ATOM     13  H5  PF8 d   1      10.571  19.549  39.891  0.00  0.00     0.084 H 
ATOM     14  H6  PF8 d   1      11.711  18.692  38.797  0.00  0.00     0.084 H 
BRANCH  12  15
ATOM     15  C20 PF8 d   1       9.642  18.558  38.222  0.00  0.00     0.059 A 
ATOM     16  N21 PF8 d   1       9.098  17.346  37.946  0.00  0.00    -0.251 NA
ATOM     17  C23 PF8 d   1       8.111  17.210  37.014  0.00  0.00     0.067 A 
ATOM     18  C26 PF8 d   1       7.562  15.946  36.766  0.00  0.00    -0.054 A 
ATOM     19  C25 PF8 d   1       7.650  18.335  36.314  0.00  0.00    -0.007 A 
ATOM     20  C28 PF8 d   1       6.567  15.808  35.804  0.00  0.00    -0.081 A 
ATOM     21  H7  PF8 d   1       7.910  15.081  37.320  0.00  0.00     0.087 H 
ATOM     22  C29 PF8 d   1       6.099  16.922  35.112  0.00  0.00    -0.082 A 
ATOM     23  H9  PF8 d   1       6.154  14.829  35.592  0.00  0.00     0.083 H 
ATOM     24  C27 PF8 d   1       6.649  18.186  35.357  0.00  0.00    -0.071 A 
ATOM     25  H8  PF8 d   1       5.306  16.810  34.381  0.00  0.00     0.083 H 
ATOM     26  H10 PF8 d   1       6.296  19.048  34.802  0.00  0.00     0.084 H 
ATOM     27  C24 PF8 d   1       8.202  19.597  36.587  0.00  0.00    -0.069 A 
ATOM     28  C22 PF8 d   1       9.208  19.704  37.553  0.00  0.00    -0.056 A 
ATOM     29  H11 PF8 d   1       7.854  20.476  36.057  0.00  0.00     0.085 H 
ATOM     30  H12 PF8 d   1       9.647  20.669  37.780  0.00  0.00     0.086 H 
ENDBRANCH  12  15
ENDBRANCH  11  12
ENDBRANCH   4  11
BRANCH   6  31
ATOM     31  C1  PF8 d   1      13.049  17.221  45.289  0.00  0.00     0.072 A 
ATOM     32  C2  PF8 d   1      13.836  16.259  45.909  0.00  0.00     0.022 A 
ATOM     33  C6  PF8 d   1      14.133  16.754  47.167  0.00  0.00     0.035 A 
ATOM     34  N9  PF8 d   1      13.546  17.976  47.284  0.00  0.00    -0.186 NA
ATOM     35  H2  PF8 d   1      14.730  16.254  47.928  0.00  0.00     0.118 H 
ATOM     36  N4  PF8 d   1      12.860  18.271  46.099  0.00  0.00    -0.277 N 
ATOM     37  H14 PF8 d   1      12.319  19.123  45.892  0.00  0.00     0.189 HD
BRANCH  32  38
ATOM     38  C5  PF8 d   1      14.275  14.953  45.335  0.00  0.00    -0.019 A 
ATOM     39  C11 PF8 d   1      14.561  14.848  43.970  0.00  0.00    -0.055 A 
ATOM     40  C15 PF8 d   1      14.962  13.620  43.452  0.00  0.00     0.003 A 
ATOM     41  H15 PF8 d   1      14.471  15.713  43.323  0.00  0.00     0.087 H 
ATOM     42  N17 PF8 d   1      15.079  12.558  44.266  0.00  0.00    -0.273 NA
ATOM     43  H16 PF8 d   1      15.179  13.521  42.395  0.00  0.00     0.114 H 
ATOM     44  C14 PF8 d   1      14.809  12.622  45.591  0.00  0.00     0.003 A 
ATOM     45  C10 PF8 d   1      14.396  13.833  46.156  0.00  0.00    -0.055 A 
ATOM     46  H17 PF8 d   1      14.912  11.739  46.211  0.00  0.00     0.114 H 
ATOM     47  H18 PF8 d   1      14.174  13.899  47.215  0.00  0.00     0.087 H 
ENDBRANCH  32  38
ENDBRANCH   6  31
TORSDOF 5
