REMARK  6 active torsions:
REMARK  status: ('A' for Active; 'I' for Inactive)
REMARK    1  A    between atoms: C26_10  and  C2_14 
REMARK    2  A    between atoms: N28_12  and  C30_11 
REMARK    3  A    between atoms: C1_20  and  C25_19 
REMARK    4  A    between atoms: O13_23  and  C11_21 
REMARK    5  A    between atoms: C14_24  and  O13_23 
REMARK    6  A    between atoms: C15_25  and  C14_24 
ROOT
ATOM      1  C4  PF9 d   1      12.400  18.309  42.676  0.00  0.00    -0.068 A 
ATOM      2  C7  PF9 d   1      10.990  16.089  41.681  0.00  0.00    -0.050 A 
ATOM      3  C8  PF9 d   1      11.811  18.363  41.417  0.00  0.00    -0.050 A 
ATOM      4  C1  PF9 d   1      12.286  17.146  43.437  0.00  0.00    -0.005 A 
ATOM      5  C11 PF9 d   1      11.109  17.259  40.918  0.00  0.00     0.069 A 
ATOM      6  C3  PF9 d   1      11.575  16.044  42.952  0.00  0.00    -0.068 A 
ATOM      7  H1  PF9 d   1      12.943  19.164  43.062  0.00  0.00     0.085 H 
ATOM      8  H2  PF9 d   1      10.453  15.232  41.292  0.00  0.00     0.087 H 
ATOM      9  H6  PF9 d   1      11.896  19.264  40.820  0.00  0.00     0.087 H 
ATOM     10  H14 PF9 d   1      11.477  15.153  43.562  0.00  0.00     0.085 H 
ENDROOT
BRANCH   4  11
ATOM     11  C25 PF9 d   1      12.912  17.157  44.785  0.00  0.00     0.100 A 
ATOM     12  C26 PF9 d   1      13.723  16.194  45.391  0.00  0.00     0.023 A 
ATOM     13  C27 PF9 d   1      14.053  16.666  46.661  0.00  0.00     0.011 A 
ATOM     14  N28 PF9 d   1      13.461  17.865  46.777  0.00  0.00    -0.284 N 
ATOM     15  H11 PF9 d   1      14.667  16.164  47.407  0.00  0.00     0.115 H 
ATOM     16  N29 PF9 d   1      12.743  18.189  45.633  0.00  0.00    -0.172 NA
BRANCH  12  17
ATOM     17  C2  PF9 d   1      14.177  14.895  44.828  0.00  0.00    -0.019 A 
ATOM     18  C6  PF9 d   1      14.330  13.806  45.682  0.00  0.00    -0.055 A 
ATOM     19  C10 PF9 d   1      14.752  12.579  45.157  0.00  0.00     0.003 A 
ATOM     20  H3  PF9 d   1      14.125  13.907  46.742  0.00  0.00     0.087 H 
ATOM     21  N12 PF9 d   1      15.006  12.453  43.837  0.00  0.00    -0.273 NA
ATOM     22  H12 PF9 d   1      14.876  11.725  45.814  0.00  0.00     0.114 H 
ATOM     23  C9  PF9 d   1      14.866  13.486  42.986  0.00  0.00     0.003 A 
ATOM     24  C5  PF9 d   1      14.448  14.733  43.469  0.00  0.00    -0.055 A 
ATOM     25  H4  PF9 d   1      15.076  13.354  41.931  0.00  0.00     0.114 H 
ATOM     26  H13 PF9 d   1      14.335  15.569  42.789  0.00  0.00     0.087 H 
ENDBRANCH  12  17
BRANCH  14  27
ATOM     27  C30 PF9 d   1      13.395  18.898  47.848  0.00  0.00     0.002 C 
ATOM     28  H8  PF9 d   1      13.986  18.566  48.714  0.00  0.00     0.059 H 
ATOM     29  H9  PF9 d   1      12.348  19.044  48.153  0.00  0.00     0.059 H 
ATOM     30  H10 PF9 d   1      13.802  19.847  47.468  0.00  0.00     0.059 H 
ENDBRANCH  14  27
ENDBRANCH   4  11
BRANCH   5  31
ATOM     31  O13 PF9 d   1      10.530  17.316  39.679  0.00  0.00    -0.345 OA
BRANCH  31  32
ATOM     32  C14 PF9 d   1      10.693  18.441  38.816  0.00  0.00     0.066 C 
ATOM     33  H15 PF9 d   1      11.679  18.397  38.330  0.00  0.00     0.084 H 
ATOM     34  H16 PF9 d   1      10.612  19.371  39.398  0.00  0.00     0.084 H 
BRANCH  32  35
ATOM     35  C15 PF9 d   1       9.605  18.397  37.769  0.00  0.00     0.059 A 
ATOM     36  C17 PF9 d   1       9.202  19.575  37.128  0.00  0.00    -0.056 A 
ATOM     37  C19 PF9 d   1       8.195  19.511  36.157  0.00  0.00    -0.069 A 
ATOM     38  H17 PF9 d   1       9.663  20.523  37.380  0.00  0.00     0.086 H 
ATOM     39  C20 PF9 d   1       7.605  18.267  35.877  0.00  0.00    -0.007 A 
ATOM     40  H7  PF9 d   1       7.877  20.404  35.632  0.00  0.00     0.085 H 
ATOM     41  C18 PF9 d   1       8.039  17.108  36.552  0.00  0.00     0.067 A 
ATOM     42  C22 PF9 d   1       6.586  18.152  34.926  0.00  0.00    -0.071 A 
ATOM     43  C21 PF9 d   1       7.461  15.870  36.280  0.00  0.00    -0.054 A 
ATOM     44  N16 PF9 d   1       9.034  17.194  37.477  0.00  0.00    -0.251 NA
ATOM     45  C23 PF9 d   1       6.448  15.762  35.336  0.00  0.00    -0.081 A 
ATOM     46  H5  PF9 d   1       7.803  14.987  36.807  0.00  0.00     0.087 H 
ATOM     47  C24 PF9 d   1       6.000  16.906  34.670  0.00  0.00    -0.082 A 
ATOM     48  H20 PF9 d   1       6.008  14.796  35.117  0.00  0.00     0.083 H 
ATOM     49  H19 PF9 d   1       5.193  16.828  33.950  0.00  0.00     0.083 H 
ATOM     50  H18 PF9 d   1       6.249  19.029  34.386  0.00  0.00     0.084 H 
ENDBRANCH  32  35
ENDBRANCH  31  32
ENDBRANCH   5  31
TORSDOF 6
