REMARK  6 active torsions:
REMARK  status: ('A' for Active; 'I' for Inactive)
REMARK    1  A    between atoms: C9_2  and  C4_3 
REMARK    2  A    between atoms: C9_2  and  C11_11 
REMARK    3  A    between atoms: N14_14  and  O23_15 
REMARK    4  A    between atoms: C13_16  and  C17_19 
REMARK    5  A    between atoms: C12_17  and  N24_18 
REMARK    6  A    between atoms: C22_20  and  C25_21 
ROOT
ATOM      1  C11 I39 d   1       1.841  32.054  31.162  0.00  0.00     0.045 A 
ATOM      2  C16 I39 d   1       2.357  33.139  30.488  0.00  0.00    -0.050 A 
ATOM      3  C15 I39 d   1       1.581  34.271  30.303  0.00  0.00     0.009 A 
ATOM      4  N14 I39 d   1       0.343  34.318  30.739  0.00  0.00    -0.233 N 
ATOM      5  C13 I39 d   1      -0.217  33.280  31.382  0.00  0.00     0.100 A 
ATOM      6  C12 I39 d   1       0.517  32.125  31.619  0.00  0.00     0.070 A 
ATOM      7  H4  I39 d   1       3.370  33.107  30.103  0.00  0.00     0.087 H 
ATOM      8  H5  I39 d   1       2.001  35.130  29.792  0.00  0.00     0.115 H 
ENDROOT
BRANCH   5   9
ATOM      9  C17 I39 d   1      -1.625  33.365  31.876  0.00  0.00     0.001 A 
ATOM     10  C22 I39 d   1      -2.707  32.942  31.100  0.00  0.00    -0.049 A 
ATOM     11  C21 I39 d   1      -3.999  33.026  31.612  0.00  0.00    -0.076 A 
ATOM     12  C20 I39 d   1      -4.211  33.516  32.898  0.00  0.00    -0.082 A 
ATOM     13  H12 I39 d   1      -4.842  32.709  31.008  0.00  0.00     0.084 H 
ATOM     14  C19 I39 d   1      -3.130  33.938  33.676  0.00  0.00    -0.082 A 
ATOM     15  H13 I39 d   1      -5.218  33.570  33.297  0.00  0.00     0.083 H 
ATOM     16  C18 I39 d   1      -1.839  33.860  33.159  0.00  0.00    -0.070 A 
ATOM     17  H14 I39 d   1      -3.295  34.324  34.676  0.00  0.00     0.083 H 
ATOM     18  H15 I39 d   1      -0.997  34.186  33.759  0.00  0.00     0.084 H 
BRANCH  10  19
ATOM     19  C25 I39 d   1      -2.525  32.392  29.706  0.00  0.00    -0.050 C 
ATOM     20  H9  I39 d   1      -3.506  32.124  29.287  0.00  0.00     0.033 H 
ATOM     21  H10 I39 d   1      -1.887  31.497  29.745  0.00  0.00     0.033 H 
ATOM     22  H11 I39 d   1      -2.050  33.154  29.070  0.00  0.00     0.033 H 
ENDBRANCH  10  19
ENDBRANCH   5   9
BRANCH   4  23
ATOM     23  O23 I39 d   1      -0.395  35.513  30.499  0.00  0.00    -0.283 OA
ATOM     24  H6  I39 d   1       0.046  36.245  30.914  0.00  0.00     0.245 HD
ENDBRANCH   4  23
BRANCH   6  25
ATOM     25  N24 I39 d   1      -0.060  31.081  32.276  0.00  0.00    -0.396 N 
ATOM     26  H7  I39 d   1       0.480  30.223  32.454  0.00  0.00     0.156 HD
ATOM     27  H8  I39 d   1      -1.037  31.150  32.595  0.00  0.00     0.156 HD
ENDBRANCH   6  25
BRANCH   1  28
ATOM     28  C9  I39 d   1       2.716  30.843  31.337  0.00  0.00     0.197 C 
ATOM     29  O10 I39 d   1       2.214  29.777  31.670  0.00  0.00    -0.286 OA
BRANCH  28  30
ATOM     30  C4  I39 d   1       4.197  30.940  31.104  0.00  0.00     0.054 A 
ATOM     31  C3  I39 d   1       4.984  31.640  32.003  0.00  0.00     0.133 A 
ATOM     32  F8  I39 d   1       4.439  32.231  33.077  0.00  0.00    -0.205 F 
ATOM     33  C2  I39 d   1       6.356  31.736  31.816  0.00  0.00    -0.007 A 
ATOM     34  C1  I39 d   1       6.949  31.135  30.720  0.00  0.00     0.119 A 
ATOM     35  H1  I39 d   1       6.963  32.282  32.529  0.00  0.00     0.093 H 
ATOM     36  C6  I39 d   1       6.166  30.433  29.810  0.00  0.00    -0.045 A 
ATOM     37  F7  I39 d   1       8.277  31.268  30.565  0.00  0.00    -0.206 F 
ATOM     38  C5  I39 d   1       4.790  30.337  30.005  0.00  0.00    -0.063 A 
ATOM     39  H3  I39 d   1       6.626  29.961  28.950  0.00  0.00     0.088 H 
ATOM     40  H2  I39 d   1       4.181  29.789  29.295  0.00  0.00     0.085 H 
ENDBRANCH  28  30
ENDBRANCH   1  28
TORSDOF 6
