REMARK  5 active torsions:
REMARK  status: ('A' for Active; 'I' for Inactive)
REMARK    1  A    between atoms: CAP_2  and  CAD_4 
REMARK    2  A    between atoms: CAQ_5  and  CAT_6 
REMARK    3  A    between atoms: CAQ_5  and  CAN_12 
REMARK    4  A    between atoms: CAN_12  and  CAO_13 
REMARK    5  A    between atoms: CAO_13  and  CAS_14 
ROOT
ATOM      1  CAD P47 d   1      12.355  -6.077 -13.747  0.00  0.00    -0.003 C 
ATOM      2  CAQ P47 d   1      13.644  -6.280 -13.444  0.00  0.00    -0.041 C 
ATOM      3  H1  P47 d   1      11.923  -5.112 -13.488  0.00  0.00     0.095 H 
ENDROOT
BRANCH   2   4
ATOM      4  CAT P47 d   1      14.342  -7.580 -13.733  0.00  0.00    -0.030 A 
ATOM      5  CAK P47 d   1      15.406  -7.631 -14.636  0.00  0.00    -0.072 A 
ATOM      6  CAG P47 d   1      16.047  -8.839 -14.902  0.00  0.00    -0.082 A 
ATOM      7  H2  P47 d   1      15.735  -6.726 -15.133  0.00  0.00     0.084 H 
ATOM      8  CAE P47 d   1      15.603 -10.001 -14.272  0.00  0.00    -0.083 A 
ATOM      9  H3  P47 d   1      16.883  -8.875 -15.592  0.00  0.00     0.083 H 
ATOM     10  CAF P47 d   1      14.539  -9.963 -13.377  0.00  0.00    -0.082 A 
ATOM     11  H4  P47 d   1      16.093 -10.945 -14.482  0.00  0.00     0.083 H 
ATOM     12  CAJ P47 d   1      13.906  -8.755 -13.106  0.00  0.00    -0.072 A 
ATOM     13  H5  P47 d   1      14.204 -10.873 -12.892  0.00  0.00     0.083 H 
ATOM     14  H6  P47 d   1      13.076  -8.722 -12.410  0.00  0.00     0.084 H 
ENDBRANCH   2   4
BRANCH   2  15
ATOM     15  CAN P47 d   1      14.337  -5.129 -12.745  0.00  0.00    -0.036 C 
ATOM     16  H7  P47 d   1      14.678  -5.492 -11.764  0.00  0.00     0.040 H 
ATOM     17  H8  P47 d   1      13.594  -4.330 -12.603  0.00  0.00     0.040 H 
BRANCH  15  18
ATOM     18  CAO P47 d   1      15.542  -4.517 -13.454  0.00  0.00    -0.037 C 
ATOM     19  H9  P47 d   1      15.288  -3.525 -13.855  0.00  0.00     0.040 H 
ATOM     20  H10 P47 d   1      15.877  -5.169 -14.274  0.00  0.00     0.040 H 
BRANCH  18  21
ATOM     21  CAS P47 d   1      16.620  -4.400 -12.396  0.00  0.00    -0.058 A 
ATOM     22  CAL P47 d   1      17.923  -4.795 -12.705  0.00  0.00    -0.075 A 
ATOM     23  CAH P47 d   1      18.921  -4.714 -11.742  0.00  0.00    -0.061 A 
ATOM     24  H11 P47 d   1      18.156  -5.165 -13.697  0.00  0.00     0.084 H 
ATOM     25  CAR P47 d   1      18.603  -4.229 -10.472  0.00  0.00     0.034 A 
ATOM     26  H14 P47 d   1      19.934  -5.023 -11.974  0.00  0.00     0.086 H 
ATOM     27  CAI P47 d   1      17.302  -3.829 -10.147  0.00  0.00    -0.061 A 
ATOM     28 CLAC P47 d   1      19.892  -4.125  -9.239  0.00  0.00    -0.084 Cl
ATOM     29  CAM P47 d   1      16.304  -3.919 -11.117  0.00  0.00    -0.075 A 
ATOM     30  H13 P47 d   1      17.073  -3.455  -9.156  0.00  0.00     0.086 H 
ATOM     31  H12 P47 d   1      15.289  -3.619 -10.883  0.00  0.00     0.084 H 
ENDBRANCH  18  21
ENDBRANCH  15  18
ENDBRANCH   2  15
BRANCH   1  32
ATOM     32  CAP P47 d   1      11.476  -7.063 -14.406  0.00  0.00     0.199 C 
ATOM     33  OAA P47 d   1      11.854  -7.614 -15.478  0.00  0.00    -0.644 OA
ATOM     34  OAB P47 d   1      10.380  -7.303 -13.839  0.00  0.00    -0.644 OA
ENDBRANCH   1  32
TORSDOF 5
