REMARK WARNING: 32 MAX_TORS EXCEEDED!!!
REMARK  42 active torsions:
REMARK  status: ('A' for Active; 'I' for Inactive)
REMARK    1  A    between atoms: CA_2  and  C_3 
REMARK       I    between atoms: C_3  and  N_8 
REMARK    2  A    between atoms: N_8  and  CA_9 
REMARK    3  A    between atoms: CA_9  and  C_10 
REMARK    4  A    between atoms: CA_9  and  CB_12 
REMARK       I    between atoms: C_10  and  N_16 
REMARK    5  A    between atoms: CB_12  and  CG_13 
REMARK       I    between atoms: CG_13  and  ND2_15 
REMARK    6  A    between atoms: N_16  and  CA_17 
REMARK    7  A    between atoms: CA_17  and  C_18 
REMARK    8  A    between atoms: CA_17  and  CB_20 
REMARK       I    between atoms: C_18  and  N_24 
REMARK    9  A    between atoms: CB_20  and  CG_21 
REMARK       I    between atoms: CG_21  and  ND2_23 
REMARK   10  A    between atoms: N_24  and  CA_25 
REMARK   11  A    between atoms: CA_25  and  C_26 
REMARK   12  A    between atoms: CA_25  and  CB_28 
REMARK       I    between atoms: C_26  and  N_38 
REMARK   13  A    between atoms: CB_28  and  CG_29 
REMARK   14  A    between atoms: N_38  and  CA_39 
REMARK   15  A    between atoms: CA_39  and  C_40 
REMARK   16  A    between atoms: CA_39  and  CB_42 
REMARK       I    between atoms: C_40  and  N_43 
REMARK   17  A    between atoms: N_43  and  CA_44 
REMARK   18  A    between atoms: CA_44  and  C_45 
REMARK   19  A    between atoms: CA_44  and  CB_47 
REMARK       I    between atoms: C_45  and  N_51 
REMARK   20  A    between atoms: CB_47  and  CG_48 
REMARK   21  A    between atoms: N_51  and  CA_52 
REMARK   22  A    between atoms: CA_52  and  C_53 
REMARK   23  A    between atoms: CA_52  and  CB_55 
REMARK       I    between atoms: C_53  and  N_62 
REMARK   24  A    between atoms: CB_55  and  CG_56 
REMARK   25  A    between atoms: N_62  and  CA_63 
REMARK   26  A    between atoms: CA_63  and  C_64 
REMARK   27  A    between atoms: CA_63  and  CB_66 
REMARK       I    between atoms: C_64  and  N_68 
REMARK   28  A    between atoms: CB_66  and  OG_67 
REMARK   29  A    between atoms: N_68  and  CA_69 
REMARK   30  A    between atoms: CA_69  and  C_70 
REMARK   31  A    between atoms: CA_69  and  CB_72 
REMARK       I    between atoms: C_70  and  N_74 
REMARK   32  A    between atoms: CB_72  and  OG_73 
REMARK   33  A    between atoms: N_74  and  CA_75 
REMARK   34  A    between atoms: CA_75  and  C_76 
REMARK   35  A    between atoms: CA_75  and  CB_78 
REMARK       I    between atoms: C_76  and  N_81 
REMARK   36  A    between atoms: CB_78  and  OG1_79 
REMARK   37  A    between atoms: CB_78  and  CG2_80 
REMARK   38  A    between atoms: N_81  and  CA_82 
REMARK   39  A    between atoms: CA_82  and  C_83 
REMARK   40  A    between atoms: CA_82  and  CB_85 
REMARK       I    between atoms: C_83  and  N_95 
REMARK   41  A    between atoms: CB_85  and  CG_86 
REMARK   42  A    between atoms: CA_96  and  C_97 
ROOT
ATOM      1  CA  PHE d   1      56.104  14.455   1.591  0.00  0.00     0.093 C 
ATOM      2  H42 PHE d   1      55.813  15.516   1.575  0.00  0.00     0.088 H 
ENDROOT
BRANCH   1   3
ATOM      3  N   PHE d   1      56.342  13.973   0.243  0.00  0.00    -0.346 N 
ATOM      4  C   ASP d   1      56.121  14.702  -0.847  0.00  0.00     0.241 C 
ATOM      5  O   ASP d   1      55.540  15.803  -0.852  0.00  0.00    -0.271 OA
ATOM      6  H41 PHE d   1      56.691  13.043   0.128  0.00  0.00     0.163 HD
BRANCH   4   7
ATOM      7  CA  ASP d   1      56.572  14.037  -2.144  0.00  0.00     0.098 C 
ATOM      8  H38 ASP d   1      56.663  12.974  -1.875  0.00  0.00     0.088 H 
BRANCH   7   9
ATOM      9  N   ASP d   1      55.555  14.060  -3.192  0.00  0.00    -0.346 N 
ATOM     10  C   ALA d   1      54.787  12.984  -3.317  0.00  0.00     0.240 C 
ATOM     11  O   ALA d   1      54.842  12.029  -2.518  0.00  0.00    -0.271 OA
ATOM     12  H37 ASP d   1      55.442  14.853  -3.791  0.00  0.00     0.163 HD
BRANCH  10  13
ATOM     13  CA  ALA d   1      53.892  12.912  -4.536  0.00  0.00     0.086 C 
ATOM     14  H33 ALA d   1      53.924  13.840  -5.126  0.00  0.00     0.086 H 
BRANCH  13  15
ATOM     15  N   ALA d   1      54.484  11.790  -5.256  0.00  0.00    -0.346 N 
ATOM     16  C   TRP d   1      55.792  11.774  -5.535  0.00  0.00     0.241 C 
ATOM     17  O   TRP d   1      56.471  12.797  -5.636  0.00  0.00    -0.271 OA
ATOM     18  H32 ALA d   1      53.907  11.026  -5.544  0.00  0.00     0.163 HD
BRANCH  16  19
ATOM     19  CA  TRP d   1      56.439  10.408  -5.717  0.00  0.00     0.093 C 
ATOM     20  H23 TRP d   1      55.713   9.706  -6.153  0.00  0.00     0.088 H 
BRANCH  19  21
ATOM     21  N   TRP d   1      57.619  10.478  -6.559  0.00  0.00    -0.346 N 
ATOM     22  C   ASN d   1      57.714   9.959  -7.782  0.00  0.00     0.241 C 
ATOM     23  O   ASN d   1      56.739   9.633  -8.475  0.00  0.00    -0.271 OA
ATOM     24  H22 TRP d   1      58.421  10.951  -6.194  0.00  0.00     0.163 HD
BRANCH  22  25
ATOM     25  CA  ASN d   1      59.167   9.841  -8.296  0.00  0.00     0.097 C 
ATOM     26  H17 ASN d   1      59.731   9.474  -7.426  0.00  0.00     0.088 H 
BRANCH  25  27
ATOM     27  N   ASN d   1      59.494   8.885  -9.367  0.00  0.00    -0.346 N 
ATOM     28  C   ASN d   1      59.761   7.604  -9.106  0.00  0.00     0.241 C 
ATOM     29  O   ASN d   1      59.363   7.026  -8.092  0.00  0.00    -0.271 OA
ATOM     30  H16 ASN d   1      59.517   9.204 -10.315  0.00  0.00     0.163 HD
BRANCH  28  31
ATOM     31  CA  ASN d   1      60.590   6.849 -10.151  0.00  0.00     0.097 C 
ATOM     32  H11 ASN d   1      60.576   5.787  -9.864  0.00  0.00     0.088 H 
BRANCH  31  33
ATOM     33  N   ASN d   1      60.083   6.917 -11.533  0.00  0.00    -0.346 N 
ATOM     34  C   PRO d   1      60.810   6.484 -12.571  0.00  0.00     0.249 C 
ATOM     35  O   PRO d   1      61.979   6.081 -12.467  0.00  0.00    -0.271 OA
ATOM     36  H10 ASN d   1      59.173   7.296 -11.700  0.00  0.00     0.163 HD
BRANCH  34  37
ATOM     37  CA  PRO d   1      60.143   6.503 -13.944  0.00  0.00     0.178 C 
ATOM     38  N   PRO d   1      61.115   6.751 -15.006  0.00  0.00    -0.062 N 
ATOM     39  CD  PRO d   1      61.600   5.501 -15.629  0.00  0.00     0.083 C 
ATOM     40  H1  PRO d   1      61.902   7.245 -14.616  0.00  0.00     0.278 HD
ATOM     41  H2  PRO d   1      60.681   7.319 -15.716  0.00  0.00     0.278 HD
ATOM     42  CG  PRO d   1      60.742   4.425 -14.996  0.00  0.00    -0.040 C 
ATOM     43  H8  PRO d   1      62.664   5.337 -15.402  0.00  0.00     0.075 H 
ATOM     44  H9  PRO d   1      61.457   5.525 -16.719  0.00  0.00     0.075 H 
ATOM     45  CB  PRO d   1      59.601   5.114 -14.292  0.00  0.00    -0.028 C 
ATOM     46  H6  PRO d   1      60.352   3.750 -15.772  0.00  0.00     0.035 H 
ATOM     47  H7  PRO d   1      61.336   3.848 -14.273  0.00  0.00     0.035 H 
ATOM     48  H4  PRO d   1      58.727   5.193 -14.955  0.00  0.00     0.036 H 
ATOM     49  H5  PRO d   1      59.321   4.567 -13.380  0.00  0.00     0.036 H 
ATOM     50  H3  PRO d   1      59.343   7.258 -13.956  0.00  0.00     0.099 H 
ENDBRANCH  34  37
ENDBRANCH  31  33
BRANCH  31  51
ATOM     51  CB  ASN d   1      62.052   7.339 -10.077  0.00  0.00     0.036 C 
ATOM     52  H12 ASN d   1      62.054   8.385  -9.736  0.00  0.00     0.051 H 
ATOM     53  H13 ASN d   1      62.492   7.281 -11.083  0.00  0.00     0.051 H 
BRANCH  51  54
ATOM     54  CG  ASN d   1      62.912   6.515  -9.122  0.00  0.00     0.217 C 
ATOM     55  OD1 ASN d   1      62.425   5.971  -8.123  0.00  0.00    -0.274 OA
ATOM     56  ND2 ASN d   1      64.206   6.428  -9.429  0.00  0.00    -0.370 N 
ATOM     57  H14 ASN d   1      64.824   5.903  -8.844  0.00  0.00     0.159 HD
ATOM     58  H15 ASN d   1      64.558   6.888 -10.244  0.00  0.00     0.159 HD
ENDBRANCH  51  54
ENDBRANCH  31  51
ENDBRANCH  28  31
ENDBRANCH  25  27
BRANCH  25  59
ATOM     59  CB  ASN d   1      59.744  11.232  -8.622  0.00  0.00     0.036 C 
ATOM     60  H18 ASN d   1      60.838  11.148  -8.702  0.00  0.00     0.051 H 
ATOM     61  H19 ASN d   1      59.488  11.919  -7.802  0.00  0.00     0.051 H 
BRANCH  59  62
ATOM     62  CG  ASN d   1      59.205  11.806  -9.922  0.00  0.00     0.217 C 
ATOM     63  OD1 ASN d   1      58.410  11.168 -10.622  0.00  0.00    -0.274 OA
ATOM     64  ND2 ASN d   1      59.641  13.021 -10.253  0.00  0.00    -0.370 N 
ATOM     65  H20 ASN d   1      59.323  13.454 -11.097  0.00  0.00     0.159 HD
ATOM     66  H21 ASN d   1      60.286  13.500  -9.658  0.00  0.00     0.159 HD
ENDBRANCH  59  62
ENDBRANCH  25  59
ENDBRANCH  22  25
ENDBRANCH  19  21
BRANCH  19  67
ATOM     67  CB  TRP d   1      56.883   9.935  -4.328  0.00  0.00    -0.012 C 
ATOM     68  H24 TRP d   1      56.040  10.080  -3.636  0.00  0.00     0.044 H 
ATOM     69  H25 TRP d   1      57.729  10.563  -4.012  0.00  0.00     0.044 H 
BRANCH  67  70
ATOM     70  CG  TRP d   1      57.315   8.499  -4.234  0.00  0.00    -0.028 A 
ATOM     71  CD1 TRP d   1      57.389   7.584  -5.249  0.00  0.00    -0.015 A 
ATOM     72  NE1 TRP d   1      57.835   6.379  -4.767  0.00  0.00    -0.365 N 
ATOM     73  H26 TRP d   1      57.131   7.783  -6.288  0.00  0.00     0.112 H 
ATOM     74  CE2 TRP d   1      58.078   6.498  -3.422  0.00  0.00     0.042 A 
ATOM     75  H27 TRP d   1      57.966   5.523  -5.325  0.00  0.00     0.165 HD
ATOM     76  CD2 TRP d   1      57.764   7.822  -3.051  0.00  0.00    -0.002 A 
ATOM     77  CZ2 TRP d   1      58.545   5.554  -2.500  0.00  0.00    -0.056 A 
ATOM     78  CE3 TRP d   1      57.927   8.207  -1.709  0.00  0.00    -0.070 A 
ATOM     79  CZ3 TRP d   1      58.390   7.266  -0.790  0.00  0.00    -0.082 A 
ATOM     80  H28 TRP d   1      57.697   9.218  -1.394  0.00  0.00     0.084 H 
ATOM     81  CH2 TRP d   1      58.693   5.956  -1.193  0.00  0.00    -0.081 A 
ATOM     82  H30 TRP d   1      58.517   7.550   0.248  0.00  0.00     0.083 H 
ATOM     83  H31 TRP d   1      59.052   5.245  -0.458  0.00  0.00     0.083 H 
ATOM     84  H29 TRP d   1      58.782   4.541  -2.805  0.00  0.00     0.086 H 
ENDBRANCH  67  70
ENDBRANCH  19  67
ENDBRANCH  16  19
ENDBRANCH  13  15
BRANCH  13  85
ATOM     85  CB  ALA d   1      52.467  12.608  -4.126  0.00  0.00    -0.049 C 
ATOM     86  H34 ALA d   1      52.049  13.471  -3.587  0.00  0.00     0.030 H 
ATOM     87  H35 ALA d   1      52.455  11.725  -3.471  0.00  0.00     0.030 H 
ATOM     88  H36 ALA d   1      51.862  12.408  -5.023  0.00  0.00     0.030 H 
ENDBRANCH  13  85
ENDBRANCH  10  13
ENDBRANCH   7   9
BRANCH   7  89
ATOM     89  CB  ASP d   1      57.992  14.413  -2.655  0.00  0.00     0.043 C 
ATOM     90  H39 ASP d   1      58.002  14.314  -3.751  0.00  0.00     0.052 H 
ATOM     91  H40 ASP d   1      58.715  13.709  -2.217  0.00  0.00     0.052 H 
BRANCH  89  92
ATOM     92  CG  ASP d   1      58.429  15.834  -2.297  0.00  0.00     0.175 C 
ATOM     93  OD1 ASP d   1      59.032  16.487  -3.172  0.00  0.00    -0.648 OA
ATOM     94  OD2 ASP d   1      58.225  16.291  -1.149  0.00  0.00    -0.648 OA
ENDBRANCH  89  92
ENDBRANCH   7  89
ENDBRANCH   4   7
ENDBRANCH   1   3
BRANCH   1  95
ATOM     95  C   PHE d   1      57.434  14.274   2.307  0.00  0.00     0.241 C 
ATOM     96  O   PHE d   1      58.311  13.560   1.806  0.00  0.00    -0.271 OA
ATOM     97  N   SER d   1      57.600  14.925   3.458  0.00  0.00    -0.344 N 
ATOM     98  H50 SER d   1      56.845  15.468   3.825  0.00  0.00     0.163 HD
BRANCH  97  99
ATOM     99  CA  SER d   1      58.869  14.863   4.202  0.00  0.00     0.109 C 
ATOM    100  H51 SER d   1      59.346  13.895   3.987  0.00  0.00     0.090 H 
BRANCH  99 101
ATOM    101  C   SER d   1      58.642  14.958   5.712  0.00  0.00     0.243 C 
ATOM    102  O   SER d   1      57.920  15.846   6.176  0.00  0.00    -0.271 OA
ATOM    103  N   SER d   1      59.247  14.035   6.461  0.00  0.00    -0.344 N 
ATOM    104  H55 SER d   1      59.762  13.311   6.003  0.00  0.00     0.163 HD
BRANCH 103 105
ATOM    105  CA  SER d   1      59.191  14.034   7.931  0.00  0.00     0.109 C 
ATOM    106  H56 SER d   1      58.171  14.318   8.229  0.00  0.00     0.090 H 
BRANCH 105 107
ATOM    107  C   SER d   1      60.163  15.041   8.558  0.00  0.00     0.243 C 
ATOM    108  O   SER d   1      60.090  15.344   9.756  0.00  0.00    -0.271 OA
ATOM    109  N   THR d   1      61.078  15.551   7.744  0.00  0.00    -0.344 N 
ATOM    110  H60 THR d   1      61.109  15.248   6.792  0.00  0.00     0.163 HD
BRANCH 109 111
ATOM    111  CA  THR d   1      62.037  16.542   8.208  0.00  0.00     0.113 C 
ATOM    112  H61 THR d   1      61.768  16.794   9.245  0.00  0.00     0.091 H 
BRANCH 111 113
ATOM    113  C   THR d   1      61.896  17.839   7.389  0.00  0.00     0.243 C 
ATOM    114  O   THR d   1      60.864  18.506   7.471  0.00  0.00    -0.271 OA
ATOM    115  N   TRP d   1      62.914  18.220   6.615  0.00  0.00    -0.346 N 
ATOM    116  H67 TRP d   1      63.709  17.620   6.529  0.00  0.00     0.163 HD
BRANCH 115 117
ATOM    117  CA  TRP d   1      62.902  19.493   5.886  0.00  0.00     0.088 C 
ATOM    118  H68 TRP d   1      62.500  20.274   6.548  0.00  0.00     0.087 H 
BRANCH 117 119
ATOM    119  C   TRP d   1      62.049  19.395   4.669  0.00  0.00     0.223 C 
ATOM    120  O   TRP d   1      61.860  18.296   4.183  0.00  0.00    -0.277 OA
ATOM    121  N   PRO d   1      61.522  20.512   4.146  0.00  0.00    -0.237 NA
ATOM    122  CA  PRO d   1      61.773  21.904   4.571  0.00  0.00     0.085 C 
ATOM    123  CD  PRO d   1      60.061  20.352   4.064  0.00  0.00    -0.013 C 
ATOM    124  CB  PRO d   1      60.777  22.051   5.686  0.00  0.00    -0.039 C 
ATOM    125  H77 PRO d   1      61.407  22.516   3.734  0.00  0.00     0.081 H 
ATOM    126  CG  PRO d   1      59.562  21.444   5.024  0.00  0.00    -0.052 C 
ATOM    127  H78 PRO d   1      60.614  23.106   5.953  0.00  0.00     0.036 H 
ATOM    128  H79 PRO d   1      61.079  21.488   6.582  0.00  0.00     0.036 H 
ATOM    129  H80 PRO d   1      59.014  22.216   4.464  0.00  0.00     0.034 H 
ATOM    130  H81 PRO d   1      58.900  21.003   5.784  0.00  0.00     0.034 H 
ATOM    131  H82 PRO d   1      59.749  19.352   4.400  0.00  0.00     0.056 H 
ATOM    132  H83 PRO d   1      59.697  20.524   3.040  0.00  0.00     0.056 H 
BRANCH 122 133
ATOM    133  C   PRO d   1      63.176  22.548   4.856  0.00  0.00     0.192 C 
ATOM    134  O   PRO d   1      63.310  23.771   4.678  0.00  0.00    -0.647 OA
ATOM    135  OXT PRO d   1      64.095  21.808   5.248  0.00  0.00    -0.647 OA
ENDBRANCH 122 133
ENDBRANCH 117 119
BRANCH 117 136
ATOM    136  CB  TRP d   1      64.309  19.883   5.447  0.00  0.00    -0.012 C 
ATOM    137  H69 TRP d   1      64.280  20.887   4.999  0.00  0.00     0.043 H 
ATOM    138  H70 TRP d   1      64.666  19.159   4.700  0.00  0.00     0.043 H 
BRANCH 136 139
ATOM    139  CG  TRP d   1      65.222  19.892   6.572  0.00  0.00    -0.028 A 
ATOM    140  CD1 TRP d   1      66.078  18.926   6.933  0.00  0.00    -0.015 A 
ATOM    141  NE1 TRP d   1      66.723  19.279   8.071  0.00  0.00    -0.365 N 
ATOM    142  H71 TRP d   1      66.233  17.994   6.391  0.00  0.00     0.112 H 
ATOM    143  CE2 TRP d   1      66.277  20.512   8.452  0.00  0.00     0.042 A 
ATOM    144  H72 TRP d   1      67.429  18.714   8.564  0.00  0.00     0.165 HD
ATOM    145  CD2 TRP d   1      65.321  20.907   7.537  0.00  0.00    -0.002 A 
ATOM    146  CZ2 TRP d   1      66.604  21.276   9.529  0.00  0.00    -0.056 A 
ATOM    147  CE3 TRP d   1      64.691  22.122   7.711  0.00  0.00    -0.070 A 
ATOM    148  CZ3 TRP d   1      65.032  22.871   8.750  0.00  0.00    -0.082 A 
ATOM    149  H73 TRP d   1      63.933  22.457   7.013  0.00  0.00     0.084 H 
ATOM    150  CH2 TRP d   1      65.984  22.457   9.652  0.00  0.00    -0.081 A 
ATOM    151  H75 TRP d   1      64.550  23.831   8.892  0.00  0.00     0.083 H 
ATOM    152  H76 TRP d   1      66.239  23.103  10.484  0.00  0.00     0.083 H 
ATOM    153  H74 TRP d   1      67.335  20.943  10.257  0.00  0.00     0.086 H 
ENDBRANCH 136 139
ENDBRANCH 117 136
ENDBRANCH 115 117
ENDBRANCH 111 113
BRANCH 111 154
ATOM    154  CB  THR d   1      63.483  15.963   8.259  0.00  0.00     0.060 C 
ATOM    155  H62 THR d   1      64.200  16.793   8.348  0.00  0.00     0.086 H 
BRANCH 154 156
ATOM    156  OG1 THR d   1      63.747  15.230   7.060  0.00  0.00    -0.393 OA
ATOM    157  H63 THR d   1      64.629  14.878   7.093  0.00  0.00     0.210 HD
ENDBRANCH 154 156
BRANCH 154 158
ATOM    158  CG2 THR d   1      63.652  15.015   9.458  0.00  0.00    -0.050 C 
ATOM    159  H64 THR d   1      64.679  14.620   9.472  0.00  0.00     0.031 H 
ATOM    160  H65 THR d   1      62.940  14.181   9.369  0.00  0.00     0.031 H 
ATOM    161  H66 THR d   1      63.458  15.565  10.391  0.00  0.00     0.031 H 
ENDBRANCH 154 158
ENDBRANCH 111 154
ENDBRANCH 109 111
ENDBRANCH 105 107
BRANCH 105 162
ATOM    162  CB  SER d   1      59.478  12.635   8.471  0.00  0.00     0.044 C 
ATOM    163  H57 SER d   1      59.878  12.716   9.492  0.00  0.00     0.077 H 
ATOM    164  H58 SER d   1      60.219  12.142   7.825  0.00  0.00     0.077 H 
BRANCH 162 165
ATOM    165  OG  SER d   1      58.295  11.866   8.494  0.00  0.00    -0.398 OA
ATOM    166  H59 SER d   1      57.654  12.289   9.053  0.00  0.00     0.209 HD
ENDBRANCH 162 165
ENDBRANCH 105 162
ENDBRANCH 103 105
ENDBRANCH  99 101
BRANCH  99 167
ATOM    167  CB  SER d   1      59.807  15.979   3.737  0.00  0.00     0.044 C 
ATOM    168  H52 SER d   1      59.340  16.951   3.952  0.00  0.00     0.077 H 
ATOM    169  H53 SER d   1      59.968  15.882   2.653  0.00  0.00     0.077 H 
BRANCH 167 170
ATOM    170  OG  SER d   1      61.065  15.914   4.399  0.00  0.00    -0.398 OA
ATOM    171  H54 SER d   1      61.622  16.618   4.088  0.00  0.00     0.209 HD
ENDBRANCH 167 170
ENDBRANCH  99 167
ENDBRANCH  97  99
ENDBRANCH   1  95
BRANCH   1 172
ATOM    172  CB  PHE d   1      55.003  13.633   2.287  0.00  0.00    -0.014 C 
ATOM    173  H43 PHE d   1      54.812  14.079   3.274  0.00  0.00     0.043 H 
ATOM    174  H44 PHE d   1      55.370  12.604   2.415  0.00  0.00     0.043 H 
BRANCH 172 175
ATOM    175  CG  PHE d   1      53.705  13.578   1.538  0.00  0.00    -0.056 A 
ATOM    176  CD1 PHE d   1      52.711  14.518   1.775  0.00  0.00    -0.077 A 
ATOM    177  CE1 PHE d   1      51.521  14.483   1.073  0.00  0.00    -0.082 A 
ATOM    178  H45 PHE d   1      52.870  15.289   2.520  0.00  0.00     0.084 H 
ATOM    179  CZ  PHE d   1      51.299  13.488   0.123  0.00  0.00    -0.083 A 
ATOM    180  H47 PHE d   1      50.759  15.231   1.262  0.00  0.00     0.083 H 
ATOM    181  CE2 PHE d   1      52.276  12.542  -0.127  0.00  0.00    -0.082 A 
ATOM    182  H49 PHE d   1      50.361  13.456  -0.420  0.00  0.00     0.083 H 
ATOM    183  CD2 PHE d   1      53.478  12.583   0.587  0.00  0.00    -0.077 A 
ATOM    184  H48 PHE d   1      52.111  11.773  -0.873  0.00  0.00     0.083 H 
ATOM    185  H46 PHE d   1      54.240  11.835   0.400  0.00  0.00     0.084 H 
ENDBRANCH 172 175
ENDBRANCH   1 172
TORSDOF 42
