REMARK  11 active torsions:
REMARK  status: ('A' for Active; 'I' for Inactive)
REMARK    1  A    between atoms: PG_1  and  S3G_4 
REMARK    2  A    between atoms: O3B_8  and  PG_1 
REMARK    3  A    between atoms: PB_5  and  O3B_8 
REMARK    4  A    between atoms: O3A_12  and  PB_5 
REMARK    5  A    between atoms: PA_9  and  O3A_12 
REMARK    6  A    between atoms: PA_9  and  O5'_13 
REMARK    7  A    between atoms: O5'_13  and  C5'_14 
REMARK    8  A    between atoms: C5'_14  and  C4'_15 
REMARK    9  A    between atoms: C3'_17  and  O3'_18 
REMARK   10  A    between atoms: C2'_19  and  O2'_20 
REMARK   11  A    between atoms: C1'_21  and  N9_22 
ROOT
ATOM      1  C4' AGS d   1       2.704  49.265  -7.429  0.00  0.00     0.089 C 
ATOM      2  O4' AGS d   1       1.516  48.943  -6.709  0.00  0.00    -0.353 OA
ATOM      3  C3' AGS d   1       3.089  50.687  -7.069  0.00  0.00     0.091 C 
ATOM      4  C2' AGS d   1       1.782  51.297  -6.659  0.00  0.00     0.105 C 
ATOM      5  C1' AGS d   1       0.947  50.121  -6.175  0.00  0.00     0.139 C 
ATOM      6  H   AGS d   1       2.542  49.226  -8.506  0.00  0.00     0.090 H 
ATOM      7  H   AGS d   1       3.856  50.742  -6.296  0.00  0.00     0.091 H 
ATOM      8  H   AGS d   1       1.916  52.073  -5.905  0.00  0.00     0.093 H 
ATOM      9  H   AGS d   1      -0.087  50.261  -6.489  0.00  0.00     0.122 H 
ENDROOT
BRANCH   1  10
ATOM     10  C5' AGS d   1       3.790  48.234  -7.182  0.00  0.00     0.058 C 
ATOM     11  H   AGS d   1       3.398  47.243  -7.409  0.00  0.00     0.079 H 
ATOM     12  H   AGS d   1       4.645  48.458  -7.820  0.00  0.00     0.079 H 
BRANCH  10  13
ATOM     13  O5' AGS d   1       4.195  48.268  -5.851  0.00  0.00    -0.287 OA
BRANCH  13  14
ATOM     14  PA  AGS d   1       5.721  48.252  -5.472  0.00  0.00     0.417 P 
ATOM     15  O1A AGS d   1       6.019  49.515  -4.724  0.00  0.00    -0.624 OA
ATOM     16  O2A AGS d   1       6.582  47.908  -6.632  0.00  0.00    -0.624 OA
BRANCH  14  17
ATOM     17  O3A AGS d   1       5.704  47.014  -4.462  0.00  0.00    -0.180 OA
BRANCH  17  18
ATOM     18  PB  AGS d   1       6.999  46.408  -3.758  0.00  0.00     0.426 P 
ATOM     19  O1B AGS d   1       8.225  47.172  -4.187  0.00  0.00    -0.624 OA
ATOM     20  O2B AGS d   1       6.633  46.288  -2.305  0.00  0.00    -0.624 OA
BRANCH  18  21
ATOM     21  O3B AGS d   1       7.101  44.929  -4.343  0.00  0.00    -0.195 OA
BRANCH  21  22
ATOM     22  PG  AGS d   1       8.478  44.081  -4.448  0.00  0.00     0.322 P 
ATOM     23  O1G AGS d   1       8.920  43.564  -3.105  0.00  0.00    -0.638 OA
ATOM     24  O2G AGS d   1       9.432  44.828  -5.322  0.00  0.00    -0.638 OA
BRANCH  22  25
ATOM     25  S3G AGS d   1       7.918  42.445  -5.462  0.00  0.00    -0.054 SA
ATOM     26  H   AGS d   1       7.064  41.740  -4.726  0.00  0.00     0.114 HD
ENDBRANCH  22  25
ENDBRANCH  21  22
ENDBRANCH  18  21
ENDBRANCH  17  18
ENDBRANCH  14  17
ENDBRANCH  13  14
ENDBRANCH  10  13
ENDBRANCH   1  10
BRANCH   3  27
ATOM     27  O3' AGS d   1       3.615  51.364  -8.201  0.00  0.00    -0.390 OA
ATOM     28  H   AGS d   1       2.952  51.387  -8.895  0.00  0.00     0.210 HD
ENDBRANCH   3  27
BRANCH   5  29
ATOM     29  N9  AGS d   1       1.002  50.013  -4.699  0.00  0.00    -0.294 N 
ATOM     30  C8  AGS d   1       1.496  48.959  -4.011  0.00  0.00     0.071 A 
ATOM     31  N7  AGS d   1       1.358  49.159  -2.673  0.00  0.00    -0.236 NA
ATOM     32  H   AGS d   1       1.942  48.074  -4.465  0.00  0.00     0.144 H 
ATOM     33  C5  AGS d   1       0.796  50.358  -2.492  0.00  0.00     0.149 A 
ATOM     34  C6  AGS d   1       0.329  51.156  -1.325  0.00  0.00     0.155 A 
ATOM     35  C4  AGS d   1       0.544  50.913  -3.817  0.00  0.00     0.167 A 
ATOM     36  N6  AGS d   1       0.485  50.696  -0.050  0.00  0.00    -0.382 N 
ATOM     37  N1  AGS d   1      -0.237  52.369  -1.568  0.00  0.00    -0.222 NA
ATOM     38  H   AGS d   1       0.928  49.792   0.116  0.00  0.00     0.157 HD
ATOM     39  H   AGS d   1       0.159  51.256   0.738  0.00  0.00     0.157 HD
ATOM     40  C2  AGS d   1      -0.446  52.823  -2.820  0.00  0.00     0.091 A 
ATOM     41  N3  AGS d   1      -0.061  52.131  -3.912  0.00  0.00    -0.222 NA
ATOM     42  H   AGS d   1      -0.944  53.783  -2.955  0.00  0.00     0.146 H 
ENDBRANCH   5  29
BRANCH   4  43
ATOM     43  O2' AGS d   1       1.127  51.892  -7.795  0.00  0.00    -0.388 OA
ATOM     44  H   AGS d   1       1.689  52.576  -8.165  0.00  0.00     0.210 HD
ENDBRANCH   4  43
TORSDOF 11
