REMARK  11 active torsions:
REMARK  status: ('A' for Active; 'I' for Inactive)
REMARK    1  A    between atoms: PG_1  and  S3G_4 
REMARK    2  A    between atoms: O3B_8  and  PG_1 
REMARK    3  A    between atoms: PB_5  and  O3B_8 
REMARK    4  A    between atoms: O3A_12  and  PB_5 
REMARK    5  A    between atoms: PA_9  and  O3A_12 
REMARK    6  A    between atoms: PA_9  and  O5'_13 
REMARK    7  A    between atoms: O5'_13  and  C5'_14 
REMARK    8  A    between atoms: C5'_14  and  C4'_15 
REMARK    9  A    between atoms: C3'_17  and  O3'_18 
REMARK   10  A    between atoms: C2'_19  and  O2'_20 
REMARK   11  A    between atoms: C1'_21  and  N9_22 
ROOT
ATOM      1  C4' AGS d   1      -8.289  49.605  -7.323  0.00  0.00     0.089 C 
ATOM      2  O4' AGS d   1      -9.448  49.276  -6.589  0.00  0.00    -0.353 OA
ATOM      3  C3' AGS d   1      -7.949  51.043  -7.006  0.00  0.00     0.091 C 
ATOM      4  C2' AGS d   1      -9.248  51.641  -6.560  0.00  0.00     0.105 C 
ATOM      5  C1' AGS d   1     -10.055  50.452  -6.072  0.00  0.00     0.139 C 
ATOM      6  H   AGS d   1      -8.442  49.525  -8.399  0.00  0.00     0.090 H 
ATOM      7  H   AGS d   1      -7.178  51.145  -6.243  0.00  0.00     0.091 H 
ATOM      8  H   AGS d   1      -9.101  52.418  -5.809  0.00  0.00     0.093 H 
ATOM      9  H   AGS d   1     -11.087  50.574  -6.401  0.00  0.00     0.122 H 
ENDROOT
BRANCH   1  10
ATOM     10  C5' AGS d   1      -7.180  48.622  -6.998  0.00  0.00     0.058 C 
ATOM     11  H   AGS d   1      -7.584  47.614  -7.093  0.00  0.00     0.079 H 
ATOM     12  H   AGS d   1      -6.354  48.805  -7.686  0.00  0.00     0.079 H 
BRANCH  10  13
ATOM     13  O5' AGS d   1      -6.692  48.777  -5.674  0.00  0.00    -0.287 OA
BRANCH  13  14
ATOM     14  PA  AGS d   1      -5.136  48.715  -5.397  0.00  0.00     0.417 P 
ATOM     15  O1A AGS d   1      -4.792  49.705  -4.334  0.00  0.00    -0.624 OA
ATOM     16  O2A AGS d   1      -4.445  48.758  -6.688  0.00  0.00    -0.624 OA
BRANCH  14  17
ATOM     17  O3A AGS d   1      -5.049  47.251  -4.781  0.00  0.00    -0.180 OA
BRANCH  17  18
ATOM     18  PB  AGS d   1      -3.940  46.781  -3.726  0.00  0.00     0.426 P 
ATOM     19  O1B AGS d   1      -2.678  47.466  -4.117  0.00  0.00    -0.624 OA
ATOM     20  O2B AGS d   1      -4.463  46.847  -2.328  0.00  0.00    -0.624 OA
BRANCH  18  21
ATOM     21  O3B AGS d   1      -3.867  45.226  -3.989  0.00  0.00    -0.195 OA
BRANCH  21  22
ATOM     22  PG  AGS d   1      -2.598  44.366  -4.433  0.00  0.00     0.322 P 
ATOM     23  O1G AGS d   1      -2.050  43.663  -3.218  0.00  0.00    -0.638 OA
ATOM     24  O2G AGS d   1      -1.677  45.158  -5.309  0.00  0.00    -0.638 OA
BRANCH  22  25
ATOM     25  S3G AGS d   1      -3.507  42.994  -5.586  0.00  0.00    -0.054 SA
ATOM     26  H   AGS d   1      -4.336  42.269  -4.840  0.00  0.00     0.114 HD
ENDBRANCH  22  25
ENDBRANCH  21  22
ENDBRANCH  18  21
ENDBRANCH  17  18
ENDBRANCH  14  17
ENDBRANCH  13  14
ENDBRANCH  10  13
ENDBRANCH   1  10
BRANCH   3  27
ATOM     27  O3' AGS d   1      -7.443  51.690  -8.167  0.00  0.00    -0.390 OA
ATOM     28  H   AGS d   1      -8.107  51.667  -8.860  0.00  0.00     0.210 HD
ENDBRANCH   3  27
BRANCH   5  29
ATOM     29  N9  AGS d   1     -10.025  50.346  -4.599  0.00  0.00    -0.294 N 
ATOM     30  C8  AGS d   1      -9.486  49.323  -3.928  0.00  0.00     0.071 A 
ATOM     31  N7  AGS d   1      -9.646  49.491  -2.597  0.00  0.00    -0.236 NA
ATOM     32  H   AGS d   1      -8.987  48.472  -4.391  0.00  0.00     0.144 H 
ATOM     33  C5  AGS d   1     -10.238  50.658  -2.394  0.00  0.00     0.149 A 
ATOM     34  C6  AGS d   1     -10.691  51.428  -1.210  0.00  0.00     0.155 A 
ATOM     35  C4  AGS d   1     -10.499  51.229  -3.706  0.00  0.00     0.167 A 
ATOM     36  N6  AGS d   1     -10.506  50.947   0.037  0.00  0.00    -0.382 N 
ATOM     37  N1  AGS d   1     -11.290  52.624  -1.407  0.00  0.00    -0.222 NA
ATOM     38  H   AGS d   1     -10.050  50.045   0.173  0.00  0.00     0.157 HD
ATOM     39  H   AGS d   1     -10.822  51.486   0.844  0.00  0.00     0.157 HD
ATOM     40  C2  AGS d   1     -11.500  53.106  -2.654  0.00  0.00     0.091 A 
ATOM     41  N3  AGS d   1     -11.116  52.446  -3.771  0.00  0.00    -0.222 NA
ATOM     42  H   AGS d   1     -12.000  54.068  -2.763  0.00  0.00     0.146 H 
ENDBRANCH   5  29
BRANCH   4  43
ATOM     43  O2' AGS d   1      -9.941  52.219  -7.674  0.00  0.00    -0.388 OA
ATOM     44  H   AGS d   1     -10.770  52.597  -7.372  0.00  0.00     0.210 HD
ENDBRANCH   4  43
TORSDOF 11
