REMARK  11 active torsions:
REMARK  status: ('A' for Active; 'I' for Inactive)
REMARK    1  A    between atoms: CBB_3  and  NAE_4 
REMARK    2  A    between atoms: CBF_11  and  NAY_12 
REMARK    3  A    between atoms: NAY_12  and  CBD_13 
REMARK    4  A    between atoms: CBC_18  and  NAW_19 
REMARK       I    between atoms: NAW_19  and  CAZ_20 
REMARK       I    between atoms: CAZ_20  and  NAX_22 
REMARK    5  A    between atoms: NAX_22  and  CBH_23 
REMARK    6  A    between atoms: CBG_25  and  CBL_26 
REMARK    7  A    between atoms: CBL_26  and  CAC_27 
REMARK    8  A    between atoms: CBL_26  and  CAD_28 
REMARK    9  A    between atoms: CBL_26  and  CAB_29 
REMARK   10  A    between atoms: NBK_31  and  CBE_32 
REMARK   11  A    between atoms: CBA_35  and  CAA_36 
ROOT
ATOM      1  NAW L51 d   1      13.839  -4.625   0.194  0.00  0.00    -0.309 N 
ATOM      2  CAZ L51 d   1      15.111  -4.933   0.393  0.00  0.00     0.326 C 
ATOM      3  OAF L51 d   1      15.798  -4.419   1.278  0.00  0.00    -0.247 OA
ATOM      4  NAX L51 d   1      15.599  -5.802  -0.497  0.00  0.00    -0.293 N 
ATOM      5  H   L51 d   1      13.392  -5.106  -0.587  0.00  0.00     0.170 HD
ATOM      6  H   L51 d   1      14.977  -6.070  -1.259  0.00  0.00     0.172 HD
ENDROOT
BRANCH   4   7
ATOM      7  CBH L51 d   1      16.852  -6.375  -0.496  0.00  0.00     0.135 A 
ATOM      8  CAS L51 d   1      17.588  -6.591   0.594  0.00  0.00    -0.012 A 
ATOM      9  CBG L51 d   1      18.666  -7.244   0.156  0.00  0.00     0.066 A 
ATOM     10  H   L51 d   1      17.359  -6.298   1.619  0.00  0.00     0.092 H 
ATOM     11  NAV L51 d   1      18.575  -7.467  -1.147  0.00  0.00    -0.169 NA
ATOM     12  NBK L51 d   1      17.506  -6.965  -1.526  0.00  0.00    -0.217 N 
BRANCH   9  13
ATOM     13  CBL L51 d   1      19.848  -7.720   1.035  0.00  0.00    -0.005 C 
BRANCH  13  14
ATOM     14  CAC L51 d   1      20.405  -6.560   1.864  0.00  0.00    -0.064 C 
ATOM     15  H   L51 d   1      20.756  -5.773   1.196  0.00  0.00     0.028 H 
ATOM     16  H   L51 d   1      19.620  -6.167   2.510  0.00  0.00     0.028 H 
ATOM     17  H   L51 d   1      21.235  -6.917   2.474  0.00  0.00     0.028 H 
ENDBRANCH  13  14
BRANCH  13  18
ATOM     18  CAD L51 d   1      19.372  -8.813   1.986  0.00  0.00    -0.064 C 
ATOM     19  H   L51 d   1      18.581  -8.418   2.624  0.00  0.00     0.028 H 
ATOM     20  H   L51 d   1      18.988  -9.654   1.408  0.00  0.00     0.028 H 
ATOM     21  H   L51 d   1      20.207  -9.145   2.603  0.00  0.00     0.028 H 
ENDBRANCH  13  18
BRANCH  13  22
ATOM     22  CAB L51 d   1      20.903  -8.313   0.132  0.00  0.00    -0.064 C 
ATOM     23  H   L51 d   1      20.480  -9.156  -0.414  0.00  0.00     0.028 H 
ATOM     24  H   L51 d   1      21.243  -7.555  -0.574  0.00  0.00     0.028 H 
ATOM     25  H   L51 d   1      21.745  -8.654   0.734  0.00  0.00     0.028 H 
ENDBRANCH  13  22
ENDBRANCH   9  13
BRANCH  12  26
ATOM     26  CBE L51 d   1      17.069  -7.060  -2.796  0.00  0.00     0.060 A 
ATOM     27  CAO L51 d   1      17.217  -8.304  -3.426  0.00  0.00    -0.055 A 
ATOM     28  CAK L51 d   1      16.791  -8.514  -4.748  0.00  0.00    -0.075 A 
ATOM     29  H   L51 d   1      17.673  -9.128  -2.877  0.00  0.00     0.087 H 
ATOM     30  CBA L51 d   1      16.183  -7.450  -5.400  0.00  0.00    -0.062 A 
ATOM     31  H   L51 d   1      16.932  -9.475  -5.243  0.00  0.00     0.084 H 
ATOM     32  CAL L51 d   1      16.009  -6.212  -4.769  0.00  0.00    -0.075 A 
ATOM     33  CAP L51 d   1      16.459  -6.007  -3.473  0.00  0.00    -0.055 A 
ATOM     34  H   L51 d   1      15.514  -5.400  -5.302  0.00  0.00     0.084 H 
ATOM     35  H   L51 d   1      16.337  -5.037  -2.992  0.00  0.00     0.087 H 
BRANCH  30  36
ATOM     36  CAA L51 d   1      15.709  -7.636  -6.829  0.00  0.00    -0.051 C 
ATOM     37  H   L51 d   1      16.558  -7.895  -7.461  0.00  0.00     0.033 H 
ATOM     38  H   L51 d   1      14.970  -8.437  -6.864  0.00  0.00     0.033 H 
ATOM     39  H   L51 d   1      15.259  -6.709  -7.185  0.00  0.00     0.033 H 
ENDBRANCH  30  36
ENDBRANCH  12  26
ENDBRANCH   4   7
BRANCH   1  40
ATOM     40  CBC L51 d   1      13.051  -3.773   0.869  0.00  0.00     0.038 A 
ATOM     41  CAR L51 d   1      13.361  -2.443   1.157  0.00  0.00    -0.031 A 
ATOM     42  CBD L51 d   1      12.426  -1.633   1.868  0.00  0.00     0.034 A 
ATOM     43  H   L51 d   1      14.316  -2.024   0.839  0.00  0.00     0.090 H 
ATOM     44  CAJ L51 d   1      11.203  -2.164   2.300  0.00  0.00    -0.057 A 
ATOM     45  CAG L51 d   1      10.927  -3.488   2.013  0.00  0.00    -0.079 A 
ATOM     46  H   L51 d   1      10.489  -1.550   2.848  0.00  0.00     0.086 H 
ATOM     47  CAI L51 d   1      11.830  -4.266   1.303  0.00  0.00    -0.057 A 
ATOM     48  H   L51 d   1       9.987  -3.926   2.349  0.00  0.00     0.083 H 
ATOM     49  H   L51 d   1      11.570  -5.301   1.079  0.00  0.00     0.086 H 
BRANCH  42  50
ATOM     50  NAY L51 d   1      12.710  -0.334   2.130  0.00  0.00    -0.355 N 
ATOM     51  H   L51 d   1      12.917   0.283   1.344  0.00  0.00     0.166 HD
BRANCH  50  52
ATOM     52  CBF L51 d   1      12.734   0.182   3.361  0.00  0.00     0.046 A 
ATOM     53  CBJ L51 d   1      12.516   1.560   3.557  0.00  0.00     0.021 A 
ATOM     54  CAT L51 d   1      12.268   2.455   2.486  0.00  0.00    -0.043 A 
ATOM     55  CBI L51 d   1      12.549   2.052   4.882  0.00  0.00     0.069 A 
ATOM     56  CBB L51 d   1      12.063   3.836   2.744  0.00  0.00     0.026 A 
ATOM     57  H   L51 d   1      12.235   2.082   1.462  0.00  0.00     0.088 H 
ATOM     58  CAN L51 d   1      12.108   4.306   4.065  0.00  0.00    -0.056 A 
ATOM     59  CAQ L51 d   1      12.358   3.423   5.123  0.00  0.00    -0.052 A 
ATOM     60  H   L51 d   1      11.947   5.365   4.269  0.00  0.00     0.087 H 
ATOM     61  H   L51 d   1      12.405   3.803   6.144  0.00  0.00     0.087 H 
ATOM     62  NAU L51 d   1      12.792   1.216   5.920  0.00  0.00    -0.260 NA
ATOM     63  CAH L51 d   1      13.005  -0.085   5.734  0.00  0.00     0.005 A 
ATOM     64  CAM L51 d   1      12.974  -0.641   4.466  0.00  0.00    -0.039 A 
ATOM     65  H   L51 d   1      13.207  -0.723   6.594  0.00  0.00     0.114 H 
ATOM     66  H   L51 d   1      13.135  -1.710   4.330  0.00  0.00     0.089 H 
BRANCH  56  67
ATOM     67  NAE L51 d   1      11.803   4.716   1.756  0.00  0.00    -0.399 N 
ATOM     68  H   L51 d   1      11.644   5.699   1.977  0.00  0.00     0.156 HD
ATOM     69  H   L51 d   1      11.765   4.399   0.787  0.00  0.00     0.156 HD
ENDBRANCH  56  67
ENDBRANCH  50  52
ENDBRANCH  42  50
ENDBRANCH   1  40
TORSDOF 11
