REMARK  11 active torsions:
REMARK  status: ('A' for Active; 'I' for Inactive)
REMARK    1  A    between atoms: C1_1  and  N38_14 
REMARK    2  A    between atoms: N9_18  and  C8_7 
REMARK    3  A    between atoms: C12_10  and  N9_18 
REMARK    4  A    between atoms: C14_12  and  N18_21 
REMARK       I    between atoms: N18_21  and  C19_22 
REMARK       I    between atoms: C19_22  and  N21_24 
REMARK    5  A    between atoms: N21_24  and  C22_25 
REMARK    6  A    between atoms: C25_27  and  C27_28 
REMARK    7  A    between atoms: C27_28  and  C29_29 
REMARK    8  A    between atoms: C27_28  and  C30_30 
REMARK    9  A    between atoms: C27_28  and  C28_31 
REMARK   10  A    between atoms: N23_33  and  C31_34 
REMARK   11  A    between atoms: C34_37  and  C37_38 
ROOT
ATOM      1  N18 R24 d   1      13.879  -4.633  -0.155  0.00  0.00    -0.309 N 
ATOM      2  C19 R24 d   1      15.141  -4.908   0.091  0.00  0.00     0.326 C 
ATOM      3  O20 R24 d   1      15.751  -4.419   1.037  0.00  0.00    -0.247 OA
ATOM      4  N21 R24 d   1      15.680  -5.748  -0.796  0.00  0.00    -0.293 N 
ATOM      5  H11 R24 d   1      13.493  -5.062  -0.972  0.00  0.00     0.170 HD
ATOM      6  H12 R24 d   1      15.095  -5.995  -1.569  0.00  0.00     0.172 HD
ENDROOT
BRANCH   4   7
ATOM      7  C22 R24 d   1      16.911  -6.311  -0.791  0.00  0.00     0.135 A 
ATOM      8  C26 R24 d   1      17.702  -6.518   0.284  0.00  0.00    -0.012 A 
ATOM      9  C25 R24 d   1      18.759  -7.224  -0.175  0.00  0.00     0.066 A 
ATOM     10  H13 R24 d   1      17.525  -6.186   1.306  0.00  0.00     0.092 H 
ATOM     11  N24 R24 d   1      18.578  -7.453  -1.464  0.00  0.00    -0.169 NA
ATOM     12  N23 R24 d   1      17.485  -6.969  -1.812  0.00  0.00    -0.217 N 
BRANCH   9  13
ATOM     13  C27 R24 d   1      20.007  -7.685   0.629  0.00  0.00    -0.005 C 
BRANCH  13  14
ATOM     14  C29 R24 d   1      19.513  -8.842   1.471  0.00  0.00    -0.064 C 
ATOM     15  H14 R24 d   1      20.342  -9.233   2.079  0.00  0.00     0.028 H 
ATOM     16  H15 R24 d   1      19.133  -9.638   0.814  0.00  0.00     0.028 H 
ATOM     17  H16 R24 d   1      18.705  -8.496   2.132  0.00  0.00     0.028 H 
ENDBRANCH  13  14
BRANCH  13  18
ATOM     18  C30 R24 d   1      20.581  -6.551   1.489  0.00  0.00    -0.064 C 
ATOM     19  H17 R24 d   1      20.926  -5.735   0.837  0.00  0.00     0.028 H 
ATOM     20  H18 R24 d   1      21.427  -6.931   2.080  0.00  0.00     0.028 H 
ATOM     21  H19 R24 d   1      19.801  -6.174   2.167  0.00  0.00     0.028 H 
ENDBRANCH  13  18
BRANCH  13  22
ATOM     22  C28 R24 d   1      21.169  -8.216  -0.219  0.00  0.00    -0.064 C 
ATOM     23  H20 R24 d   1      20.811  -9.036  -0.859  0.00  0.00     0.028 H 
ATOM     24  H21 R24 d   1      21.966  -8.588   0.442  0.00  0.00     0.028 H 
ATOM     25  H22 R24 d   1      21.564  -7.405  -0.849  0.00  0.00     0.028 H 
ENDBRANCH  13  22
ENDBRANCH   9  13
BRANCH  12  26
ATOM     26  C31 R24 d   1      17.040  -7.099  -3.065  0.00  0.00     0.060 A 
ATOM     27  C32 R24 d   1      16.530  -6.028  -3.801  0.00  0.00    -0.055 A 
ATOM     28  C33 R24 d   1      16.100  -6.226  -5.121  0.00  0.00    -0.075 A 
ATOM     29  H23 R24 d   1      16.466  -5.043  -3.352  0.00  0.00     0.087 H 
ATOM     30  C34 R24 d   1      16.176  -7.479  -5.704  0.00  0.00    -0.062 A 
ATOM     31  H24 R24 d   1      15.705  -5.391  -5.689  0.00  0.00     0.084 H 
ATOM     32  C35 R24 d   1      16.693  -8.559  -4.990  0.00  0.00    -0.075 A 
ATOM     33  C36 R24 d   1      17.121  -8.384  -3.654  0.00  0.00    -0.055 A 
ATOM     34  H28 R24 d   1      16.767  -9.533  -5.459  0.00  0.00     0.084 H 
ATOM     35  H29 R24 d   1      17.507  -9.224  -3.087  0.00  0.00     0.087 H 
BRANCH  30  36
ATOM     36  C37 R24 d   1      15.703  -7.664  -7.152  0.00  0.00    -0.051 C 
ATOM     37  H25 R24 d   1      15.835  -8.715  -7.449  0.00  0.00     0.033 H 
ATOM     38  H26 R24 d   1      16.295  -7.018  -7.817  0.00  0.00     0.033 H 
ATOM     39  H27 R24 d   1      14.640  -7.392  -7.228  0.00  0.00     0.033 H 
ENDBRANCH  30  36
ENDBRANCH  12  26
ENDBRANCH   4   7
BRANCH   1  40
ATOM     40  C14 R24 d   1      13.039  -3.853   0.545  0.00  0.00     0.038 A 
ATOM     41  C13 R24 d   1      13.219  -2.497   0.833  0.00  0.00    -0.031 A 
ATOM     42  C12 R24 d   1      12.226  -1.800   1.569  0.00  0.00     0.034 A 
ATOM     43  H6  R24 d   1      14.111  -1.981   0.496  0.00  0.00     0.090 H 
ATOM     44  C17 R24 d   1      11.089  -2.485   2.020  0.00  0.00    -0.057 A 
ATOM     45  C16 R24 d   1      10.926  -3.848   1.758  0.00  0.00    -0.079 A 
ATOM     46  H9  R24 d   1      10.328  -1.952   2.578  0.00  0.00     0.086 H 
ATOM     47  C15 R24 d   1      11.888  -4.521   1.008  0.00  0.00    -0.057 A 
ATOM     48  H10 R24 d   1      10.058  -4.377   2.135  0.00  0.00     0.083 H 
ATOM     49  H7  R24 d   1      11.749  -5.571   0.778  0.00  0.00     0.086 H 
BRANCH  42  50
ATOM     50  N9  R24 d   1      12.383  -0.474   1.823  0.00  0.00    -0.355 N 
ATOM     51  H8  R24 d   1      12.598   0.135   1.021  0.00  0.00     0.166 HD
BRANCH  50  52
ATOM     52  C8  R24 d   1      12.281   0.123   3.048  0.00  0.00     0.046 A 
ATOM     53  C5  R24 d   1      12.127   1.523   3.150  0.00  0.00     0.022 A 
ATOM     54  C4  R24 d   1      12.045   2.328   2.014  0.00  0.00    -0.037 A 
ATOM     55  C6  R24 d   1      12.006   2.114   4.419  0.00  0.00     0.069 A 
ATOM     56  C1  R24 d   1      11.837   3.714   2.151  0.00  0.00     0.103 A 
ATOM     57  H3  R24 d   1      12.141   1.888   1.028  0.00  0.00     0.088 H 
ATOM     58  C2  R24 d   1      11.747   4.291   3.419  0.00  0.00    -0.049 A 
ATOM     59  C3  R24 d   1      11.823   3.491   4.550  0.00  0.00    -0.052 A 
ATOM     60  H1  R24 d   1      11.618   5.363   3.520  0.00  0.00     0.087 H 
ATOM     61  H2  R24 d   1      11.740   3.936   5.535  0.00  0.00     0.087 H 
ATOM     62  N7  R24 d   1      12.088   1.380   5.529  0.00  0.00    -0.260 NA
ATOM     63  C11 R24 d   1      12.276   0.066   5.469  0.00  0.00     0.005 A 
ATOM     64  C10 R24 d   1      12.385  -0.594   4.241  0.00  0.00    -0.039 A 
ATOM     65  H5  R24 d   1      12.346  -0.504   6.388  0.00  0.00     0.114 H 
ATOM     66  H4  R24 d   1      12.551  -1.665   4.215  0.00  0.00     0.089 H 
BRANCH  56  67
ATOM     67  N38 R24 d   1      11.740   4.562   1.092  0.00  0.00    -0.116 N 
ATOM     68  O40 R24 d   1      11.506   5.880   1.350  0.00  0.00    -0.532 OA
ATOM     69  O39 R24 d   1      11.847   4.180  -0.212  0.00  0.00    -0.532 OA
ENDBRANCH  56  67
ENDBRANCH  50  52
ENDBRANCH  42  50
ENDBRANCH   1  40
TORSDOF 11
