REMARK  12 active torsions:
REMARK  status: ('A' for Active; 'I' for Inactive)
REMARK    1  A    between atoms: NBG_6  and  CAT_7 
REMARK    2  A    between atoms: CAT_7  and  CAQ_8 
REMARK    3  A    between atoms: CAQ_8  and  OAY_9 
REMARK    4  A    between atoms: OAY_9  and  CBC_10 
REMARK    5  A    between atoms: CBB_15  and  NAV_16 
REMARK       I    between atoms: NAV_16  and  CAZ_17 
REMARK       I    between atoms: CAZ_17  and  NAW_19 
REMARK    6  A    between atoms: NAW_19  and  CBE_20 
REMARK    7  A    between atoms: CBF_22  and  CBI_23 
REMARK    8  A    between atoms: CBI_23  and  CAC_24 
REMARK    9  A    between atoms: CBI_23  and  CAD_25 
REMARK   10  A    between atoms: CBI_23  and  CAB_26 
REMARK   11  A    between atoms: NBH_28  and  CBD_29 
REMARK   12  A    between atoms: CBA_32  and  CAA_33 
ROOT
ATOM      1  NAV R39 d   1      -2.142  -3.390 -16.033  0.00  0.00    -0.309 N 
ATOM      2  CAZ R39 d   1      -0.930  -3.236 -15.531  0.00  0.00     0.326 C 
ATOM      3  OAE R39 d   1      -0.132  -2.443 -16.043  0.00  0.00    -0.247 OA
ATOM      4  NAW R39 d   1      -0.637  -3.928 -14.411  0.00  0.00    -0.293 N 
ATOM      5  H   R39 d   1      -2.799  -3.993 -15.538  0.00  0.00     0.170 HD
ATOM      6  H   R39 d   1      -1.361  -4.540 -14.034  0.00  0.00     0.172 HD
ENDROOT
BRANCH   1   7
ATOM      7  CBB R39 d   1      -2.556  -2.784 -17.176  0.00  0.00     0.036 A 
ATOM      8  CAI R39 d   1      -3.472  -1.764 -17.172  0.00  0.00    -0.054 A 
ATOM      9  CAK R39 d   1      -3.883  -1.184 -18.369  0.00  0.00    -0.049 A 
ATOM     10  H   R39 d   1      -3.880  -1.405 -16.227  0.00  0.00     0.087 H 
ATOM     11  CBC R39 d   1      -3.370  -1.602 -19.583  0.00  0.00     0.069 A 
ATOM     12  H   R39 d   1      -4.624  -0.385 -18.349  0.00  0.00     0.087 H 
ATOM     13  CAJ R39 d   1      -2.436  -2.634 -19.609  0.00  0.00    -0.049 A 
ATOM     14  CAH R39 d   1      -2.043  -3.213 -18.401  0.00  0.00    -0.054 A 
ATOM     15  H   R39 d   1      -2.020  -2.983 -20.554  0.00  0.00     0.087 H 
ATOM     16  H   R39 d   1      -1.314  -4.024 -18.415  0.00  0.00     0.087 H 
BRANCH  11  17
ATOM     17  OAY R39 d   1      -3.834  -0.969 -20.696  0.00  0.00    -0.349 OA
BRANCH  17  18
ATOM     18  CAQ R39 d   1      -3.189  -1.375 -21.920  0.00  0.00     0.051 C 
ATOM     19  H   R39 d   1      -2.136  -1.616 -21.775  0.00  0.00     0.077 H 
ATOM     20  H   R39 d   1      -3.610  -2.294 -22.327  0.00  0.00     0.077 H 
BRANCH  18  21
ATOM     21  CAT R39 d   1      -3.390  -0.185 -22.844  0.00  0.00     0.133 C 
ATOM     22  H   R39 d   1      -3.303  -0.503 -23.883  0.00  0.00     0.083 H 
ATOM     23  H   R39 d   1      -4.383   0.239 -22.692  0.00  0.00     0.083 H 
BRANCH  21  24
ATOM     24  NBG R39 d   1      -2.371   0.814 -22.543  0.00  0.00     0.094 N 
ATOM     25  CAR R39 d   1      -2.012   1.464 -23.827  0.00  0.00     0.133 C 
ATOM     26  CAO R39 d   1      -2.500   2.923 -23.837  0.00  0.00     0.044 C 
ATOM     27  H   R39 d   1      -0.928   1.449 -23.944  0.00  0.00     0.083 H 
ATOM     28  H   R39 d   1      -2.486   0.923 -24.646  0.00  0.00     0.083 H 
ATOM     29  OAX R39 d   1      -1.825   3.618 -22.758  0.00  0.00    -0.388 OA
ATOM     30  H   R39 d   1      -3.580   2.964 -23.699  0.00  0.00     0.077 H 
ATOM     31  H   R39 d   1      -2.273   3.394 -24.794  0.00  0.00     0.077 H 
ATOM     32  CAP R39 d   1      -1.995   3.032 -21.449  0.00  0.00     0.044 C 
ATOM     33  CAS R39 d   1      -2.837   1.739 -21.482  0.00  0.00     0.133 C 
ATOM     34  H   R39 d   1      -2.517   3.756 -20.823  0.00  0.00     0.077 H 
ATOM     35  H   R39 d   1      -1.007   2.779 -21.064  0.00  0.00     0.077 H 
ATOM     36  H   R39 d   1      -3.873   2.007 -21.688  0.00  0.00     0.083 H 
ATOM     37  H   R39 d   1      -2.738   1.238 -20.519  0.00  0.00     0.083 H 
ENDBRANCH  21  24
ENDBRANCH  18  21
ENDBRANCH  17  18
ENDBRANCH  11  17
ENDBRANCH   1   7
BRANCH   4  38
ATOM     38  CBE R39 d   1       0.538  -3.875 -13.750  0.00  0.00     0.135 A 
ATOM     39  CAN R39 d   1       1.386  -2.817 -13.595  0.00  0.00    -0.012 A 
ATOM     40  CBF R39 d   1       2.373  -3.291 -12.813  0.00  0.00     0.066 A 
ATOM     41  H   R39 d   1       1.286  -1.814 -14.011  0.00  0.00     0.092 H 
ATOM     42  NAU R39 d   1       2.116  -4.574 -12.511  0.00  0.00    -0.169 NA
ATOM     43  NBH R39 d   1       1.039  -4.903 -13.054  0.00  0.00    -0.217 N 
BRANCH  40  44
ATOM     44  CBI R39 d   1       3.633  -2.557 -12.312  0.00  0.00    -0.005 C 
BRANCH  44  45
ATOM     45  CAC R39 d   1       4.638  -3.508 -11.649  0.00  0.00    -0.064 C 
ATOM     46  H   R39 d   1       4.168  -3.993 -10.794  0.00  0.00     0.028 H 
ATOM     47  H   R39 d   1       4.952  -4.263 -12.370  0.00  0.00     0.028 H 
ATOM     48  H   R39 d   1       5.506  -2.941 -11.314  0.00  0.00     0.028 H 
ENDBRANCH  44  45
BRANCH  44  49
ATOM     49  CAD R39 d   1       4.345  -1.888 -13.473  0.00  0.00    -0.064 C 
ATOM     50  H   R39 d   1       4.637  -2.643 -14.202  0.00  0.00     0.028 H 
ATOM     51  H   R39 d   1       3.675  -1.168 -13.943  0.00  0.00     0.028 H 
ATOM     52  H   R39 d   1       5.233  -1.373 -13.105  0.00  0.00     0.028 H 
ENDBRANCH  44  49
BRANCH  44  53
ATOM     53  CAB R39 d   1       3.207  -1.519 -11.245  0.00  0.00    -0.064 C 
ATOM     54  H   R39 d   1       2.513  -0.806 -11.690  0.00  0.00     0.028 H 
ATOM     55  H   R39 d   1       2.720  -2.032 -10.415  0.00  0.00     0.028 H 
ATOM     56  H   R39 d   1       4.089  -0.991 -10.881  0.00  0.00     0.028 H 
ENDBRANCH  44  53
ENDBRANCH  40  44
BRANCH  43  57
ATOM     57  CBD R39 d   1       0.497  -6.146 -12.934  0.00  0.00     0.060 A 
ATOM     58  CAL R39 d   1       0.022  -6.836 -14.053  0.00  0.00    -0.055 A 
ATOM     59  CAF R39 d   1      -0.506  -8.138 -13.915  0.00  0.00    -0.075 A 
ATOM     60  H   R39 d   1       0.059  -6.367 -15.036  0.00  0.00     0.087 H 
ATOM     61  CBA R39 d   1      -0.556  -8.722 -12.641  0.00  0.00    -0.062 A 
ATOM     62  H   R39 d   1      -0.870  -8.682 -14.787  0.00  0.00     0.084 H 
ATOM     63  CAG R39 d   1      -0.072  -8.051 -11.506  0.00  0.00    -0.075 A 
ATOM     64  CAM R39 d   1       0.460  -6.757 -11.653  0.00  0.00    -0.055 A 
ATOM     65  H   R39 d   1      -0.108  -8.526 -10.526  0.00  0.00     0.084 H 
ATOM     66  H   R39 d   1       0.844  -6.223 -10.783  0.00  0.00     0.087 H 
BRANCH  61  67
ATOM     67  CAA R39 d   1      -1.124 -10.137 -12.478  0.00  0.00    -0.051 C 
ATOM     68  H   R39 d   1      -2.158 -10.154 -12.821  0.00  0.00     0.033 H 
ATOM     69  H   R39 d   1      -0.532 -10.835 -13.070  0.00  0.00     0.033 H 
ATOM     70  H   R39 d   1      -1.084 -10.424 -11.427  0.00  0.00     0.033 H 
ENDBRANCH  61  67
ENDBRANCH  43  57
ENDBRANCH   4  38
TORSDOF 12
