REMARK  8 active torsions:
REMARK  status: ('A' for Active; 'I' for Inactive)
REMARK    1  A    between atoms: CAX_10  and  NAS_11 
REMARK       I    between atoms: NAS_11  and  CAU_12 
REMARK       I    between atoms: CAU_12  and  NAT_14 
REMARK    2  A    between atoms: NAT_14  and  CAZ_15 
REMARK    3  A    between atoms: CAY_17  and  CBD_18 
REMARK    4  A    between atoms: CBD_18  and  CAB_19 
REMARK    5  A    between atoms: CBD_18  and  CAC_20 
REMARK    6  A    between atoms: CBD_18  and  CAA_21 
REMARK    7  A    between atoms: NBC_23  and  CAW_24 
REMARK    8  A    between atoms: CAV_29  and  NAD_30 
ROOT
ATOM      1  CAZ 1AU d   1       0.522  -4.025 -13.985  0.00  0.00     0.135 A 
ATOM      2  CAQ 1AU d   1       1.338  -2.974 -13.794  0.00  0.00    -0.012 A 
ATOM      3  CAY 1AU d   1       2.336  -3.465 -12.998  0.00  0.00     0.066 A 
ATOM      4  NAR 1AU d   1       2.094  -4.752 -12.731  0.00  0.00    -0.169 NA
ATOM      5  NBC 1AU d   1       1.009  -5.068 -13.288  0.00  0.00    -0.217 N 
ATOM      6  H   1AU d   1       1.229  -1.962 -14.184  0.00  0.00     0.092 H 
ENDROOT
BRANCH   1   7
ATOM      7  NAT 1AU d   1      -0.652  -4.045 -14.644  0.00  0.00    -0.293 N 
ATOM      8  CAU 1AU d   1      -0.955  -3.305 -15.719  0.00  0.00     0.326 C 
ATOM      9  NAS 1AU d   1      -2.200  -3.444 -16.152  0.00  0.00    -0.308 N 
ATOM     10  OAE 1AU d   1      -0.135  -2.560 -16.281  0.00  0.00    -0.247 OA
ATOM     11  H   1AU d   1      -2.835  -4.043 -15.625  0.00  0.00     0.170 HD
ATOM     12  H   1AU d   1      -1.372  -4.678 -14.295  0.00  0.00     0.172 HD
BRANCH   9  13
ATOM     13  CAX 1AU d   1      -2.668  -2.825 -17.265  0.00  0.00     0.047 A 
ATOM     14  CBB 1AU d   1      -3.795  -2.025 -17.215  0.00  0.00     0.001 A 
ATOM     15  CAO 1AU d   1      -4.431  -1.812 -15.979  0.00  0.00    -0.070 A 
ATOM     16  CBA 1AU d   1      -4.282  -1.403 -18.379  0.00  0.00    -0.024 A 
ATOM     17  CAG 1AU d   1      -5.524  -0.970 -15.932  0.00  0.00    -0.082 A 
ATOM     18  H   1AU d   1      -4.068  -2.302 -15.076  0.00  0.00     0.084 H 
ATOM     19  CAF 1AU d   1      -6.027  -0.381 -17.103  0.00  0.00    -0.082 A 
ATOM     20  H   1AU d   1      -6.002  -0.760 -14.975  0.00  0.00     0.083 H 
ATOM     21  CAM 1AU d   1      -5.408  -0.583 -18.309  0.00  0.00    -0.072 A 
ATOM     22  H   1AU d   1      -6.919   0.243 -17.052  0.00  0.00     0.083 H 
ATOM     23  H   1AU d   1      -5.794  -0.105 -19.209  0.00  0.00     0.084 H 
ATOM     24  CAN 1AU d   1      -3.666  -1.585 -19.607  0.00  0.00    -0.072 A 
ATOM     25  CAI 1AU d   1      -2.535  -2.405 -19.663  0.00  0.00    -0.080 A 
ATOM     26  H   1AU d   1      -4.053  -1.102 -20.505  0.00  0.00     0.084 H 
ATOM     27  CAL 1AU d   1      -2.035  -3.008 -18.505  0.00  0.00    -0.056 A 
ATOM     28  H   1AU d   1      -2.038  -2.576 -20.618  0.00  0.00     0.083 H 
ATOM     29  H   1AU d   1      -1.141  -3.629 -18.566  0.00  0.00     0.086 H 
ENDBRANCH   9  13
ENDBRANCH   1   7
BRANCH   5  30
ATOM     30  CAW 1AU d   1       0.468  -6.320 -13.211  0.00  0.00     0.062 A 
ATOM     31  CAP 1AU d   1       0.037  -7.065 -14.342  0.00  0.00    -0.030 A 
ATOM     32  CAV 1AU d   1      -0.473  -8.373 -14.170  0.00  0.00     0.027 A 
ATOM     33  H   1AU d   1       0.099  -6.630 -15.339  0.00  0.00     0.090 H 
ATOM     34  CAJ 1AU d   1      -0.530  -8.942 -12.903  0.00  0.00    -0.058 A 
ATOM     35  CAH 1AU d   1      -0.103  -8.212 -11.786  0.00  0.00    -0.079 A 
ATOM     36  H   1AU d   1      -0.907  -9.957 -12.778  0.00  0.00     0.086 H 
ATOM     37  CAK 1AU d   1       0.413  -6.923 -11.952  0.00  0.00    -0.055 A 
ATOM     38  H   1AU d   1      -0.173  -8.648 -10.790  0.00  0.00     0.083 H 
ATOM     39  H   1AU d   1       0.779  -6.378 -11.082  0.00  0.00     0.087 H 
BRANCH  32  40
ATOM     40  NAD 1AU d   1      -0.927  -9.097 -15.187  0.00  0.00    -0.399 N 
ATOM     41  H   1AU d   1      -1.299 -10.032 -15.021  0.00  0.00     0.156 HD
ATOM     42  H   1AU d   1      -0.904  -8.718 -16.134  0.00  0.00     0.156 HD
ENDBRANCH  32  40
ENDBRANCH   5  30
BRANCH   3  43
ATOM     43  CBD 1AU d   1       3.594  -2.706 -12.484  0.00  0.00    -0.005 C 
BRANCH  43  44
ATOM     44  CAB 1AU d   1       3.140  -1.704 -11.376  0.00  0.00    -0.064 C 
ATOM     45  H   1AU d   1       2.423  -1.000 -11.797  0.00  0.00     0.028 H 
ATOM     46  H   1AU d   1       2.674  -2.255 -10.559  0.00  0.00     0.028 H 
ATOM     47  H   1AU d   1       4.008  -1.161 -11.002  0.00  0.00     0.028 H 
ENDBRANCH  43  44
BRANCH  43  48
ATOM     48  CAC 1AU d   1       4.711  -3.636 -11.967  0.00  0.00    -0.064 C 
ATOM     49  H   1AU d   1       4.330  -4.233 -11.138  0.00  0.00     0.028 H 
ATOM     50  H   1AU d   1       5.035  -4.295 -12.773  0.00  0.00     0.028 H 
ATOM     51  H   1AU d   1       5.554  -3.035 -11.626  0.00  0.00     0.028 H 
ENDBRANCH  43  48
BRANCH  43  52
ATOM     52  CAA 1AU d   1       4.260  -1.979 -13.632  0.00  0.00    -0.064 C 
ATOM     53  H   1AU d   1       4.560  -2.700 -14.392  0.00  0.00     0.028 H 
ATOM     54  H   1AU d   1       3.559  -1.264 -14.063  0.00  0.00     0.028 H 
ATOM     55  H   1AU d   1       5.139  -1.450 -13.264  0.00  0.00     0.028 H 
ENDBRANCH  43  52
ENDBRANCH   3  43
TORSDOF 8
