REMARK  2 active torsions:
REMARK  status: ('A' for Active; 'I' for Inactive)
REMARK    1  A    between atoms: C5_5  and  C7_7 
REMARK    2  A    between atoms: C12_11  and  C13_12 
ROOT
ATOM      1  C7  GG5 d   1      -2.727  36.821  17.766  0.00  0.00     0.022 A 
ATOM      2  C8  GG5 d   1      -2.011  35.886  17.007  0.00  0.00     0.035 A 
ATOM      3  N9  GG5 d   1      -2.105  34.718  17.656  0.00  0.00    -0.186 NA
ATOM      4  N11 GG5 d   1      -2.827  34.818  18.780  0.00  0.00    -0.277 N 
ATOM      5  C12 GG5 d   1      -3.226  36.075  18.890  0.00  0.00     0.072 A 
ATOM      6  H5  GG5 d   1      -1.482  36.072  16.073  0.00  0.00     0.118 H 
ATOM      7  H6  GG5 d   1      -3.034  34.054  19.439  0.00  0.00     0.189 HD
ENDROOT
BRANCH   5   8
ATOM      8  C13 GG5 d   1      -4.078  36.530  20.086  0.00  0.00    -0.007 A 
ATOM      9  C14 GG5 d   1      -3.597  36.253  21.413  0.00  0.00    -0.068 A 
ATOM     10  C15 GG5 d   1      -4.337  36.662  22.563  0.00  0.00    -0.045 A 
ATOM     11  H7  GG5 d   1      -2.659  35.726  21.542  0.00  0.00     0.085 H 
ATOM     12  C16 GG5 d   1      -5.583  37.362  22.394  0.00  0.00     0.116 A 
ATOM     13  H8  GG5 d   1      -3.963  36.447  23.557  0.00  0.00     0.088 H 
ATOM     14  C17 GG5 d   1      -6.085  37.645  21.091  0.00  0.00    -0.045 A 
ATOM     15  F19 GG5 d   1      -6.257  37.745  23.460  0.00  0.00    -0.206 F 
ATOM     16  C18 GG5 d   1      -5.342  37.235  19.941  0.00  0.00    -0.068 A 
ATOM     17  H9  GG5 d   1      -7.027  38.169  20.972  0.00  0.00     0.088 H 
ATOM     18  H10 GG5 d   1      -5.724  37.452  18.950  0.00  0.00     0.085 H 
ENDBRANCH   5   8
BRANCH   1  19
ATOM     19  C5  GG5 d   1      -2.868  38.275  17.373  0.00  0.00    -0.019 A 
ATOM     20  C4  GG5 d   1      -2.700  39.337  18.360  0.00  0.00    -0.055 A 
ATOM     21  C3  GG5 d   1      -2.858  40.775  17.892  0.00  0.00     0.003 A 
ATOM     22  H3  GG5 d   1      -2.470  39.108  19.394  0.00  0.00     0.087 H 
ATOM     23  N2  GG5 d   1      -3.150  41.085  16.571  0.00  0.00    -0.273 NA
ATOM     24  H2  GG5 d   1      -2.740  41.579  18.609  0.00  0.00     0.114 H 
ATOM     25  C1  GG5 d   1      -3.302  40.052  15.662  0.00  0.00     0.003 A 
ATOM     26  C6  GG5 d   1      -3.175  38.666  16.001  0.00  0.00    -0.055 A 
ATOM     27  H1  GG5 d   1      -3.530  40.307  14.633  0.00  0.00     0.114 H 
ATOM     28  H4  GG5 d   1      -3.307  37.907  15.238  0.00  0.00     0.087 H 
ENDBRANCH   1  19
TORSDOF 2
