REMARK  12 active torsions:
REMARK  status: ('A' for Active; 'I' for Inactive)
REMARK    1  A    between atoms: C24_7  and  C22_8 
REMARK    2  A    between atoms: C33_11  and  O34_12 
REMARK    3  A    between atoms: C31_13  and  O32_14 
REMARK    4  A    between atoms: C20_15  and  C18_16 
REMARK       I    between atoms: C18_16  and  N17_18 
REMARK    5  A    between atoms: N17_18  and  C16_19 
REMARK    6  A    between atoms: C16_19  and  C15_20 
REMARK    7  A    between atoms: C14_21  and  C6_22 
REMARK    8  A    between atoms: C4_23  and  O5_24 
REMARK    9  A    between atoms: C2_25  and  O3_26 
REMARK   10  A    between atoms: C1_28  and  N10_29 
REMARK   11  A    between atoms: C35_35  and  N7_38 
REMARK   12  A    between atoms: N7_38  and  C36_39 
ROOT
ATOM      1  C15 542 d   1      -2.812  18.232  13.843  0.00  0.00    -0.087 C 
ATOM      2  C14 542 d   1      -3.603  19.131  14.394  0.00  0.00    -0.075 C 
ATOM      3  H12 542 d   1      -1.851  18.561  13.449  0.00  0.00     0.079 H 
ATOM      4  H13 542 d   1      -4.564  18.800  14.787  0.00  0.00     0.080 H 
ENDROOT
BRANCH   1   5
ATOM      5  C16 542 d   1      -3.165  16.791  13.732  0.00  0.00     0.010 C 
ATOM      6  H10 542 d   1      -3.850  16.510  14.546  0.00  0.00     0.070 H 
ATOM      7  H11 542 d   1      -3.648  16.597  12.763  0.00  0.00     0.070 H 
BRANCH   5   8
ATOM      8  N17 542 d   1      -1.944  16.030  13.833  0.00  0.00    -0.353 N 
ATOM      9  C18 542 d   1      -1.975  14.704  14.160  0.00  0.00     0.254 C 
ATOM     10  O19 542 d   1      -3.045  14.143  14.368  0.00  0.00    -0.268 OA
ATOM     11  H9  542 d   1      -1.066  16.477  13.662  0.00  0.00     0.163 HD
BRANCH   9  12
ATOM     12  C20 542 d   1      -0.700  14.076  14.356  0.00  0.00     0.068 C 
ATOM     13  C21 542 d   1      -0.700  12.817  15.007  0.00  0.00    -0.054 C 
ATOM     14  C22 542 d   1       0.508  12.147  15.306  0.00  0.00    -0.022 C 
ATOM     15  H5  542 d   1      -1.644  12.360  15.281  0.00  0.00     0.086 H 
ATOM     16  C23 542 d   1       1.741  12.670  14.802  0.00  0.00    -0.037 C 
ATOM     17  C33 542 d   1       1.747  13.903  14.144  0.00  0.00     0.100 C 
ATOM     18  H6  542 d   1       2.663  12.114  14.930  0.00  0.00     0.089 H 
ATOM     19  C31 542 d   1       0.542  14.584  13.896  0.00  0.00     0.114 C 
BRANCH  14  20
ATOM     20  C24 542 d   1       0.504  10.836  15.969  0.00  0.00    -0.026 A 
ATOM     21  C25 542 d   1      -0.421  10.562  16.954  0.00  0.00    -0.069 A 
ATOM     22  C26 542 d   1      -0.432   9.353  17.626  0.00  0.00    -0.045 A 
ATOM     23  H2  542 d   1      -1.159  11.314  17.209  0.00  0.00     0.085 H 
ATOM     24  C29 542 d   1       0.437   8.395  17.225  0.00  0.00     0.116 A 
ATOM     25  H1  542 d   1      -1.116   9.178  18.449  0.00  0.00     0.088 H 
ATOM     26  F30 542 d   1       0.420   7.192  17.897  0.00  0.00    -0.206 F 
ATOM     27  C28 542 d   1       1.368   8.556  16.246  0.00  0.00    -0.045 A 
ATOM     28  C27 542 d   1       1.373   9.815  15.594  0.00  0.00    -0.069 A 
ATOM     29  H3  542 d   1       2.064   7.769  15.980  0.00  0.00     0.088 H 
ATOM     30  H4  542 d   1       2.071   9.987  14.783  0.00  0.00     0.085 H 
ENDBRANCH  14  20
BRANCH  17  31
ATOM     31  O34 542 d   1       2.933  14.437  13.673  0.00  0.00    -0.358 OA
ATOM     32  H7  542 d   1       2.759  15.272  13.255  0.00  0.00     0.217 HD
ENDBRANCH  17  31
BRANCH  19  33
ATOM     33  O32 542 d   1       0.652  15.728  13.147  0.00  0.00    -0.357 OA
ATOM     34  H8  542 d   1       1.019  15.515  12.297  0.00  0.00     0.217 HD
ENDBRANCH  19  33
ENDBRANCH   9  12
ENDBRANCH   5   8
ENDBRANCH   1   5
BRANCH   2  35
ATOM     35  C6  542 d   1      -3.256  20.567  14.508  0.00  0.00     0.084 C 
ATOM     36  C4  542 d   1      -3.883  21.151  15.770  0.00  0.00     0.092 C 
ATOM     37  C2  542 d   1      -5.243  21.567  15.212  0.00  0.00     0.105 C 
ATOM     38  H15 542 d   1      -3.972  20.410  16.578  0.00  0.00     0.091 H 
ATOM     39  C1  542 d   1      -4.924  22.133  13.866  0.00  0.00     0.140 C 
ATOM     40  H17 542 d   1      -5.880  20.676  15.110  0.00  0.00     0.093 H 
ATOM     41  O13 542 d   1      -3.773  21.360  13.400  0.00  0.00    -0.352 OA
ATOM     42  H19 542 d   1      -4.687  23.203  13.960  0.00  0.00     0.123 H 
ATOM     43  H14 542 d   1      -2.161  20.664  14.550  0.00  0.00     0.093 H 
BRANCH  36  44
ATOM     44  O5  542 d   1      -3.128  22.295  16.223  0.00  0.00    -0.390 OA
ATOM     45  H16 542 d   1      -3.123  22.959  15.543  0.00  0.00     0.210 HD
ENDBRANCH  36  44
BRANCH  37  46
ATOM     46  O3  542 d   1      -5.956  22.537  15.999  0.00  0.00    -0.388 OA
ATOM     47  H18 542 d   1      -5.437  23.330  16.069  0.00  0.00     0.210 HD
ENDBRANCH  37  46
BRANCH  39  48
ATOM     48  N10 542 d   1      -5.953  21.947  12.843  0.00  0.00    -0.294 N 
ATOM     49  C9  542 d   1      -6.573  20.757  12.498  0.00  0.00     0.071 A 
ATOM     50  N8  542 d   1      -7.326  20.886  11.440  0.00  0.00    -0.236 NA
ATOM     51  H20 542 d   1      -6.447  19.824  13.045  0.00  0.00     0.144 H 
ATOM     52  C12 542 d   1      -7.225  22.219  11.071  0.00  0.00     0.149 A 
ATOM     53  C11 542 d   1      -6.358  22.876  11.914  0.00  0.00     0.167 A 
ATOM     54  C35 542 d   1      -7.760  23.015  10.050  0.00  0.00     0.157 A 
ATOM     55  N40 542 d   1      -6.004  24.175  11.844  0.00  0.00    -0.222 NA
ATOM     56  C39 542 d   1      -6.553  24.807  10.815  0.00  0.00     0.091 A 
ATOM     57  N38 542 d   1      -7.413  24.276   9.926  0.00  0.00    -0.222 NA
ATOM     58  H21 542 d   1      -6.284  25.848  10.677  0.00  0.00     0.146 H 
BRANCH  54  59
ATOM     59  N7  542 d   1      -8.653  22.558   9.092  0.00  0.00    -0.377 N 
ATOM     60  H22 542 d   1      -8.983  23.207   8.363  0.00  0.00     0.160 HD
BRANCH  59  61
ATOM     61  C36 542 d   1      -9.137  21.181   9.091  0.00  0.00    -0.019 C 
ATOM     62  H23 542 d   1      -9.831  21.037   8.250  0.00  0.00     0.056 H 
ATOM     63  H24 542 d   1      -9.660  20.975  10.037  0.00  0.00     0.056 H 
ATOM     64  H25 542 d   1      -8.285  20.493   8.986  0.00  0.00     0.056 H 
ENDBRANCH  59  61
ENDBRANCH  54  59
ENDBRANCH  39  48
ENDBRANCH   2  35
TORSDOF 12
