REMARK  12 active torsions:
REMARK  status: ('A' for Active; 'I' for Inactive)
REMARK    1  A    between atoms: C2_2  and  N1_1 
REMARK    2  A    between atoms: C6_6  and  O25_25 
REMARK    3  A    between atoms: C14_14  and  C7_7 
REMARK    4  A    between atoms: C10_10  and  O30_30 
REMARK    5  A    between atoms: C23_23  and  C13_13 
REMARK       I    between atoms: N26_26  and  C14_14 
REMARK    6  A    between atoms: C16_16  and  C22_22 
REMARK    7  A    between atoms: C19_19  and  N38_38 
REMARK    8  A    between atoms: C37_37  and  N26_26 
REMARK    9  A    between atoms: C27_27  and  C37_37 
REMARK   10  A    between atoms: N38_38  and  C39_39 
REMARK   11  A    between atoms: C39_39  and  CA_40 
REMARK   12  A    between atoms: CA_40  and  OB_41 
ROOT
ATOM      1  C2  719 d   1      -4.762  21.808  13.817  0.00  0.00     0.140 C 
ATOM      2  C6  719 d   1      -5.119  21.223  15.175  0.00  0.00     0.105 C 
ATOM      3  O9  719 d   1      -3.653  21.022  13.353  0.00  0.00    -0.352 OA
ATOM      4  C10 719 d   1      -3.740  20.863  15.738  0.00  0.00     0.092 C 
ATOM      5  C13 719 d   1      -3.132  20.269  14.485  0.00  0.00     0.084 C 
ATOM      6  H1  719 d   1      -4.497  22.870  13.920  0.00  0.00     0.123 H 
ATOM      7  H2  719 d   1      -5.734  20.317  15.072  0.00  0.00     0.093 H 
ATOM      8  H4  719 d   1      -3.820  20.130  16.554  0.00  0.00     0.091 H 
ATOM      9  H6  719 d   1      -2.036  20.358  14.520  0.00  0.00     0.093 H 
ENDROOT
BRANCH   5  10
ATOM     10  C23 719 d   1      -3.508  18.829  14.373  0.00  0.00    -0.075 C 
ATOM     11  C27 719 d   1      -2.761  17.959  13.749  0.00  0.00    -0.087 C 
ATOM     12  H12 719 d   1      -1.833  18.317  13.305  0.00  0.00     0.079 H 
ATOM     13  H9  719 d   1      -4.438  18.492  14.828  0.00  0.00     0.080 H 
BRANCH  11  14
ATOM     14  C37 719 d   1      -3.082  16.525  13.601  0.00  0.00     0.010 C 
ATOM     15  H18 719 d   1      -3.743  16.197  14.417  0.00  0.00     0.070 H 
ATOM     16  H19 719 d   1      -3.575  16.344  12.634  0.00  0.00     0.070 H 
BRANCH  14  17
ATOM     17  N26 719 d   1      -1.806  15.804  13.662  0.00  0.00    -0.353 N 
ATOM     18  C14 719 d   1      -1.751  14.565  14.187  0.00  0.00     0.256 C 
ATOM     19  O24 719 d   1      -2.819  13.986  14.469  0.00  0.00    -0.268 OA
ATOM     20  H11 719 d   1      -0.974  16.234  13.312  0.00  0.00     0.163 HD
BRANCH  18  21
ATOM     21  C7  719 d   1      -0.473  13.904  14.351  0.00  0.00     0.086 A 
ATOM     22  C11 719 d   1       0.752  14.449  13.825  0.00  0.00     0.237 A 
ATOM     23  C17 719 d   1       1.977  13.730  14.099  0.00  0.00     0.223 A 
ATOM     24  O31 719 d   1       0.843  15.495  13.089  0.00  0.00    -0.283 OA
ATOM     25  C18 719 d   1       1.938  12.504  14.841  0.00  0.00    -0.020 A 
ATOM     26  O32 719 d   1       3.062  14.240  13.632  0.00  0.00    -0.284 OA
ATOM     27  C16 719 d   1       0.740  12.006  15.301  0.00  0.00    -0.021 A 
ATOM     28  H7  719 d   1       2.862  11.963  15.042  0.00  0.00     0.091 H 
ATOM     29  C12 719 d   1      -0.461  12.730  15.047  0.00  0.00    -0.053 A 
ATOM     30  H5  719 d   1      -1.403  12.332  15.422  0.00  0.00     0.086 H 
BRANCH  27  31
ATOM     31  C22 719 d   1       0.697  10.771  16.069  0.00  0.00    -0.026 A 
ATOM     32  C28 719 d   1       1.533   9.689  15.739  0.00  0.00    -0.069 A 
ATOM     33  C34 719 d   1       1.506   8.527  16.496  0.00  0.00    -0.045 A 
ATOM     34  H13 719 d   1       2.202   9.764  14.889  0.00  0.00     0.085 H 
ATOM     35  C33 719 d   1       0.582   8.448  17.499  0.00  0.00     0.116 A 
ATOM     36  H16 719 d   1       2.193   7.712  16.299  0.00  0.00     0.088 H 
ATOM     37  C35 719 d   1      -0.268   9.469  17.863  0.00  0.00    -0.045 A 
ATOM     38  F36 719 d   1       0.608   7.294  18.236  0.00  0.00    -0.206 F 
ATOM     39  C29 719 d   1      -0.233  10.643  17.120  0.00  0.00    -0.069 A 
ATOM     40  H17 719 d   1      -0.944   9.360  18.704  0.00  0.00     0.088 H 
ATOM     41  H14 719 d   1      -0.916  11.454  17.347  0.00  0.00     0.085 H 
ENDBRANCH  27  31
ENDBRANCH  18  21
ENDBRANCH  14  17
ENDBRANCH  11  14
ENDBRANCH   5  10
BRANCH   4  42
ATOM     42  O30 719 d   1      -2.966  21.962  16.177  0.00  0.00    -0.390 OA
ATOM     43  H15 719 d   1      -2.943  22.624  15.496  0.00  0.00     0.210 HD
ENDBRANCH   4  42
BRANCH   1  44
ATOM     44  N1  719 d   1      -5.799  21.650  12.817  0.00  0.00    -0.294 N 
ATOM     45  C3  719 d   1      -6.187  22.589  11.891  0.00  0.00     0.167 A 
ATOM     46  C4  719 d   1      -7.056  21.949  11.044  0.00  0.00     0.149 A 
ATOM     47  N15 719 d   1      -5.779  23.841  11.791  0.00  0.00    -0.222 NA
ATOM     48  N5  719 d   1      -7.244  20.649  11.436  0.00  0.00    -0.236 NA
ATOM     49  C19 719 d   1      -7.559  22.735  10.001  0.00  0.00     0.157 A 
ATOM     50  C8  719 d   1      -6.475  20.479  12.479  0.00  0.00     0.071 A 
ATOM     51  H3  719 d   1      -6.375  19.538  13.018  0.00  0.00     0.144 H 
ATOM     52  N20 719 d   1      -7.162  23.988   9.871  0.00  0.00    -0.222 NA
ATOM     53  C21 719 d   1      -6.288  24.510  10.773  0.00  0.00     0.091 A 
ATOM     54  H8  719 d   1      -5.989  25.544  10.648  0.00  0.00     0.146 H 
BRANCH  49  55
ATOM     55  N38 719 d   1      -8.485  22.307   9.056  0.00  0.00    -0.371 N 
ATOM     56  H20 719 d   1      -8.718  22.949   8.285  0.00  0.00     0.161 HD
BRANCH  55  57
ATOM     57  C39 719 d   1      -9.151  21.003   9.086  0.00  0.00     0.014 C 
ATOM     58  H21 719 d   1      -8.397  20.222   9.264  0.00  0.00     0.067 H 
ATOM     59  H22 719 d   1      -9.637  20.829   8.115  0.00  0.00     0.067 H 
BRANCH  57  60
ATOM     60  CA  719 d   1     -10.197  20.931  10.177  0.00  0.00     0.031 C 
ATOM     61  H23 719 d   1      -9.785  21.360  11.102  0.00  0.00     0.076 H 
ATOM     62  H24 719 d   1     -10.468  19.879  10.349  0.00  0.00     0.076 H 
BRANCH  60  63
ATOM     63  OB  719 d   1     -11.351  21.653   9.805  0.00  0.00    -0.399 OA
ATOM     64  H25 719 d   1     -11.711  21.284   9.007  0.00  0.00     0.209 HD
ENDBRANCH  60  63
ENDBRANCH  57  60
ENDBRANCH  55  57
ENDBRANCH  49  55
ENDBRANCH   1  44
BRANCH   2  65
ATOM     65  O25 719 d   1      -5.851  22.192  15.930  0.00  0.00    -0.388 OA
ATOM     66  H10 719 d   1      -5.355  23.001  15.970  0.00  0.00     0.210 HD
ENDBRANCH   2  65
TORSDOF 12
