REMARK  2 active torsions:
REMARK  status: ('A' for Active; 'I' for Inactive)
REMARK    1  A    between atoms: N12_1  and  C10_2 
REMARK    2  A    between atoms: C9_7  and  N11_12 
ROOT
ATOM      1  C10 EV2 d   1     -18.520 -92.678  11.525  0.00  0.00     0.168 A 
ATOM      2  N8  EV2 d   1     -17.817 -91.493  11.483  0.00  0.00    -0.226 NA
ATOM      3  C6  EV2 d   1     -16.700 -91.320  12.262  0.00  0.00     0.088 A 
ATOM      4  C4  EV2 d   1     -16.020 -90.119  12.194  0.00  0.00    -0.053 A 
ATOM      5  C2  EV2 d   1     -14.890 -89.927  12.969  0.00  0.00    -0.081 A 
ATOM      6  C9  EV2 d   1     -18.123 -93.727  12.357  0.00  0.00     0.172 A 
ATOM      7  N7  EV2 d   1     -16.986 -93.548  13.145  0.00  0.00    -0.225 NA
ATOM      8  C5  EV2 d   1     -16.274 -92.351  13.096  0.00  0.00     0.088 A 
ATOM      9  C3  EV2 d   1     -15.140 -92.154  13.876  0.00  0.00    -0.053 A 
ATOM     10  C1  EV2 d   1     -14.453 -90.942  13.807  0.00  0.00    -0.081 A 
ATOM     11  H3  EV2 d   1     -16.370 -89.331  11.537  0.00  0.00     0.087 H 
ATOM     12  H4  EV2 d   1     -14.349 -88.989  12.921  0.00  0.00     0.083 H 
ATOM     13  H5  EV2 d   1     -14.791 -92.940  14.536  0.00  0.00     0.087 H 
ATOM     14  H6  EV2 d   1     -13.568 -90.792  14.415  0.00  0.00     0.083 H 
ENDROOT
BRANCH   6  15
ATOM     15  N11 EV2 d   1     -18.841 -94.956  12.430  0.00  0.00    -0.363 N 
ATOM     16  C16 EV2 d   1     -20.300 -95.027  12.680  0.00  0.00    -0.003 C 
ATOM     17  C14 EV2 d   1     -20.542 -96.020  13.800  0.00  0.00    -0.049 C 
ATOM     18  H7  EV2 d   1     -20.818 -95.360  11.769  0.00  0.00     0.064 H 
ATOM     19  H8  EV2 d   1     -20.676 -94.036  12.974  0.00  0.00     0.064 H 
ATOM     20  C13 EV2 d   1     -19.193 -96.585  14.144  0.00  0.00    -0.049 C 
ATOM     21  H9  EV2 d   1     -21.218 -96.820  13.463  0.00  0.00     0.035 H 
ATOM     22  H10 EV2 d   1     -20.979 -95.514  14.673  0.00  0.00     0.035 H 
ATOM     23  C15 EV2 d   1     -18.300 -96.226  12.963  0.00  0.00    -0.003 C 
ATOM     24  H11 EV2 d   1     -19.251 -97.677  14.266  0.00  0.00     0.035 H 
ATOM     25  H12 EV2 d   1     -18.809 -96.132  15.070  0.00  0.00     0.035 H 
ATOM     26  H13 EV2 d   1     -17.260 -96.092  13.294  0.00  0.00     0.064 H 
ATOM     27  H14 EV2 d   1     -18.342 -97.013  12.196  0.00  0.00     0.064 H 
ENDBRANCH   6  15
BRANCH   1  28
ATOM     28  N12 EV2 d   1     -19.639 -92.729  10.690  0.00  0.00    -0.381 N 
ATOM     29  H1  EV2 d   1     -20.221 -93.578  10.660  0.00  0.00     0.157 HD
ATOM     30  H2  EV2 d   1     -19.882 -91.917  10.104  0.00  0.00     0.157 HD
ENDBRANCH   1  28
TORSDOF 2
