REMARK  15 active torsions:
REMARK  status: ('A' for Active; 'I' for Inactive)
REMARK    1  A    between atoms: C1_1  and  C14_30 
REMARK    2  A    between atoms: C7_7  and  C5_5 
REMARK    3  A    between atoms: C12_8  and  N13_9 
REMARK    4  A    between atoms: C10_32  and  C12_8 
REMARK    5  A    between atoms: C15_10  and  C20_22 
REMARK    6  A    between atoms: C15_10  and  N16_24 
REMARK    7  A    between atoms: C14_30  and  C15_10 
REMARK    8  A    between atoms: C17_11  and  C18_12 
REMARK       I    between atoms: N16_24  and  C17_11 
REMARK    9  A    between atoms: N22_13  and  C23_14 
REMARK       I    between atoms: C20_22  and  N22_13 
REMARK   10  A    between atoms: C23_14  and  C24_15 
REMARK   11  A    between atoms: N26_29  and  C30_16 
REMARK   12  A    between atoms: C31_17  and  C32_18 
REMARK   13  A    between atoms: C31_17  and  C33_19 
REMARK   14  A    between atoms: C31_17  and  C34_20 
REMARK   15  A    between atoms: C28_27  and  C31_17 
ROOT
ATOM      1  C15 BD3 d   1      32.853 -27.791 -13.498  0.00  0.00     0.093 C 
ATOM      2  H10 BD3 d   1      33.086 -27.835 -14.572  0.00  0.00     0.088 H 
ENDROOT
BRANCH   1   3
ATOM      3  C20 BD3 d   1      33.992 -28.377 -12.700  0.00  0.00     0.241 C 
ATOM      4  N22 BD3 d   1      35.279 -28.069 -13.085  0.00  0.00    -0.355 N 
ATOM      5  H11 BD3 d   1      35.383 -27.470 -13.879  0.00  0.00     0.162 HD
ATOM      6  O21 BD3 d   1      33.764 -29.109 -11.757  0.00  0.00    -0.271 OA
BRANCH   4   7
ATOM      7  C23 BD3 d   1      36.509 -28.536 -12.441  0.00  0.00     0.025 C 
ATOM      8  H12 BD3 d   1      37.120 -29.084 -13.172  0.00  0.00     0.072 H 
ATOM      9  H13 BD3 d   1      36.254 -29.202 -11.603  0.00  0.00     0.072 H 
BRANCH   7  10
ATOM     10  C24 BD3 d   1      37.302 -27.327 -11.913  0.00  0.00    -0.010 C 
ATOM     11  N25 BD3 d   1      38.599 -27.486 -11.765  0.00  0.00    -0.315 NA
ATOM     12  H27 BD3 d   1      39.164 -26.725 -11.422  0.00  0.00     0.185 HD
ATOM     13  H14 BD3 d   1      36.812 -26.384 -11.673  0.00  0.00     0.109 H 
ENDBRANCH   7  10
ENDBRANCH   4   7
ENDBRANCH   1   3
BRANCH   1  14
ATOM     14  N16 BD3 d   1      31.714 -28.663 -13.211  0.00  0.00    -0.342 N 
ATOM     15  C17 BD3 d   1      31.035 -29.341 -14.177  0.00  0.00     0.270 C 
ATOM     16  O19 BD3 d   1      31.379 -29.202 -15.332  0.00  0.00    -0.266 OA
ATOM     17  H28 BD3 d   1      31.420 -28.766 -12.261  0.00  0.00     0.163 HD
BRANCH  15  18
ATOM     18  C18 BD3 d   1      29.900 -30.210 -13.766  0.00  0.00     0.121 A 
ATOM     19  C29 BD3 d   1      29.708 -30.740 -12.510  0.00  0.00    -0.024 A 
ATOM     20  C28 BD3 d   1      28.535 -31.452 -12.572  0.00  0.00     0.065 A 
ATOM     21  H29 BD3 d   1      30.355 -30.619 -11.643  0.00  0.00     0.090 H 
ATOM     22  N27 BD3 d   1      28.065 -31.344 -13.841  0.00  0.00    -0.176 NA
ATOM     23  N26 BD3 d   1      28.849 -30.618 -14.519  0.00  0.00    -0.269 N 
BRANCH  20  24
ATOM     24  C31 BD3 d   1      27.858 -32.276 -11.476  0.00  0.00    -0.005 C 
BRANCH  24  25
ATOM     25  C32 BD3 d   1      28.475 -32.110 -10.077  0.00  0.00    -0.064 C 
ATOM     26  H18 BD3 d   1      27.927 -32.736  -9.358  0.00  0.00     0.028 H 
ATOM     27  H19 BD3 d   1      28.409 -31.056  -9.770  0.00  0.00     0.028 H 
ATOM     28  H20 BD3 d   1      29.530 -32.419 -10.103  0.00  0.00     0.028 H 
ENDBRANCH  24  25
BRANCH  24  29
ATOM     29  C33 BD3 d   1      27.906 -33.750 -11.876  0.00  0.00    -0.064 C 
ATOM     30  H21 BD3 d   1      27.465 -33.873 -12.876  0.00  0.00     0.028 H 
ATOM     31  H22 BD3 d   1      27.336 -34.346 -11.149  0.00  0.00     0.028 H 
ATOM     32  H23 BD3 d   1      28.951 -34.092 -11.891  0.00  0.00     0.028 H 
ENDBRANCH  24  29
BRANCH  24  33
ATOM     33  C34 BD3 d   1      26.381 -31.879 -11.405  0.00  0.00    -0.064 C 
ATOM     34  H24 BD3 d   1      26.299 -30.820 -11.119  0.00  0.00     0.028 H 
ATOM     35  H25 BD3 d   1      25.869 -32.502 -10.656  0.00  0.00     0.028 H 
ATOM     36  H26 BD3 d   1      25.913 -32.030 -12.389  0.00  0.00     0.028 H 
ENDBRANCH  24  33
ENDBRANCH  20  24
BRANCH  23  37
ATOM     37  C30 BD3 d   1      28.637 -30.285 -15.937  0.00  0.00     0.003 C 
ATOM     38  H15 BD3 d   1      27.704 -30.751 -16.288  0.00  0.00     0.059 H 
ATOM     39  H16 BD3 d   1      29.482 -30.662 -16.532  0.00  0.00     0.059 H 
ATOM     40  H17 BD3 d   1      28.566 -29.193 -16.051  0.00  0.00     0.059 H 
ENDBRANCH  23  37
ENDBRANCH  15  18
ENDBRANCH   1  14
BRANCH   1  41
ATOM     41  C14 BD3 d   1      32.607 -26.313 -13.118  0.00  0.00    -0.014 C 
ATOM     42  H30 BD3 d   1      32.507 -26.241 -12.025  0.00  0.00     0.043 H 
ATOM     43  H31 BD3 d   1      33.469 -25.715 -13.448  0.00  0.00     0.043 H 
BRANCH  41  44
ATOM     44  C1  BD3 d   1      31.345 -25.752 -13.764  0.00  0.00    -0.055 A 
ATOM     45  C2  BD3 d   1      31.181 -25.808 -15.149  0.00  0.00    -0.077 A 
ATOM     46  C4  BD3 d   1      30.029 -25.314 -15.747  0.00  0.00    -0.082 A 
ATOM     47  H1  BD3 d   1      31.961 -26.242 -15.764  0.00  0.00     0.084 H 
ATOM     48  C6  BD3 d   1      29.030 -24.761 -14.963  0.00  0.00    -0.069 A 
ATOM     49  H3  BD3 d   1      29.912 -25.361 -16.824  0.00  0.00     0.083 H 
ATOM     50  C5  BD3 d   1      29.181 -24.706 -13.568  0.00  0.00     0.019 A 
ATOM     51  H4  BD3 d   1      28.131 -24.370 -15.427  0.00  0.00     0.085 H 
ATOM     52  C3  BD3 d   1      30.337 -25.205 -12.966  0.00  0.00    -0.063 A 
ATOM     53  H2  BD3 d   1      30.452 -25.169 -11.889  0.00  0.00     0.085 H 
BRANCH  50  54
ATOM     54  C7  BD3 d   1      28.068 -24.143 -12.797  0.00  0.00     0.202 A 
ATOM     55  O11 BD3 d   1      27.024 -23.953 -13.357  0.00  0.00    -0.271 OA
ATOM     56  C10 BD3 d   1      26.224 -23.514 -12.568  0.00  0.00     0.194 A 
ATOM     57  N9  BD3 d   1      26.795 -23.389 -11.345  0.00  0.00    -0.125 NA
ATOM     58  N8  BD3 d   1      27.984 -23.811 -11.492  0.00  0.00    -0.121 NA
BRANCH  56  59
ATOM     59  C12 BD3 d   1      24.805 -23.211 -13.044  0.00  0.00     0.141 C 
ATOM     60  H5  BD3 d   1      24.803 -23.277 -14.142  0.00  0.00     0.088 H 
ATOM     61  H6  BD3 d   1      24.144 -23.986 -12.629  0.00  0.00     0.088 H 
BRANCH  59  62
ATOM     62  N13 BD3 d   1      24.237 -21.904 -12.679  0.00  0.00    -0.072 N 
ATOM     63  H7  BD3 d   1      23.303 -21.828 -13.050  0.00  0.00     0.274 HD
ATOM     64  H8  BD3 d   1      24.811 -21.169 -13.062  0.00  0.00     0.274 HD
ATOM     65  H9  BD3 d   1      24.207 -21.819 -11.675  0.00  0.00     0.274 HD
ENDBRANCH  59  62
ENDBRANCH  56  59
ENDBRANCH  50  54
ENDBRANCH  41  44
ENDBRANCH   1  41
TORSDOF 15
