REMARK  10 active torsions:
REMARK  status: ('A' for Active; 'I' for Inactive)
REMARK    1  A    between atoms: C2'_2  and  CM2_3 
REMARK    2  A    between atoms: C5'_7  and  C7'_9 
REMARK    3  A    between atoms: C7'_9  and  N3_10 
REMARK    4  A    between atoms: C5_13  and  C6_16 
REMARK    5  A    between atoms: C4_14  and  CM4_15 
REMARK    6  A    between atoms: C6_16  and  C7_17 
REMARK    7  A    between atoms: C7_17  and  O7_18 
REMARK    8  A    between atoms: O7_18  and  PA_19 
REMARK    9  A    between atoms: PA_19  and  O3A_22 
REMARK   10  A    between atoms: O3A_22  and  PB_23 
ROOT
ATOM      1  N3  TPP d   1      14.995   1.312  -2.636  0.00  0.00    -0.349 N 
ATOM      2  C2  TPP d   1      15.612   2.383  -3.214  0.00  0.00     0.018 A 
ATOM      3  S1  TPP d   1      16.268   2.033  -4.614  0.00  0.00    -0.087 SA
ATOM      4  C5  TPP d   1      15.806   0.494  -4.556  0.00  0.00     0.008 A 
ATOM      5  C4  TPP d   1      15.109   0.189  -3.398  0.00  0.00     0.021 A 
ATOM      6  H9  TPP d   1      15.650   3.373  -2.762  0.00  0.00     0.123 H 
ENDROOT
BRANCH   1   7
ATOM      7  C7' TPP d   1      14.375   1.403  -1.350  0.00  0.00     0.028 C 
ATOM      8  H7  TPP d   1      14.621   0.488  -0.792  0.00  0.00     0.072 H 
ATOM      9  H8  TPP d   1      14.801   2.275  -0.832  0.00  0.00     0.072 H 
BRANCH   7  10
ATOM     10  C5' TPP d   1      12.885   1.553  -1.350  0.00  0.00     0.023 A 
ATOM     11  C4' TPP d   1      12.289   2.778  -1.643  0.00  0.00     0.132 A 
ATOM     12  N3' TPP d   1      10.910   2.867  -1.580  0.00  0.00    -0.216 NA
ATOM     13  N4' TPP d   1      13.020   3.859  -1.978  0.00  0.00    -0.383 N 
ATOM     14  C2' TPP d   1      10.143   1.767  -1.260  0.00  0.00     0.124 A 
ATOM     15  N1' TPP d   1      10.724   0.548  -0.994  0.00  0.00    -0.245 NA
ATOM     16  C6' TPP d   1      12.098   0.454  -1.004  0.00  0.00     0.015 A 
ATOM     17  H6  TPP d   1      12.573  -0.484  -0.740  0.00  0.00     0.116 H 
ATOM     18  H4  TPP d   1      14.047   3.792  -2.025  0.00  0.00     0.157 HD
ATOM     19  H5  TPP d   1      12.552   4.752  -2.187  0.00  0.00     0.157 HD
BRANCH  14  20
ATOM     20  CM2 TPP d   1       8.664   1.899  -1.226  0.00  0.00    -0.019 C 
ATOM     21  H1  TPP d   1       8.216   0.932  -0.955  0.00  0.00     0.037 H 
ATOM     22  H2  TPP d   1       8.300   2.207  -2.217  0.00  0.00     0.037 H 
ATOM     23  H3  TPP d   1       8.380   2.656  -0.480  0.00  0.00     0.037 H 
ENDBRANCH  14  20
ENDBRANCH   7  10
ENDBRANCH   1   7
BRANCH   5  24
ATOM     24  CM4 TPP d   1      14.540  -1.168  -3.072  0.00  0.00    -0.036 C 
ATOM     25  H10 TPP d   1      14.795  -1.875  -3.875  0.00  0.00     0.035 H 
ATOM     26  H11 TPP d   1      13.446  -1.095  -2.982  0.00  0.00     0.035 H 
ATOM     27  H12 TPP d   1      14.963  -1.524  -2.122  0.00  0.00     0.035 H 
ENDBRANCH   5  24
BRANCH   4  28
ATOM     28  C6  TPP d   1      16.205  -0.369  -5.726  0.00  0.00    -0.013 C 
ATOM     29  H13 TPP d   1      16.324  -1.401  -5.364  0.00  0.00     0.044 H 
ATOM     30  H14 TPP d   1      17.169  -0.001  -6.108  0.00  0.00     0.044 H 
BRANCH  28  31
ATOM     31  C7  TPP d   1      15.213  -0.386  -6.883  0.00  0.00     0.036 C 
ATOM     32  H15 TPP d   1      15.169   0.610  -7.348  0.00  0.00     0.075 H 
ATOM     33  H16 TPP d   1      14.215  -0.661  -6.511  0.00  0.00     0.075 H 
BRANCH  31  34
ATOM     34  O7  TPP d   1      15.648  -1.344  -7.843  0.00  0.00    -0.289 OA
BRANCH  34  35
ATOM     35  PA  TPP d   1      15.413  -1.149  -9.434  0.00  0.00     0.418 P 
ATOM     36  O1A TPP d   1      13.941  -0.866  -9.667  0.00  0.00    -0.624 OA
ATOM     37  O2A TPP d   1      15.885  -2.275 -10.339  0.00  0.00    -0.624 OA
BRANCH  35  38
ATOM     38  O3A TPP d   1      16.332   0.130  -9.697  0.00  0.00    -0.173 OA
BRANCH  38  39
ATOM     39  PB  TPP d   1      17.936  -0.033  -9.801  0.00  0.00     0.431 P 
ATOM     40  O1B TPP d   1      18.536   1.232 -10.394  0.00  0.00    -0.616 OA
ATOM     41  O2B TPP d   1      18.376  -0.113  -8.329  0.00  0.00    -0.616 OA
ATOM     42  O3B TPP d   1      18.369  -1.279 -10.597  0.00  0.00    -0.616 OA
ENDBRANCH  38  39
ENDBRANCH  35  38
ENDBRANCH  34  35
ENDBRANCH  31  34
ENDBRANCH  28  31
ENDBRANCH   4  28
TORSDOF 10
