REMARK  10 active torsions:
REMARK  status: ('A' for Active; 'I' for Inactive)
REMARK    1  A    between atoms: C1_1  and  C16_17 
REMARK    2  A    between atoms: C1_1  and  C17_18 
REMARK    3  A    between atoms: C5_5  and  C18_19 
REMARK    4  A    between atoms: C6_6  and  C7_7 
REMARK    5  A    between atoms: C8_8  and  C9_9 
REMARK    6  A    between atoms: C9_9  and  C19_20 
REMARK    7  A    between atoms: C10_10  and  C11_11 
REMARK    8  A    between atoms: C12_12  and  C13_13 
REMARK    9  A    between atoms: C13_13  and  C20_21 
REMARK   10  A    between atoms: C14_14  and  C15_15 
ROOT
ATOM      1  C7  RET d   1       5.648   5.287  11.992  0.00  0.00    -0.075 C 
ATOM      2  C8  RET d   1       4.762   4.711  12.801  0.00  0.00    -0.077 C 
ATOM      3  H7  RET d   1       6.136   4.670  11.239  0.00  0.00     0.084 H 
ATOM      4  H8  RET d   1       4.266   5.331  13.546  0.00  0.00     0.084 H 
ENDROOT
BRANCH   1   5
ATOM      5  C6  RET d   1       6.009   6.731  12.061  0.00  0.00    -0.048 C 
ATOM      6  C1  RET d   1       5.055   7.880  12.263  0.00  0.00    -0.020 C 
ATOM      7  C2  RET d   1       5.386   9.132  11.485  0.00  0.00    -0.054 C 
ATOM      8  C3  RET d   1       6.659   9.615  12.162  0.00  0.00    -0.061 C 
ATOM      9  H1  RET d   1       4.582   9.878  11.572  0.00  0.00     0.034 H 
ATOM     10  H2  RET d   1       5.562   8.905  10.423  0.00  0.00     0.034 H 
ATOM     11  C4  RET d   1       7.756   8.546  12.104  0.00  0.00    -0.044 C 
ATOM     12  H3  RET d   1       6.440   9.848  13.214  0.00  0.00     0.033 H 
ATOM     13  H4  RET d   1       7.015  10.523  11.652  0.00  0.00     0.033 H 
ATOM     14  C5  RET d   1       7.298   7.092  12.019  0.00  0.00    -0.077 C 
ATOM     15  H5  RET d   1       8.369   8.649  13.011  0.00  0.00     0.039 H 
ATOM     16  H6  RET d   1       8.375   8.752  11.218  0.00  0.00     0.039 H 
BRANCH   6  17
ATOM     17  C16 RET d   1       3.859   7.786  13.205  0.00  0.00    -0.065 C 
ATOM     18  H14 RET d   1       3.824   6.783  13.655  0.00  0.00     0.028 H 
ATOM     19  H15 RET d   1       2.933   7.967  12.640  0.00  0.00     0.028 H 
ATOM     20  H16 RET d   1       3.958   8.540  13.999  0.00  0.00     0.028 H 
ENDBRANCH   6  17
BRANCH   6  21
ATOM     21  C17 RET d   1       4.154   7.426  11.114  0.00  0.00    -0.065 C 
ATOM     22  H17 RET d   1       4.741   7.376  10.185  0.00  0.00     0.028 H 
ATOM     23  H18 RET d   1       3.330   8.144  10.989  0.00  0.00     0.028 H 
ATOM     24  H19 RET d   1       3.743   6.431  11.341  0.00  0.00     0.028 H 
ENDBRANCH   6  21
BRANCH  14  25
ATOM     25  C18 RET d   1       8.341   6.029  11.846  0.00  0.00    -0.054 C 
ATOM     26  H20 RET d   1       7.856   5.043  11.802  0.00  0.00     0.033 H 
ATOM     27  H21 RET d   1       9.038   6.057  12.697  0.00  0.00     0.033 H 
ATOM     28  H22 RET d   1       8.895   6.207  10.912  0.00  0.00     0.033 H 
ENDBRANCH  14  25
ENDBRANCH   1   5
BRANCH   2  29
ATOM     29  C9  RET d   1       4.414   3.271  12.744  0.00  0.00    -0.062 C 
ATOM     30  C10 RET d   1       3.277   2.824  13.308  0.00  0.00    -0.077 C 
ATOM     31  H9  RET d   1       2.593   3.510  13.805  0.00  0.00     0.084 H 
BRANCH  30  32
ATOM     32  C11 RET d   1       2.984   1.396  13.236  0.00  0.00    -0.082 C 
ATOM     33  C12 RET d   1       1.898   0.825  13.765  0.00  0.00    -0.077 C 
ATOM     34  H11 RET d   1       1.795  -0.256  13.688  0.00  0.00     0.084 H 
ATOM     35  H10 RET d   1       3.696   0.755  12.718  0.00  0.00     0.083 H 
BRANCH  33  36
ATOM     36  C13 RET d   1       0.832   1.581  14.448  0.00  0.00    -0.059 C 
ATOM     37  C14 RET d   1       1.134   2.439  15.427  0.00  0.00    -0.041 C 
ATOM     38  H12 RET d   1       2.174   2.590  15.714  0.00  0.00     0.088 H 
BRANCH  37  39
ATOM     39  C15 RET d   1       0.076   3.175  16.114  0.00  0.00     0.109 C 
ATOM     40  O1  RET d   1       0.387   4.061  16.896  0.00  0.00    -0.302 OA
ATOM     41  H13 RET d   1      -0.971   2.938  15.933  0.00  0.00     0.150 H 
ENDBRANCH  37  39
BRANCH  36  42
ATOM     42  C20 RET d   1      -0.601   1.344  14.075  0.00  0.00    -0.051 C 
ATOM     43  H26 RET d   1      -0.650   0.612  13.255  0.00  0.00     0.033 H 
ATOM     44  H27 RET d   1      -1.056   2.291  13.749  0.00  0.00     0.033 H 
ATOM     45  H28 RET d   1      -1.147   0.956  14.947  0.00  0.00     0.033 H 
ENDBRANCH  36  42
ENDBRANCH  33  36
ENDBRANCH  30  32
BRANCH  29  46
ATOM     46  C19 RET d   1       5.322   2.270  12.084  0.00  0.00    -0.051 C 
ATOM     47  H23 RET d   1       6.202   2.788  11.674  0.00  0.00     0.033 H 
ATOM     48  H24 RET d   1       4.781   1.765  11.270  0.00  0.00     0.033 H 
ATOM     49  H25 RET d   1       5.647   1.525  12.825  0.00  0.00     0.033 H 
ENDBRANCH  29  46
ENDBRANCH   2  29
TORSDOF 10
