REMARK  17 active torsions:
REMARK  status: ('A' for Active; 'I' for Inactive)
REMARK    1  A    between atoms: C41_3  and  O44_4 
REMARK    2  A    between atoms: C38_7  and  C37_8 
REMARK    3  A    between atoms: C37_8  and  C35_9 
REMARK    4  A    between atoms: C35_9  and  C36_10 
REMARK    5  A    between atoms: C35_9  and  N33_13 
REMARK       I    between atoms: N33_13  and  C32_14 
REMARK    6  A    between atoms: C32_14  and  C24_16 
REMARK    7  A    between atoms: C24_16  and  C25_17 
REMARK    8  A    between atoms: C24_16  and  N22_24 
REMARK    9  A    between atoms: C25_17  and  C26_18 
REMARK       I    between atoms: N22_24  and  C21_25 
REMARK   10  A    between atoms: C21_25  and  C12_27 
REMARK   11  A    between atoms: C12_27  and  C13_28 
REMARK   12  A    between atoms: C12_27  and  N10_36 
REMARK   13  A    between atoms: C13_28  and  C14_29 
REMARK   14  A    between atoms: C17_32  and  O20_33 
REMARK       I    between atoms: N10_36  and  C9_37 
REMARK   15  A    between atoms: C9_37  and  O8_39 
REMARK   16  A    between atoms: O8_39  and  C7_40 
REMARK   17  A    between atoms: C7_40  and  C3_41 
ROOT
ATOM      1  C24 BD5 d   1       6.834  17.759  22.868  0.00  0.00     0.093 C 
ATOM      2  H10 BD5 d   1       5.784  17.579  22.595  0.00  0.00     0.088 H 
ENDROOT
BRANCH   1   3
ATOM      3  C32 BD5 d   1       7.050  16.851  24.099  0.00  0.00     0.241 C 
ATOM      4  N33 BD5 d   1       5.931  16.596  24.769  0.00  0.00    -0.344 N 
ATOM      5  H9  BD5 d   1       5.084  17.035  24.469  0.00  0.00     0.163 HD
ATOM      6  O34 BD5 d   1       8.147  16.368  24.378  0.00  0.00    -0.271 OA
BRANCH   4   7
ATOM      7  C35 BD5 d   1       5.882  15.693  25.936  0.00  0.00     0.100 C 
ATOM      8  H8  BD5 d   1       6.885  15.261  26.070  0.00  0.00     0.090 H 
BRANCH   7   9
ATOM      9  C37 BD5 d   1       5.497  16.353  27.292  0.00  0.00    -0.013 C 
ATOM     10  H6  BD5 d   1       4.717  15.729  27.753  0.00  0.00     0.043 H 
ATOM     11  H7  BD5 d   1       6.394  16.348  27.928  0.00  0.00     0.043 H 
BRANCH   9  12
ATOM     12  C38 BD5 d   1       4.969  17.797  27.251  0.00  0.00    -0.056 A 
ATOM     13  C43 BD5 d   1       5.844  18.880  27.391  0.00  0.00    -0.074 A 
ATOM     14  C42 BD5 d   1       5.350  20.185  27.365  0.00  0.00    -0.051 A 
ATOM     15  H1  BD5 d   1       6.906  18.705  27.520  0.00  0.00     0.084 H 
ATOM     16  C41 BD5 d   1       3.985  20.419  27.206  0.00  0.00     0.065 A 
ATOM     17  H2  BD5 d   1       6.032  21.021  27.469  0.00  0.00     0.087 H 
ATOM     18  C40 BD5 d   1       3.114  19.340  27.074  0.00  0.00    -0.051 A 
ATOM     19  C39 BD5 d   1       3.600  18.032  27.101  0.00  0.00    -0.074 A 
ATOM     20  H4  BD5 d   1       2.052  19.517  26.950  0.00  0.00     0.087 H 
ATOM     21  H5  BD5 d   1       2.915  17.198  27.006  0.00  0.00     0.084 H 
BRANCH  16  22
ATOM     22  O44 BD5 d   1       3.507  21.693  27.179  0.00  0.00    -0.361 OA
ATOM     23  H3  BD5 d   1       2.564  21.674  27.065  0.00  0.00     0.217 HD
ENDBRANCH  16  22
ENDBRANCH   9  12
ENDBRANCH   7   9
BRANCH   7  24
ATOM     24  C36 BD5 d   1       4.903  14.558  25.546  0.00  0.00     0.197 C 
ATOM     25  O45 BD5 d   1       4.314  14.649  24.438  0.00  0.00    -0.646 OA
ATOM     26  O46 BD5 d   1       4.777  13.611  26.351  0.00  0.00    -0.646 OA
ENDBRANCH   7  24
ENDBRANCH   4   7
ENDBRANCH   1   3
BRANCH   1  27
ATOM     27  C25 BD5 d   1       7.660  17.206  21.639  0.00  0.00    -0.014 C 
ATOM     28  H11 BD5 d   1       7.112  16.348  21.222  0.00  0.00     0.043 H 
ATOM     29  H12 BD5 d   1       8.638  16.870  22.013  0.00  0.00     0.043 H 
BRANCH  27  30
ATOM     30  C26 BD5 d   1       7.910  18.214  20.491  0.00  0.00    -0.056 A 
ATOM     31  C31 BD5 d   1       9.091  18.158  19.770  0.00  0.00    -0.077 A 
ATOM     32  C30 BD5 d   1       9.311  19.079  18.756  0.00  0.00    -0.082 A 
ATOM     33  H13 BD5 d   1       9.835  17.403  19.995  0.00  0.00     0.084 H 
ATOM     34  C29 BD5 d   1       8.384  20.059  18.433  0.00  0.00    -0.083 A 
ATOM     35  H14 BD5 d   1      10.239  19.031  18.197  0.00  0.00     0.083 H 
ATOM     36  C28 BD5 d   1       7.199  20.125  19.136  0.00  0.00    -0.082 A 
ATOM     37  H15 BD5 d   1       8.589  20.765  17.637  0.00  0.00     0.083 H 
ATOM     38  C27 BD5 d   1       6.986  19.200  20.147  0.00  0.00    -0.077 A 
ATOM     39  H16 BD5 d   1       6.455  20.879  18.905  0.00  0.00     0.083 H 
ATOM     40  H17 BD5 d   1       6.054  19.246  20.698  0.00  0.00     0.084 H 
ENDBRANCH  27  30
ENDBRANCH   1  27
BRANCH   1  41
ATOM     41  N22 BD5 d   1       6.877  19.240  23.043  0.00  0.00    -0.346 N 
ATOM     42  C21 BD5 d   1       5.817  19.918  23.532  0.00  0.00     0.241 C 
ATOM     43  O23 BD5 d   1       4.765  19.378  23.900  0.00  0.00    -0.271 OA
ATOM     44  H18 BD5 d   1       7.706  19.740  22.793  0.00  0.00     0.163 HD
BRANCH  42  45
ATOM     45  C12 BD5 d   1       5.890  21.481  23.540  0.00  0.00     0.095 C 
ATOM     46  H19 BD5 d   1       4.904  21.739  23.125  0.00  0.00     0.088 H 
BRANCH  45  47
ATOM     47  C13 BD5 d   1       5.822  22.245  24.914  0.00  0.00    -0.014 C 
ATOM     48  H20 BD5 d   1       6.500  21.760  25.631  0.00  0.00     0.043 H 
ATOM     49  H21 BD5 d   1       4.792  22.206  25.299  0.00  0.00     0.043 H 
BRANCH  47  50
ATOM     50  C14 BD5 d   1       6.243  23.724  24.735  0.00  0.00    -0.056 A 
ATOM     51  C19 BD5 d   1       7.133  24.275  25.667  0.00  0.00    -0.074 A 
ATOM     52  C18 BD5 d   1       7.548  25.597  25.525  0.00  0.00    -0.051 A 
ATOM     53  H22 BD5 d   1       7.496  23.676  26.494  0.00  0.00     0.084 H 
ATOM     54  C17 BD5 d   1       7.095  26.367  24.451  0.00  0.00     0.065 A 
ATOM     55  H23 BD5 d   1       8.226  26.030  26.251  0.00  0.00     0.087 H 
ATOM     56  C16 BD5 d   1       6.227  25.835  23.499  0.00  0.00    -0.051 A 
ATOM     57  C15 BD5 d   1       5.801  24.510  23.647  0.00  0.00    -0.074 A 
ATOM     58  H25 BD5 d   1       5.889  26.435  22.662  0.00  0.00     0.087 H 
ATOM     59  H26 BD5 d   1       5.123  24.081  22.918  0.00  0.00     0.084 H 
BRANCH  54  60
ATOM     60  O20 BD5 d   1       7.525  27.635  24.346  0.00  0.00    -0.361 OA
ATOM     61  H24 BD5 d   1       7.266  28.121  25.120  0.00  0.00     0.217 HD
ENDBRANCH  54  60
ENDBRANCH  47  50
ENDBRANCH  45  47
BRANCH  45  62
ATOM     62  N10 BD5 d   1       6.820  22.039  22.472  0.00  0.00    -0.323 N 
ATOM     63  C9  BD5 d   1       8.137  22.361  22.473  0.00  0.00     0.361 C 
ATOM     64  O11 BD5 d   1       8.952  22.217  23.384  0.00  0.00    -0.238 OA
ATOM     65  H27 BD5 d   1       6.370  22.200  21.594  0.00  0.00     0.165 HD
BRANCH  63  66
ATOM     66  O8  BD5 d   1       8.606  22.866  21.284  0.00  0.00    -0.299 OA
BRANCH  66  67
ATOM     67  C7  BD5 d   1       8.588  24.282  21.043  0.00  0.00     0.054 C 
ATOM     68  H28 BD5 d   1       9.607  24.555  20.733  0.00  0.00     0.082 H 
ATOM     69  H29 BD5 d   1       8.359  24.756  22.009  0.00  0.00     0.082 H 
BRANCH  67  70
ATOM     70  C3  BD5 d   1       7.736  24.856  20.119  0.00  0.00    -0.034 A 
ATOM     71  C2  BD5 d   1       6.738  24.074  19.518  0.00  0.00    -0.075 A 
ATOM     72  C1  BD5 d   1       5.854  24.620  18.586  0.00  0.00    -0.082 A 
ATOM     73  H30 BD5 d   1       6.652  23.026  19.782  0.00  0.00     0.084 H 
ATOM     74  C6  BD5 d   1       5.986  25.971  18.273  0.00  0.00    -0.083 A 
ATOM     75  H31 BD5 d   1       5.088  24.011  18.120  0.00  0.00     0.083 H 
ATOM     76  C5  BD5 d   1       6.985  26.749  18.880  0.00  0.00    -0.082 A 
ATOM     77  H32 BD5 d   1       5.312  26.425  17.555  0.00  0.00     0.083 H 
ATOM     78  C4  BD5 d   1       7.880  26.212  19.810  0.00  0.00    -0.075 A 
ATOM     79  H33 BD5 d   1       7.065  27.798  18.619  0.00  0.00     0.083 H 
ATOM     80  H34 BD5 d   1       8.651  26.819  20.271  0.00  0.00     0.084 H 
ENDBRANCH  67  70
ENDBRANCH  66  67
ENDBRANCH  63  66
ENDBRANCH  45  62
ENDBRANCH  42  45
ENDBRANCH   1  41
TORSDOF 17
