REMARK  17 active torsions:
REMARK  status: ('A' for Active; 'I' for Inactive)
REMARK    1  A    between atoms: CG_9  and  CB_10 
REMARK    2  A    between atoms: CB_10  and  CA_11 
REMARK    3  A    between atoms: CA_11  and  C_12 
REMARK    4  A    between atoms: CA_11  and  N_16 
REMARK       I    between atoms: C_12  and  NBC_14 
REMARK    5  A    between atoms: NBC_14  and  OAF_15 
REMARK       I    between atoms: N_16  and  CBK_17 
REMARK    6  A    between atoms: CBK_17  and  CBU_19 
REMARK    7  A    between atoms: CBU_19  and  CAZ_20 
REMARK    8  A    between atoms: CBU_19  and  NBV_27 
REMARK    9  A    between atoms: CAZ_20  and  CBN_21 
REMARK   10  A    between atoms: NBV_27  and  CAA_28 
REMARK       I    between atoms: NBV_27  and  CBL_29 
REMARK   11  A    between atoms: CBL_29  and  CBT_31 
REMARK   12  A    between atoms: CBT_31  and  CAY_32 
REMARK   13  A    between atoms: CBT_31  and  NBD_38 
REMARK   14  A    between atoms: CAY_32  and  CBO_33 
REMARK       I    between atoms: NBD_38  and  CBI_39 
REMARK   15  A    between atoms: CBI_39  and  OBH_41 
REMARK   16  A    between atoms: OBH_41  and  CAX_42 
REMARK   17  A    between atoms: CAX_42  and  CBM_43 
ROOT
ATOM      1  CBU BD6 d   1       5.040  21.825  25.654  0.00  0.00     0.095 C 
ATOM      2  H13 BD6 d   1       4.367  21.302  24.958  0.00  0.00     0.088 H 
ENDROOT
BRANCH   1   3
ATOM      3  CBK BD6 d   1       5.626  23.066  24.953  0.00  0.00     0.241 C 
ATOM      4  N   BD6 d   1       5.727  22.967  23.619  0.00  0.00    -0.346 N 
ATOM      5  H12 BD6 d   1       5.427  22.116  23.189  0.00  0.00     0.163 HD
ATOM      6  OAD BD6 d   1       5.971  24.053  25.603  0.00  0.00    -0.271 OA
BRANCH   4   7
ATOM      7  CA  BD6 d   1       6.256  24.040  22.740  0.00  0.00     0.095 C 
ATOM      8  H9  BD6 d   1       7.186  24.437  23.172  0.00  0.00     0.088 H 
BRANCH   7   9
ATOM      9  CB  BD6 d   1       6.563  23.459  21.348  0.00  0.00    -0.012 C 
ATOM     10  H7  BD6 d   1       7.215  22.582  21.473  0.00  0.00     0.044 H 
ATOM     11  H8  BD6 d   1       5.615  23.148  20.884  0.00  0.00     0.044 H 
BRANCH   9  12
ATOM     12  CG  BD6 d   1       7.260  24.452  20.408  0.00  0.00    -0.028 A 
ATOM     13  CD2 BD6 d   1       6.630  25.402  19.628  0.00  0.00    -0.002 A 
ATOM     14  CE3 BD6 d   1       5.298  25.761  19.451  0.00  0.00    -0.070 A 
ATOM     15  CE2 BD6 d   1       7.626  26.070  18.938  0.00  0.00     0.042 A 
ATOM     16  CZ3 BD6 d   1       4.952  26.792  18.593  0.00  0.00    -0.082 A 
ATOM     17  H1  BD6 d   1       4.523  25.229  19.990  0.00  0.00     0.084 H 
ATOM     18  CH2 BD6 d   1       5.948  27.461  17.900  0.00  0.00    -0.081 A 
ATOM     19  H2  BD6 d   1       3.913  27.073  18.465  0.00  0.00     0.083 H 
ATOM     20  CZ2 BD6 d   1       7.281  27.098  18.073  0.00  0.00    -0.056 A 
ATOM     21  H3  BD6 d   1       5.689  28.267  17.223  0.00  0.00     0.083 H 
ATOM     22  H4  BD6 d   1       8.056  27.623  17.527  0.00  0.00     0.086 H 
ATOM     23  NE1 BD6 d   1       8.789  25.531  19.286  0.00  0.00    -0.365 N 
ATOM     24  CD1 BD6 d   1       8.566  24.553  20.169  0.00  0.00    -0.015 A 
ATOM     25  H5  BD6 d   1       9.712  25.820  18.933  0.00  0.00     0.165 HD
ATOM     26  H6  BD6 d   1       9.336  23.932  20.624  0.00  0.00     0.112 H 
ENDBRANCH   9  12
ENDBRANCH   7   9
BRANCH   7  27
ATOM     27  C   BD6 d   1       5.220  25.180  22.653  0.00  0.00     0.264 C 
ATOM     28  O   BD6 d   1       4.030  24.976  22.393  0.00  0.00    -0.269 OA
ATOM     29  NBC BD6 d   1       5.729  26.386  22.876  0.00  0.00    -0.236 N 
ATOM     30  H10 BD6 d   1       6.705  26.475  23.075  0.00  0.00     0.197 HD
BRANCH  29  31
ATOM     31  OAF BD6 d   1       4.952  27.506  22.840  0.00  0.00    -0.287 OA
ATOM     32  H11 BD6 d   1       5.489  28.268  23.023  0.00  0.00     0.244 HD
ENDBRANCH  29  31
ENDBRANCH   7  27
ENDBRANCH   4   7
ENDBRANCH   1   3
BRANCH   1  33
ATOM     33  CAZ BD6 d   1       4.231  22.271  26.889  0.00  0.00    -0.014 C 
ATOM     34  H14 BD6 d   1       3.401  22.908  26.549  0.00  0.00     0.043 H 
ATOM     35  H15 BD6 d   1       4.894  22.853  27.546  0.00  0.00     0.043 H 
BRANCH  33  36
ATOM     36  CBN BD6 d   1       3.648  21.110  27.698  0.00  0.00    -0.056 A 
ATOM     37  CAQ BD6 d   1       4.382  20.557  28.743  0.00  0.00    -0.077 A 
ATOM     38  CAK BD6 d   1       3.858  19.506  29.488  0.00  0.00    -0.082 A 
ATOM     39  H16 BD6 d   1       5.366  20.947  28.977  0.00  0.00     0.084 H 
ATOM     40  CAH BD6 d   1       2.594  19.002  29.184  0.00  0.00    -0.083 A 
ATOM     41  H17 BD6 d   1       4.431  19.079  30.303  0.00  0.00     0.083 H 
ATOM     42  CAL BD6 d   1       1.858  19.554  28.135  0.00  0.00    -0.082 A 
ATOM     43  H18 BD6 d   1       2.183  18.182  29.762  0.00  0.00     0.083 H 
ATOM     44  CAR BD6 d   1       2.387  20.611  27.397  0.00  0.00    -0.077 A 
ATOM     45  H19 BD6 d   1       0.877  19.161  27.895  0.00  0.00     0.083 H 
ATOM     46  H20 BD6 d   1       1.813  21.045  26.586  0.00  0.00     0.084 H 
ENDBRANCH  33  36
ENDBRANCH   1  33
BRANCH   1  47
ATOM     47  NBV BD6 d   1       6.142  20.901  26.042  0.00  0.00    -0.341 N 
ATOM     48  CBL BD6 d   1       6.036  19.558  25.962  0.00  0.00     0.243 C 
ATOM     49  OAE BD6 d   1       6.958  18.799  26.265  0.00  0.00    -0.271 OA
BRANCH  47  50
ATOM     50  CAA BD6 d   1       7.448  21.380  26.561  0.00  0.00    -0.015 C 
ATOM     51  H21 BD6 d   1       8.095  20.517  26.777  0.00  0.00     0.056 H 
ATOM     52  H22 BD6 d   1       7.287  21.957  27.483  0.00  0.00     0.056 H 
ATOM     53  H23 BD6 d   1       7.930  22.020  25.807  0.00  0.00     0.056 H 
ENDBRANCH  47  50
BRANCH  48  54
ATOM     54  CBT BD6 d   1       4.731  18.959  25.410  0.00  0.00     0.097 C 
ATOM     55  H24 BD6 d   1       3.966  19.734  25.255  0.00  0.00     0.088 H 
BRANCH  54  56
ATOM     56  CAY BD6 d   1       4.172  17.858  26.309  0.00  0.00     0.004 C 
ATOM     57  H25 BD6 d   1       4.041  18.266  27.322  0.00  0.00     0.046 H 
ATOM     58  H26 BD6 d   1       4.894  17.029  26.338  0.00  0.00     0.046 H 
BRANCH  56  59
ATOM     59  CBO BD6 d   1       2.817  17.311  25.822  0.00  0.00     0.053 A 
ATOM     60  CAV BD6 d   1       2.165  17.599  24.692  0.00  0.00     0.002 A 
ATOM     61  NBF BD6 d   1       1.033  16.900  24.674  0.00  0.00    -0.359 N 
ATOM     62  H27 BD6 d   1       2.502  18.288  23.919  0.00  0.00     0.114 H 
ATOM     63  CAS BD6 d   1       0.972  16.181  25.788  0.00  0.00     0.064 A 
ATOM     64  H28 BD6 d   1       0.326  16.914  23.925  0.00  0.00     0.166 HD
ATOM     65  NBB BD6 d   1       2.071  16.434  26.495  0.00  0.00    -0.247 NA
ATOM     66  H29 BD6 d   1       0.167  15.505  26.073  0.00  0.00     0.143 H 
ENDBRANCH  56  59
ENDBRANCH  54  56
BRANCH  54  67
ATOM     67  NBD BD6 d   1       5.195  18.399  24.157  0.00  0.00    -0.323 N 
ATOM     68  CBI BD6 d   1       5.129  19.115  23.056  0.00  0.00     0.361 C 
ATOM     69  OAB BD6 d   1       4.624  20.239  23.015  0.00  0.00    -0.238 OA
ATOM     70  H30 BD6 d   1       5.565  17.470  24.130  0.00  0.00     0.165 HD
BRANCH  68  71
ATOM     71  OBH BD6 d   1       5.630  18.571  21.916  0.00  0.00    -0.299 OA
BRANCH  71  72
ATOM     72  CAX BD6 d   1       6.011  19.672  21.014  0.00  0.00     0.054 C 
ATOM     73  H31 BD6 d   1       6.187  20.539  21.667  0.00  0.00     0.082 H 
ATOM     74  H32 BD6 d   1       5.126  19.858  20.388  0.00  0.00     0.082 H 
BRANCH  72  75
ATOM     75  CBM BD6 d   1       7.070  19.645  20.150  0.00  0.00    -0.034 A 
ATOM     76  CAO BD6 d   1       7.949  18.564  20.155  0.00  0.00    -0.075 A 
ATOM     77  CAI BD6 d   1       9.014  18.566  19.280  0.00  0.00    -0.082 A 
ATOM     78  H33 BD6 d   1       7.798  17.735  20.836  0.00  0.00     0.084 H 
ATOM     79  CAG BD6 d   1       9.178  19.652  18.428  0.00  0.00    -0.083 A 
ATOM     80  H34 BD6 d   1       9.711  17.736  19.257  0.00  0.00     0.083 H 
ATOM     81  CAJ BD6 d   1       8.300  20.726  18.429  0.00  0.00    -0.082 A 
ATOM     82  H35 BD6 d   1      10.017  19.660  17.742  0.00  0.00     0.083 H 
ATOM     83  CAP BD6 d   1       7.233  20.736  19.298  0.00  0.00    -0.075 A 
ATOM     84  H36 BD6 d   1       8.454  21.555  17.747  0.00  0.00     0.083 H 
ATOM     85  H37 BD6 d   1       6.539  21.569  19.319  0.00  0.00     0.084 H 
ENDBRANCH  72  75
ENDBRANCH  71  72
ENDBRANCH  68  71
ENDBRANCH  54  67
ENDBRANCH  48  54
ENDBRANCH   1  47
TORSDOF 17
