REMARK  27 active torsions:
REMARK  status: ('A' for Active; 'I' for Inactive)
REMARK    1  A    between atoms: CAA_1  and  CAW_2 
REMARK    2  A    between atoms: CAW_2  and  CAX_3 
REMARK    3  A    between atoms: CAX_3  and  CAY_4 
REMARK    4  A    between atoms: CAY_4  and  CAZ_5 
REMARK    5  A    between atoms: CAZ_5  and  CBA_6 
REMARK    6  A    between atoms: CBA_6  and  CBB_7 
REMARK    7  A    between atoms: CBB_7  and  CBC_8 
REMARK    8  A    between atoms: CBC_8  and  CBD_9 
REMARK    9  A    between atoms: CBD_9  and  CBE_10 
REMARK   10  A    between atoms: CBE_10  and  CBQ_11 
REMARK       I    between atoms: CBQ_11  and  NBM_13 
REMARK   11  A    between atoms: NBM_13  and  CCA_14 
REMARK   12  A    between atoms: CCA_14  and  CBJ_15 
REMARK   13  A    between atoms: CCA_14  and  CBS_21 
REMARK   14  A    between atoms: CBJ_15  and  CBY_16 
REMARK       I    between atoms: CBS_21  and  N_23 
REMARK   15  A    between atoms: N_23  and  CA_24 
REMARK   16  A    between atoms: CA_24  and  CB_25 
REMARK   17  A    between atoms: CA_24  and  C_32 
REMARK   18  A    between atoms: CB_25  and  CG_26 
REMARK       I    between atoms: C_32  and  NBO_34 
REMARK   19  A    between atoms: NBO_34  and  CCB_35 
REMARK   20  A    between atoms: CCB_35  and  CBI_36 
REMARK   21  A    between atoms: CCB_35  and  CBT_44 
REMARK   22  A    between atoms: CBI_36  and  CBW_37 
REMARK   23  A    between atoms: CBU_40  and  OAG_41 
REMARK       I    between atoms: CBT_44  and  NCC_46 
REMARK   24  A    between atoms: NCC_46  and  CAB_47 
REMARK   25  A    between atoms: NCC_46  and  CBG_48 
REMARK   26  A    between atoms: CBG_48  and  CBF_49 
REMARK   27  A    between atoms: CBF_49  and  CBX_50 
ROOT
ATOM      1  CA  BD8 d   1       6.578  19.719  23.046  0.00  0.00     0.093 C 
ATOM      2  H30 BD8 d   1       7.605  19.800  23.432  0.00  0.00     0.088 H 
ENDROOT
BRANCH   1   3
ATOM      3  N   BD8 d   1       5.674  19.160  24.061  0.00  0.00    -0.346 N 
ATOM      4  CBS BD8 d   1       6.114  18.185  24.840  0.00  0.00     0.241 C 
ATOM      5  OAE BD8 d   1       7.238  17.681  24.787  0.00  0.00    -0.271 OA
ATOM      6  H29 BD8 d   1       4.743  19.510  24.161  0.00  0.00     0.163 HD
BRANCH   4   7
ATOM      7  CCA BD8 d   1       5.063  17.626  25.784  0.00  0.00     0.094 C 
ATOM      8  H23 BD8 d   1       5.537  17.163  26.662  0.00  0.00     0.088 H 
BRANCH   7   9
ATOM      9  NBM BD8 d   1       4.134  18.675  26.254  0.00  0.00    -0.347 N 
ATOM     10  CBQ BD8 d   1       4.463  19.826  26.812  0.00  0.00     0.218 C 
ATOM     11  OAC BD8 d   1       5.597  20.279  27.051  0.00  0.00    -0.274 OA
ATOM     12  H22 BD8 d   1       3.157  18.495  26.138  0.00  0.00     0.163 HD
BRANCH  10  13
ATOM     13  CBE BD8 d   1       3.216  20.585  27.147  0.00  0.00     0.009 C 
ATOM     14  H20 BD8 d   1       3.042  21.356  26.382  0.00  0.00     0.047 H 
ATOM     15  H21 BD8 d   1       2.362  19.892  27.171  0.00  0.00     0.047 H 
BRANCH  13  16
ATOM     16  CBD BD8 d   1       3.363  21.243  28.495  0.00  0.00    -0.057 C 
ATOM     17  H18 BD8 d   1       3.311  20.491  29.296  0.00  0.00     0.033 H 
ATOM     18  H19 BD8 d   1       4.321  21.779  28.557  0.00  0.00     0.033 H 
BRANCH  16  19
ATOM     19  CBC BD8 d   1       2.204  22.217  28.609  0.00  0.00    -0.065 C 
ATOM     20  H16 BD8 d   1       2.569  23.166  29.029  0.00  0.00     0.033 H 
ATOM     21  H17 BD8 d   1       1.783  22.397  27.609  0.00  0.00     0.033 H 
BRANCH  19  22
ATOM     22  CBB BD8 d   1       1.124  21.656  29.510  0.00  0.00    -0.065 C 
ATOM     23  H14 BD8 d   1       0.134  21.934  29.120  0.00  0.00     0.033 H 
ATOM     24  H15 BD8 d   1       1.207  20.560  29.551  0.00  0.00     0.033 H 
BRANCH  22  25
ATOM     25  CBA BD8 d   1       1.311  22.240  30.908  0.00  0.00    -0.065 C 
ATOM     26  H12 BD8 d   1       1.426  21.416  31.627  0.00  0.00     0.033 H 
ATOM     27  H13 BD8 d   1       2.218  22.863  30.917  0.00  0.00     0.033 H 
BRANCH  25  28
ATOM     28  CAZ BD8 d   1       0.111  23.101  31.324  0.00  0.00    -0.065 C 
ATOM     29  H10 BD8 d   1      -0.808  22.505  31.223  0.00  0.00     0.033 H 
ATOM     30  H11 BD8 d   1       0.237  23.405  32.373  0.00  0.00     0.033 H 
BRANCH  28  31
ATOM     31  CAY BD8 d   1      -0.013  24.349  30.459  0.00  0.00    -0.065 C 
ATOM     32  H8  BD8 d   1       0.787  24.350  29.704  0.00  0.00     0.033 H 
ATOM     33  H9  BD8 d   1      -0.992  24.349  29.957  0.00  0.00     0.033 H 
BRANCH  31  34
ATOM     34  CAX BD8 d   1       0.112  25.617  31.342  0.00  0.00    -0.065 C 
ATOM     35  H6  BD8 d   1      -0.519  25.496  32.235  0.00  0.00     0.033 H 
ATOM     36  H7  BD8 d   1       1.161  25.739  31.648  0.00  0.00     0.033 H 
BRANCH  34  37
ATOM     37  CAW BD8 d   1      -0.334  26.865  30.583  0.00  0.00    -0.069 C 
ATOM     38  H4  BD8 d   1       0.352  27.030  29.739  0.00  0.00     0.032 H 
ATOM     39  H5  BD8 d   1      -1.353  26.702  30.201  0.00  0.00     0.032 H 
BRANCH  37  40
ATOM     40  CAA BD8 d   1      -0.334  28.111  31.469  0.00  0.00    -0.077 C 
ATOM     41  H1  BD8 d   1      -0.661  28.980  30.879  0.00  0.00     0.027 H 
ATOM     42  H2  BD8 d   1       0.682  28.289  31.852  0.00  0.00     0.027 H 
ATOM     43  H3  BD8 d   1      -1.023  27.960  32.313  0.00  0.00     0.027 H 
ENDBRANCH  37  40
ENDBRANCH  34  37
ENDBRANCH  31  34
ENDBRANCH  28  31
ENDBRANCH  25  28
ENDBRANCH  22  25
ENDBRANCH  19  22
ENDBRANCH  16  19
ENDBRANCH  13  16
ENDBRANCH  10  13
ENDBRANCH   7   9
BRANCH   7  44
ATOM     44  CBJ BD8 d   1       4.372  16.523  24.889  0.00  0.00     0.002 C 
ATOM     45  H24 BD8 d   1       4.741  15.542  25.223  0.00  0.00     0.046 H 
ATOM     46  H25 BD8 d   1       4.681  16.695  23.847  0.00  0.00     0.046 H 
BRANCH  44  47
ATOM     47  CBY BD8 d   1       2.849  16.481  24.920  0.00  0.00     0.030 A 
ATOM     48  CAV BD8 d   1       2.030  16.718  23.910  0.00  0.00     0.025 A 
ATOM     49  NBP BD8 d   1       0.799  16.583  24.382  0.00  0.00    -0.254 NA
ATOM     50  H26 BD8 d   1       2.312  16.974  22.890  0.00  0.00     0.117 H 
ATOM     51  CAU BD8 d   1       0.845  16.250  25.666  0.00  0.00     0.063 A 
ATOM     52  NBL BD8 d   1       2.122  16.197  25.990  0.00  0.00    -0.353 N 
ATOM     53  H27 BD8 d   1      -0.003  16.059  26.322  0.00  0.00     0.143 H 
ATOM     54  H28 BD8 d   1       2.494  15.971  26.924  0.00  0.00     0.166 HD
ENDBRANCH  44  47
ENDBRANCH   7  44
ENDBRANCH   4   7
ENDBRANCH   1   3
BRANCH   1  55
ATOM     55  CB  BD8 d   1       6.468  18.698  21.862  0.00  0.00    -0.014 C 
ATOM     56  H31 BD8 d   1       5.408  18.549  21.609  0.00  0.00     0.043 H 
ATOM     57  H32 BD8 d   1       6.911  17.739  22.168  0.00  0.00     0.043 H 
BRANCH  55  58
ATOM     58  CG  BD8 d   1       7.222  19.235  20.612  0.00  0.00    -0.056 A 
ATOM     59  CD1 BD8 d   1       6.590  20.166  19.774  0.00  0.00    -0.077 A 
ATOM     60  CE1 BD8 d   1       7.323  20.643  18.658  0.00  0.00    -0.082 A 
ATOM     61  H33 BD8 d   1       5.580  20.507  19.972  0.00  0.00     0.084 H 
ATOM     62  CZ  BD8 d   1       8.648  20.223  18.458  0.00  0.00    -0.083 A 
ATOM     63  H34 BD8 d   1       6.861  21.331  17.960  0.00  0.00     0.083 H 
ATOM     64  CE2 BD8 d   1       9.258  19.301  19.309  0.00  0.00    -0.082 A 
ATOM     65  H35 BD8 d   1       9.210  20.625  17.623  0.00  0.00     0.083 H 
ATOM     66  CD2 BD8 d   1       8.565  18.803  20.419  0.00  0.00    -0.077 A 
ATOM     67  H36 BD8 d   1      10.271  18.969  19.110  0.00  0.00     0.083 H 
ATOM     68  H37 BD8 d   1       9.035  18.111  21.109  0.00  0.00     0.084 H 
ENDBRANCH  55  58
ENDBRANCH   1  55
BRANCH   1  69
ATOM     69  C   BD8 d   1       6.103  21.064  22.517  0.00  0.00     0.241 C 
ATOM     70  O   BD8 d   1       4.911  21.315  22.345  0.00  0.00    -0.271 OA
ATOM     71  NBO BD8 d   1       7.079  21.911  22.237  0.00  0.00    -0.346 N 
ATOM     72  H38 BD8 d   1       8.022  21.652  22.446  0.00  0.00     0.163 HD
BRANCH  71  73
ATOM     73  CCB BD8 d   1       6.816  23.231  21.624  0.00  0.00     0.093 C 
ATOM     74  H39 BD8 d   1       6.209  23.038  20.727  0.00  0.00     0.088 H 
BRANCH  73  75
ATOM     75  CBI BD8 d   1       5.980  24.190  22.472  0.00  0.00    -0.014 C 
ATOM     76  H40 BD8 d   1       4.984  23.755  22.640  0.00  0.00     0.043 H 
ATOM     77  H41 BD8 d   1       5.877  25.149  21.943  0.00  0.00     0.043 H 
BRANCH  75  78
ATOM     78  CBW BD8 d   1       6.649  24.420  23.789  0.00  0.00    -0.056 A 
ATOM     79  CAS BD8 d   1       6.390  23.509  24.849  0.00  0.00    -0.074 A 
ATOM     80  CAQ BD8 d   1       6.970  23.750  26.090  0.00  0.00    -0.051 A 
ATOM     81  H42 BD8 d   1       5.754  22.645  24.694  0.00  0.00     0.084 H 
ATOM     82  CBU BD8 d   1       7.799  24.866  26.247  0.00  0.00     0.065 A 
ATOM     83  H43 BD8 d   1       6.782  23.083  26.924  0.00  0.00     0.087 H 
ATOM     84  CAR BD8 d   1       8.030  25.783  25.183  0.00  0.00    -0.051 A 
ATOM     85  CAT BD8 d   1       7.449  25.574  23.927  0.00  0.00    -0.074 A 
ATOM     86  H45 BD8 d   1       8.661  26.649  25.347  0.00  0.00     0.087 H 
ATOM     87  H46 BD8 d   1       7.605  26.262  23.104  0.00  0.00     0.084 H 
BRANCH  82  88
ATOM     88  OAG BD8 d   1       8.429  25.030  27.450  0.00  0.00    -0.361 OA
ATOM     89  H44 BD8 d   1       8.957  25.820  27.425  0.00  0.00     0.217 HD
ENDBRANCH  82  88
ENDBRANCH  75  78
ENDBRANCH  73  75
BRANCH  73  90
ATOM     90  CBT BD8 d   1       8.168  23.826  21.122  0.00  0.00     0.242 C 
ATOM     91  OAF BD8 d   1       9.202  23.456  21.714  0.00  0.00    -0.271 OA
ATOM     92  NCC BD8 d   1       8.152  24.657  20.055  0.00  0.00    -0.354 N 
BRANCH  92  93
ATOM     93  CAB BD8 d   1       9.451  25.170  19.610  0.00  0.00    -0.016 C 
ATOM     94  H47 BD8 d   1       9.307  25.830  18.742  0.00  0.00     0.056 H 
ATOM     95  H48 BD8 d   1      10.100  24.328  19.327  0.00  0.00     0.056 H 
ATOM     96  H49 BD8 d   1       9.921  25.737  20.427  0.00  0.00     0.056 H 
ENDBRANCH  92  93
BRANCH  92  97
ATOM     97  CBG BD8 d   1       6.944  25.083  19.324  0.00  0.00     0.002 C 
ATOM     98  H50 BD8 d   1       6.050  24.695  19.833  0.00  0.00     0.064 H 
ATOM     99  H51 BD8 d   1       6.979  24.693  18.296  0.00  0.00     0.064 H 
BRANCH  97 100
ATOM    100  CBF BD8 d   1       6.889  26.624  19.289  0.00  0.00    -0.010 C 
ATOM    101  H52 BD8 d   1       7.636  27.015  18.583  0.00  0.00     0.044 H 
ATOM    102  H53 BD8 d   1       7.081  27.034  20.291  0.00  0.00     0.044 H 
BRANCH 100 103
ATOM    103  CBX BD8 d   1       5.496  26.992  18.832  0.00  0.00     0.035 A 
ATOM    104  CAP BD8 d   1       5.293  27.716  17.674  0.00  0.00    -0.059 A 
ATOM    105  CAL BD8 d   1       3.991  28.016  17.282  0.00  0.00    -0.080 A 
ATOM    106  H54 BD8 d   1       6.136  28.047  17.078  0.00  0.00     0.086 H 
ATOM    107  CAI BD8 d   1       2.926  27.585  18.068  0.00  0.00    -0.066 A 
ATOM    108  H55 BD8 d   1       3.809  28.579  16.374  0.00  0.00     0.083 H 
ATOM    109  CAM BD8 d   1       3.186  26.878  19.225  0.00  0.00     0.002 A 
ATOM    110  H56 BD8 d   1       1.905  27.802  17.775  0.00  0.00     0.085 H 
ATOM    111  NBK BD8 d   1       4.443  26.601  19.566  0.00  0.00    -0.266 NA
ATOM    112  H57 BD8 d   1       2.368  26.549  19.855  0.00  0.00     0.114 H 
ENDBRANCH 100 103
ENDBRANCH  97 100
ENDBRANCH  92  97
ENDBRANCH  73  90
ENDBRANCH  71  73
ENDBRANCH   1  69
TORSDOF 27
