REMARK  27 active torsions:
REMARK  status: ('A' for Active; 'I' for Inactive)
REMARK    1  A    between atoms: C11_1  and  C10_2 
REMARK    2  A    between atoms: C10_2  and  C9_3 
REMARK    3  A    between atoms: C9_3  and  C1_4 
REMARK    4  A    between atoms: C1_4  and  C2_5 
REMARK    5  A    between atoms: C2_5  and  C3_6 
REMARK    6  A    between atoms: C3_6  and  C4_7 
REMARK    7  A    between atoms: C4_7  and  C5_8 
REMARK    8  A    between atoms: C5_8  and  C6_9 
REMARK    9  A    between atoms: C6_9  and  C7_10 
REMARK   10  A    between atoms: C7_10  and  C8_11 
REMARK       I    between atoms: C8_11  and  N1_13 
REMARK   11  A    between atoms: N1_13  and  C12_14 
REMARK   12  A    between atoms: C12_14  and  C27_15 
REMARK   13  A    between atoms: C12_14  and  C13_21 
REMARK   14  A    between atoms: C27_15  and  C28_16 
REMARK       I    between atoms: C13_21  and  N2_23 
REMARK   15  A    between atoms: N2_23  and  C14_24 
REMARK   16  A    between atoms: C14_24  and  C31_25 
REMARK   17  A    between atoms: C14_24  and  C15_31 
REMARK   18  A    between atoms: C31_25  and  C32_26 
REMARK       I    between atoms: C15_31  and  N3_33 
REMARK   19  A    between atoms: N3_33  and  C16_34 
REMARK   20  A    between atoms: C16_34  and  C17_35 
REMARK   21  A    between atoms: C16_34  and  C18_43 
REMARK   22  A    between atoms: C17_35  and  C38_36 
REMARK   23  A    between atoms: C35_39  and  O5_40 
REMARK       I    between atoms: C18_43  and  N4_45 
REMARK   24  A    between atoms: N4_45  and  C19_46 
REMARK   25  A    between atoms: N4_45  and  C20_47 
REMARK   26  A    between atoms: C20_47  and  C21_48 
REMARK   27  A    between atoms: C21_48  and  C24_49 
ROOT
ATOM      1  C14 BD9 d   1       4.987  19.341  24.545  0.00  0.00     0.094 C 
ATOM      2  H30 BD9 d   1       4.143  20.045  24.509  0.00  0.00     0.088 H 
ENDROOT
BRANCH   1   3
ATOM      3  N2  BD9 d   1       4.986  18.569  23.262  0.00  0.00    -0.346 N 
ATOM      4  C13 BD9 d   1       4.771  19.212  22.092  0.00  0.00     0.241 C 
ATOM      5  O2  BD9 d   1       4.659  20.431  22.051  0.00  0.00    -0.271 OA
ATOM      6  H29 BD9 d   1       5.144  17.582  23.270  0.00  0.00     0.163 HD
BRANCH   4   7
ATOM      7  C12 BD9 d   1       4.648  18.510  20.689  0.00  0.00     0.094 C 
ATOM      8  H23 BD9 d   1       3.569  18.493  20.474  0.00  0.00     0.088 H 
BRANCH   7   9
ATOM      9  N1  BD9 d   1       5.208  19.495  19.766  0.00  0.00    -0.347 N 
ATOM     10  C8  BD9 d   1       6.483  19.871  19.682  0.00  0.00     0.218 C 
ATOM     11  O1  BD9 d   1       7.422  19.392  20.320  0.00  0.00    -0.274 OA
ATOM     12  H22 BD9 d   1       4.569  19.931  19.133  0.00  0.00     0.163 HD
BRANCH  10  13
ATOM     13  C7  BD9 d   1       6.799  21.000  18.693  0.00  0.00     0.009 C 
ATOM     14  H20 BD9 d   1       7.473  20.653  17.896  0.00  0.00     0.047 H 
ATOM     15  H21 BD9 d   1       5.879  21.404  18.245  0.00  0.00     0.047 H 
BRANCH  13  16
ATOM     16  C6  BD9 d   1       7.476  22.030  19.571  0.00  0.00    -0.057 C 
ATOM     17  H18 BD9 d   1       7.166  21.844  20.610  0.00  0.00     0.033 H 
ATOM     18  H19 BD9 d   1       8.563  21.887  19.482  0.00  0.00     0.033 H 
BRANCH  16  19
ATOM     19  C5  BD9 d   1       7.173  23.461  19.250  0.00  0.00    -0.065 C 
ATOM     20  H16 BD9 d   1       7.006  23.567  18.168  0.00  0.00     0.033 H 
ATOM     21  H17 BD9 d   1       6.269  23.775  19.793  0.00  0.00     0.033 H 
BRANCH  19  22
ATOM     22  C4  BD9 d   1       8.342  24.331  19.669  0.00  0.00    -0.065 C 
ATOM     23  H14 BD9 d   1       8.523  24.162  20.741  0.00  0.00     0.033 H 
ATOM     24  H15 BD9 d   1       9.224  24.014  19.093  0.00  0.00     0.033 H 
BRANCH  22  25
ATOM     25  C3  BD9 d   1       8.155  25.836  19.454  0.00  0.00    -0.065 C 
ATOM     26  H12 BD9 d   1       7.899  26.300  20.418  0.00  0.00     0.033 H 
ATOM     27  H13 BD9 d   1       9.100  26.259  19.083  0.00  0.00     0.033 H 
BRANCH  25  28
ATOM     28  C2  BD9 d   1       7.047  26.156  18.447  0.00  0.00    -0.065 C 
ATOM     29  H10 BD9 d   1       7.492  26.712  17.609  0.00  0.00     0.033 H 
ATOM     30  H11 BD9 d   1       6.631  25.207  18.078  0.00  0.00     0.033 H 
BRANCH  28  31
ATOM     31  C1  BD9 d   1       5.909  26.985  19.019  0.00  0.00    -0.065 C 
ATOM     32  H8  BD9 d   1       5.182  26.321  19.511  0.00  0.00     0.033 H 
ATOM     33  H9  BD9 d   1       6.309  27.700  19.753  0.00  0.00     0.033 H 
BRANCH  31  34
ATOM     34  C9  BD9 d   1       5.221  27.746  17.890  0.00  0.00    -0.065 C 
ATOM     35  H6  BD9 d   1       5.681  28.744  17.843  0.00  0.00     0.033 H 
ATOM     36  H7  BD9 d   1       5.430  27.202  16.957  0.00  0.00     0.033 H 
BRANCH  34  37
ATOM     37  C10 BD9 d   1       3.696  27.952  17.964  0.00  0.00    -0.069 C 
ATOM     38  H4  BD9 d   1       3.518  28.958  18.372  0.00  0.00     0.032 H 
ATOM     39  H5  BD9 d   1       3.305  27.898  16.937  0.00  0.00     0.032 H 
BRANCH  37  40
ATOM     40  C11 BD9 d   1       2.897  26.964  18.813  0.00  0.00    -0.077 C 
ATOM     41  H1  BD9 d   1       1.830  27.228  18.776  0.00  0.00     0.027 H 
ATOM     42  H2  BD9 d   1       3.249  27.006  19.854  0.00  0.00     0.027 H 
ATOM     43  H3  BD9 d   1       3.037  25.946  18.420  0.00  0.00     0.027 H 
ENDBRANCH  37  40
ENDBRANCH  34  37
ENDBRANCH  31  34
ENDBRANCH  28  31
ENDBRANCH  25  28
ENDBRANCH  22  25
ENDBRANCH  19  22
ENDBRANCH  16  19
ENDBRANCH  13  16
ENDBRANCH  10  13
ENDBRANCH   7   9
BRANCH   7  44
ATOM     44  C27 BD9 d   1       5.030  17.038  20.523  0.00  0.00     0.002 C 
ATOM     45  H24 BD9 d   1       6.115  16.942  20.673  0.00  0.00     0.046 H 
ATOM     46  H25 BD9 d   1       4.772  16.726  19.500  0.00  0.00     0.046 H 
BRANCH  44  47
ATOM     47  C28 BD9 d   1       4.312  16.089  21.521  0.00  0.00     0.030 A 
ATOM     48  C29 BD9 d   1       3.003  15.970  21.705  0.00  0.00     0.025 A 
ATOM     49  N6  BD9 d   1       2.798  15.056  22.646  0.00  0.00    -0.254 NA
ATOM     50  H26 BD9 d   1       2.231  16.526  21.176  0.00  0.00     0.117 H 
ATOM     51  C30 BD9 d   1       3.960  14.601  23.081  0.00  0.00     0.063 A 
ATOM     52  N7  BD9 d   1       4.901  15.238  22.387  0.00  0.00    -0.353 N 
ATOM     53  H27 BD9 d   1       4.117  13.852  23.855  0.00  0.00     0.143 H 
ATOM     54  H28 BD9 d   1       5.917  15.103  22.494  0.00  0.00     0.166 HD
ENDBRANCH  44  47
ENDBRANCH   7  44
ENDBRANCH   4   7
ENDBRANCH   1   3
BRANCH   1  55
ATOM     55  C31 BD9 d   1       4.764  18.388  25.724  0.00  0.00     0.004 C 
ATOM     56  H31 BD9 d   1       4.743  18.965  26.660  0.00  0.00     0.046 H 
ATOM     57  H32 BD9 d   1       5.584  17.656  25.762  0.00  0.00     0.046 H 
BRANCH  55  58
ATOM     58  C32 BD9 d   1       3.421  17.644  25.550  0.00  0.00     0.053 A 
ATOM     59  C33 BD9 d   1       2.476  17.834  24.635  0.00  0.00     0.002 A 
ATOM     60  N8  BD9 d   1       1.472  16.940  24.837  0.00  0.00    -0.359 N 
ATOM     61  H33 BD9 d   1       2.502  18.587  23.848  0.00  0.00     0.114 H 
ATOM     62  C34 BD9 d   1       1.778  16.208  25.882  0.00  0.00     0.064 A 
ATOM     63  H34 BD9 d   1       0.618  16.852  24.268  0.00  0.00     0.166 HD
ATOM     64  N9  BD9 d   1       2.977  16.631  26.307  0.00  0.00    -0.247 NA
ATOM     65  H35 BD9 d   1       1.176  15.413  26.319  0.00  0.00     0.143 H 
ENDBRANCH  55  58
ENDBRANCH   1  55
BRANCH   1  66
ATOM     66  C15 BD9 d   1       6.263  20.165  24.762  0.00  0.00     0.241 C 
ATOM     67  O3  BD9 d   1       7.352  19.596  24.635  0.00  0.00    -0.271 OA
ATOM     68  N3  BD9 d   1       6.054  21.465  25.040  0.00  0.00    -0.346 N 
ATOM     69  H36 BD9 d   1       5.111  21.797  25.072  0.00  0.00     0.163 HD
BRANCH  68  70
ATOM     70  C16 BD9 d   1       7.146  22.427  25.300  0.00  0.00     0.093 C 
ATOM     71  H37 BD9 d   1       8.021  21.895  25.702  0.00  0.00     0.088 H 
BRANCH  70  72
ATOM     72  C17 BD9 d   1       7.520  23.191  24.022  0.00  0.00    -0.014 C 
ATOM     73  H38 BD9 d   1       7.532  22.458  23.202  0.00  0.00     0.043 H 
ATOM     74  H39 BD9 d   1       8.534  23.590  24.172  0.00  0.00     0.043 H 
BRANCH  72  75
ATOM     75  C38 BD9 d   1       6.635  24.371  23.560  0.00  0.00    -0.056 A 
ATOM     76  C37 BD9 d   1       5.528  24.113  22.763  0.00  0.00    -0.074 A 
ATOM     77  C36 BD9 d   1       4.730  25.165  22.315  0.00  0.00    -0.051 A 
ATOM     78  H40 BD9 d   1       5.284  23.093  22.489  0.00  0.00     0.084 H 
ATOM     79  C35 BD9 d   1       5.049  26.487  22.637  0.00  0.00     0.065 A 
ATOM     80  H41 BD9 d   1       3.854  24.956  21.712  0.00  0.00     0.087 H 
ATOM     81  C40 BD9 d   1       6.180  26.744  23.425  0.00  0.00    -0.051 A 
ATOM     82  C39 BD9 d   1       6.966  25.692  23.877  0.00  0.00    -0.074 A 
ATOM     83  H43 BD9 d   1       6.441  27.764  23.681  0.00  0.00     0.087 H 
ATOM     84  H44 BD9 d   1       7.843  25.897  24.480  0.00  0.00     0.084 H 
BRANCH  79  85
ATOM     85  O5  BD9 d   1       4.268  27.498  22.184  0.00  0.00    -0.361 OA
ATOM     86  H42 BD9 d   1       4.618  28.327  22.488  0.00  0.00     0.217 HD
ENDBRANCH  79  85
ENDBRANCH  72  75
ENDBRANCH  70  72
BRANCH  70  87
ATOM     87  C18 BD9 d   1       6.671  23.482  26.264  0.00  0.00     0.242 C 
ATOM     88  O4  BD9 d   1       5.479  23.671  26.269  0.00  0.00    -0.271 OA
ATOM     89  N4  BD9 d   1       7.548  24.149  27.047  0.00  0.00    -0.354 N 
BRANCH  89  90
ATOM     90  C19 BD9 d   1       6.956  25.165  27.956  0.00  0.00    -0.016 C 
ATOM     91  H45 BD9 d   1       7.755  25.643  28.542  0.00  0.00     0.056 H 
ATOM     92  H46 BD9 d   1       6.244  24.677  28.637  0.00  0.00     0.056 H 
ATOM     93  H47 BD9 d   1       6.431  25.927  27.362  0.00  0.00     0.056 H 
ENDBRANCH  89  90
BRANCH  89  94
ATOM     94  C20 BD9 d   1       9.004  23.882  27.095  0.00  0.00     0.002 C 
ATOM     95  H48 BD9 d   1       9.554  24.826  26.971  0.00  0.00     0.064 H 
ATOM     96  H49 BD9 d   1       9.277  23.190  26.285  0.00  0.00     0.064 H 
BRANCH  94  97
ATOM     97  C21 BD9 d   1       9.375  23.237  28.482  0.00  0.00    -0.010 C 
ATOM     98  H50 BD9 d   1       9.105  23.930  29.292  0.00  0.00     0.044 H 
ATOM     99  H51 BD9 d   1      10.456  23.037  28.515  0.00  0.00     0.044 H 
BRANCH  97 100
ATOM    100  C24 BD9 d   1       8.616  21.937  28.657  0.00  0.00     0.035 A 
ATOM    101  C25 BD9 d   1       8.902  20.883  27.842  0.00  0.00    -0.059 A 
ATOM    102  C26 BD9 d   1       8.187  19.678  27.970  0.00  0.00    -0.080 A 
ATOM    103  H52 BD9 d   1       9.681  20.973  27.094  0.00  0.00     0.086 H 
ATOM    104  C22 BD9 d   1       7.156  19.628  28.924  0.00  0.00    -0.066 A 
ATOM    105  H53 BD9 d   1       8.423  18.818  27.354  0.00  0.00     0.083 H 
ATOM    106  C23 BD9 d   1       6.901  20.724  29.734  0.00  0.00     0.002 A 
ATOM    107  H54 BD9 d   1       6.558  18.730  29.027  0.00  0.00     0.085 H 
ATOM    108  N5  BD9 d   1       7.614  21.840  29.572  0.00  0.00    -0.266 NA
ATOM    109  H55 BD9 d   1       6.128  20.675  30.493  0.00  0.00     0.114 H 
ENDBRANCH  97 100
ENDBRANCH  94  97
ENDBRANCH  89  94
ENDBRANCH  70  87
ENDBRANCH  68  70
ENDBRANCH   1  66
TORSDOF 27
