REMARK  13 active torsions:
REMARK  status: ('A' for Active; 'I' for Inactive)
REMARK    1  A    between atoms: C1_1  and  C16_17 
REMARK    2  A    between atoms: C1_1  and  C17_18 
REMARK    3  A    between atoms: C5_5  and  C18_19 
REMARK    4  A    between atoms: C6_6  and  C7_7 
REMARK    5  A    between atoms: C8_8  and  C9_9 
REMARK    6  A    between atoms: C9_9  and  C10_10 
REMARK    7  A    between atoms: C9_9  and  C19_20 
REMARK    8  A    between atoms: C10_10  and  C11_11 
REMARK    9  A    between atoms: C12_12  and  C13_13 
REMARK   10  A    between atoms: C13_13  and  C14_14 
REMARK   11  A    between atoms: C13_13  and  C20_21 
REMARK   12  A    between atoms: C14_14  and  C15_15 
REMARK   13  A    between atoms: C15_15  and  O1_16 
ROOT
ATOM      1  C7  RET d   1      -4.822  14.858  10.091  0.00  0.00    -0.101 C 
ATOM      2  C8  RET d   1      -3.972  15.848   9.690  0.00  0.00    -0.102 C 
ATOM      3  H9  RET d   1      -4.827  13.907   9.560  0.00  0.00     0.077 H 
ATOM      4  H10 RET d   1      -3.880  16.724  10.331  0.00  0.00     0.076 H 
ENDROOT
BRANCH   2   5
ATOM      5  C9  RET d   1      -3.122  15.819   8.382  0.00  0.00    -0.038 C 
ATOM      6  H11 RET d   1      -3.302  16.768   7.855  0.00  0.00     0.045 H 
BRANCH   5   7
ATOM      7  C10 RET d   1      -1.631  15.737   8.698  0.00  0.00    -0.044 C 
ATOM      8  H12 RET d   1      -1.418  14.702   9.004  0.00  0.00     0.039 H 
ATOM      9  H13 RET d   1      -1.437  16.416   9.541  0.00  0.00     0.039 H 
BRANCH   7  10
ATOM     10  C11 RET d   1      -0.645  16.095   7.590  0.00  0.00    -0.106 C 
ATOM     11  C12 RET d   1       0.384  16.922   7.766  0.00  0.00    -0.103 C 
ATOM     12  H15 RET d   1       0.891  17.356   6.905  0.00  0.00     0.076 H 
ATOM     13  H14 RET d   1      -0.790  15.652   6.606  0.00  0.00     0.076 H 
BRANCH  11  14
ATOM     14  C13 RET d   1       0.854  17.261   9.195  0.00  0.00    -0.040 C 
ATOM     15  H16 RET d   1       0.334  16.506   9.803  0.00  0.00     0.045 H 
BRANCH  14  16
ATOM     16  C14 RET d   1       0.296  18.585   9.753  0.00  0.00    -0.039 C 
ATOM     17  H17 RET d   1      -0.800  18.497   9.751  0.00  0.00     0.037 H 
ATOM     18  H18 RET d   1       0.601  19.380   9.057  0.00  0.00     0.037 H 
BRANCH  16  19
ATOM     19  C15 RET d   1       0.703  19.038  11.150  0.00  0.00     0.017 C 
ATOM     20  H19 RET d   1       1.776  19.279  11.113  0.00  0.00     0.074 H 
ATOM     21  H20 RET d   1       0.542  18.186  11.827  0.00  0.00     0.074 H 
BRANCH  19  22
ATOM     22  O1  RET d   1       0.051  20.142  11.713  0.00  0.00    -0.401 OA
ATOM     23  H21 RET d   1       0.404  20.309  12.579  0.00  0.00     0.209 HD
ENDBRANCH  19  22
ENDBRANCH  16  19
ENDBRANCH  14  16
BRANCH  14  24
ATOM     24  C20 RET d   1       2.326  16.972   9.504  0.00  0.00    -0.070 C 
ATOM     25  H34 RET d   1       2.611  16.008   9.059  0.00  0.00     0.028 H 
ATOM     26  H35 RET d   1       2.471  16.930  10.594  0.00  0.00     0.028 H 
ATOM     27  H36 RET d   1       2.953  17.771   9.081  0.00  0.00     0.028 H 
ENDBRANCH  14  24
ENDBRANCH  11  14
ENDBRANCH   7  10
ENDBRANCH   5   7
BRANCH   5  28
ATOM     28  C19 RET d   1      -3.522  14.690   7.438  0.00  0.00    -0.069 C 
ATOM     29  H31 RET d   1      -4.598  14.760   7.218  0.00  0.00     0.028 H 
ATOM     30  H32 RET d   1      -3.307  13.721   7.913  0.00  0.00     0.028 H 
ATOM     31  H33 RET d   1      -2.950  14.774   6.502  0.00  0.00     0.028 H 
ENDBRANCH   5  28
ENDBRANCH   2   5
BRANCH   1  32
ATOM     32  C6  RET d   1      -5.783  15.069  11.295  0.00  0.00    -0.028 C 
ATOM     33  C1  RET d   1      -5.321  14.886  12.833  0.00  0.00    -0.041 C 
ATOM     34  C2  RET d   1      -6.482  14.937  13.812  0.00  0.00    -0.058 C 
ATOM     35  C3  RET d   1      -7.452  15.909  13.466  0.00  0.00    -0.064 C 
ATOM     36  H1  RET d   1      -6.088  15.174  14.811  0.00  0.00     0.034 H 
ATOM     37  H2  RET d   1      -6.967  13.950  13.834  0.00  0.00     0.034 H 
ATOM     38  C4  RET d   1      -8.232  15.457  12.312  0.00  0.00    -0.061 C 
ATOM     39  H3  RET d   1      -6.947  16.853  13.216  0.00  0.00     0.033 H 
ATOM     40  H4  RET d   1      -8.127  16.069  14.320  0.00  0.00     0.033 H 
ATOM     41  C5  RET d   1      -7.392  15.040  11.094  0.00  0.00    -0.050 C 
ATOM     42  H5  RET d   1      -8.897  16.278  12.005  0.00  0.00     0.033 H 
ATOM     43  H6  RET d   1      -8.836  14.592  12.624  0.00  0.00     0.033 H 
ATOM     44  H7  RET d   1      -7.532  13.953  11.184  0.00  0.00     0.040 H 
ATOM     45  H8  RET d   1      -5.686  16.165  11.284  0.00  0.00     0.047 H 
BRANCH  33  46
ATOM     46  C16 RET d   1      -4.271  15.946  13.150  0.00  0.00    -0.069 C 
ATOM     47  H22 RET d   1      -3.944  15.837  14.195  0.00  0.00     0.028 H 
ATOM     48  H23 RET d   1      -4.704  16.947  13.004  0.00  0.00     0.028 H 
ATOM     49  H24 RET d   1      -3.408  15.819  12.480  0.00  0.00     0.028 H 
ENDBRANCH  33  46
BRANCH  33  50
ATOM     50  C17 RET d   1      -4.602  13.570  13.051  0.00  0.00    -0.069 C 
ATOM     51  H25 RET d   1      -5.290  12.737  12.843  0.00  0.00     0.028 H 
ATOM     52  H26 RET d   1      -4.257  13.509  14.094  0.00  0.00     0.028 H 
ATOM     53  H27 RET d   1      -3.737  13.508  12.374  0.00  0.00     0.028 H 
ENDBRANCH  33  50
BRANCH  41  54
ATOM     54  C18 RET d   1      -7.984  15.190   9.670  0.00  0.00    -0.072 C 
ATOM     55  H28 RET d   1      -9.082  15.148   9.723  0.00  0.00     0.028 H 
ATOM     56  H29 RET d   1      -7.616  14.373   9.032  0.00  0.00     0.028 H 
ATOM     57  H30 RET d   1      -7.675  16.156   9.244  0.00  0.00     0.028 H 
ENDBRANCH  41  54
ENDBRANCH   1  32
TORSDOF 13
