REMARK  17 active torsions:
REMARK  status: ('A' for Active; 'I' for Inactive)
REMARK    1  A    between atoms: C2_4  and  C1_1 
REMARK    2  A    between atoms: C2_4  and  O2_15 
REMARK    3  A    between atoms: O2_23  and  C4_6 
REMARK    4  A    between atoms: C5_7  and  O5_8 
REMARK    5  A    between atoms: C6_9  and  C7_11 
REMARK    6  A    between atoms: C7_11  and  O7_12 
REMARK    7  A    between atoms: C7_11  and  C8_13 
REMARK    8  A    between atoms: C8_13  and  O8_14 
REMARK    9  A    between atoms: O2_15  and  C9_16 
REMARK   10  A    between atoms: C10_17  and  C11_18 
REMARK   11  A    between atoms: C2_22  and  C1_19 
REMARK   12  A    between atoms: C2_22  and  O2_23 
REMARK   13  A    between atoms: C5_26  and  O5_27 
REMARK   14  A    between atoms: C6_28  and  C7_30 
REMARK   15  A    between atoms: C7_30  and  O7_31 
REMARK   16  A    between atoms: C7_30  and  C8_32 
REMARK   17  A    between atoms: C8_32  and  O8_33 
ROOT
ATOM      1  C2  KDA d   1      -6.438   5.504   8.312  0.00  0.00     0.262 C 
ATOM      2  C3  KDA d   1      -5.968   4.762   7.026  0.00  0.00     0.025 C 
ATOM      3  C4  KDA d   1      -5.747   3.251   7.274  0.00  0.00     0.075 C 
ATOM      4  C5  KDA d   1      -4.880   3.018   8.511  0.00  0.00     0.088 C 
ATOM      5  C6  KDA d   1      -5.414   3.777   9.740  0.00  0.00     0.096 C 
ATOM      6  O6  KDA d   1      -5.522   5.185   9.392  0.00  0.00    -0.335 OA
ATOM      7  H   KDA d   1      -5.020   5.197   6.710  0.00  0.00     0.045 H 
ATOM      8  H   KDA d   1      -6.743   4.872   6.267  0.00  0.00     0.045 H 
ATOM      9  H   KDA d   1      -6.267   2.409   7.731  0.00  0.00     0.087 H 
ATOM     10  H   KDA d   1      -4.885   1.959   8.769  0.00  0.00     0.091 H 
ATOM     11  H   KDA d   1      -6.399   3.404  10.021  0.00  0.00     0.091 H 
ENDROOT
BRANCH   3  12
ATOM     12  O2  KDO d   1      -5.828   2.923   5.880  0.00  0.00    -0.338 OA
BRANCH  12  13
ATOM     13  C2  KDO d   1      -5.869   1.474   5.702  0.00  0.00     0.256 C 
ATOM     14  C3  KDO d   1      -5.802   1.101   4.200  0.00  0.00     0.000 C 
ATOM     15  C4  KDO d   1      -7.028   1.701   3.501  0.00  0.00    -0.033 C 
ATOM     16  H   KDA d   1      -5.798   0.017   4.083  0.00  0.00     0.042 H 
ATOM     17  H   KDA d   1      -4.888   1.496   3.757  0.00  0.00     0.042 H 
ATOM     18  C5  KDO d   1      -8.349   1.227   4.105  0.00  0.00     0.063 C 
ATOM     19  H   KDA d   1      -7.006   1.383   2.459  0.00  0.00     0.037 H 
ATOM     20  H   KDA d   1      -6.979   2.784   3.615  0.00  0.00     0.037 H 
ATOM     21  C6  KDO d   1      -8.366   1.564   5.610  0.00  0.00     0.094 C 
ATOM     22  H   KDA d   1      -9.186   1.732   3.622  0.00  0.00     0.087 H 
ATOM     23  O6  KDO d   1      -7.155   1.049   6.236  0.00  0.00    -0.336 OA
ATOM     24  H   KDA d   1      -8.381   2.644   5.758  0.00  0.00     0.091 H 
BRANCH  13  25
ATOM     25  C1  KDO d   1      -4.832   0.617   6.457  0.00  0.00     0.238 C 
ATOM     26  O1A KDO d   1      -3.661   1.033   6.546  0.00  0.00    -0.644 OA
ATOM     27  O1B KDO d   1      -5.241  -0.484   6.911  0.00  0.00    -0.644 OA
ENDBRANCH  13  25
BRANCH  18  28
ATOM     28  O5  KDO d   1      -8.488  -0.184   3.899  0.00  0.00    -0.393 OA
ATOM     29  H   KDA d   1      -9.318  -0.481   4.279  0.00  0.00     0.210 HD
ENDBRANCH  18  28
BRANCH  21  30
ATOM     30  C7  KDO d   1      -9.634   0.994   6.248  0.00  0.00     0.083 C 
ATOM     31  H   KDA d   1      -9.721  -0.054   5.961  0.00  0.00     0.090 H 
BRANCH  30  32
ATOM     32  O7  KDO d   1     -10.743   1.761   5.795  0.00  0.00    -0.391 OA
ATOM     33  H   KDA d   1     -10.625   2.677   6.056  0.00  0.00     0.210 HD
ENDBRANCH  30  32
BRANCH  30  34
ATOM     34  C8  KDO d   1      -9.588   1.067   7.782  0.00  0.00     0.043 C 
ATOM     35  H   KDA d   1      -8.855   0.352   8.155  0.00  0.00     0.078 H 
ATOM     36  H   KDA d   1     -10.573   0.829   8.184  0.00  0.00     0.078 H 
BRANCH  34  37
ATOM     37  O8  KDO d   1      -9.212   2.397   8.196  0.00  0.00    -0.398 OA
ATOM     38  H   KDA d   1      -8.345   2.608   7.841  0.00  0.00     0.209 HD
ENDBRANCH  34  37
ENDBRANCH  30  34
ENDBRANCH  21  30
ENDBRANCH  12  13
ENDBRANCH   3  12
BRANCH   4  39
ATOM     39  O5  KDA d   1      -3.562   3.484   8.188  0.00  0.00    -0.390 OA
ATOM     40  H   KDA d   1      -2.984   3.354   8.943  0.00  0.00     0.210 HD
ENDBRANCH   4  39
BRANCH   1  41
ATOM     41  C1  KDA d   1      -6.349   7.037   8.152  0.00  0.00     0.239 C 
ATOM     42  O1A KDA d   1      -5.365   7.587   8.677  0.00  0.00    -0.644 OA
ATOM     43  O1B KDA d   1      -7.259   7.650   7.523  0.00  0.00    -0.644 OA
ENDBRANCH   1  41
BRANCH   1  44
ATOM     44  O2  KDA d   1      -7.730   4.992   8.746  0.00  0.00    -0.317 OA
BRANCH  44  45
ATOM     45  C9  KDA d   1      -8.894   5.652   9.040  0.00  0.00     0.013 C 
ATOM     46  C10 KDA d   1      -9.167   6.542  10.084  0.00  0.00    -0.086 C 
ATOM     47  H   KDA d   1      -8.390   6.801  10.803  0.00  0.00     0.079 H 
ATOM     48  H   KDA d   1      -9.726   5.455   8.364  0.00  0.00     0.122 H 
BRANCH  46  49
ATOM     49  C11 KDA d   1     -10.439   7.093  10.197  0.00  0.00    -0.058 C 
ATOM     50  H   KDA d   1     -10.671   7.657   9.294  0.00  0.00     0.032 H 
ATOM     51  H   KDA d   1     -11.169   6.294  10.325  0.00  0.00     0.032 H 
ATOM     52  H   KDA d   1     -10.470   7.758  11.060  0.00  0.00     0.032 H 
ENDBRANCH  46  49
ENDBRANCH  44  45
ENDBRANCH   1  44
BRANCH   5  53
ATOM     53  C7  KDA d   1      -4.498   3.552  10.952  0.00  0.00     0.083 C 
ATOM     54  H   KDA d   1      -3.619   4.178  10.800  0.00  0.00     0.090 H 
BRANCH  53  55
ATOM     55  O7  KDA d   1      -4.123   2.177  11.048  0.00  0.00    -0.391 OA
ATOM     56  H   KDA d   1      -3.655   1.918  10.251  0.00  0.00     0.210 HD
ENDBRANCH  53  55
BRANCH  53  57
ATOM     57  C8  KDA d   1      -5.183   3.955  12.270  0.00  0.00     0.043 C 
ATOM     58  H   KDA d   1      -4.542   3.671  13.104  0.00  0.00     0.078 H 
ATOM     59  H   KDA d   1      -6.145   3.448  12.339  0.00  0.00     0.078 H 
BRANCH  57  60
ATOM     60  O8  KDA d   1      -5.400   5.377  12.310  0.00  0.00    -0.398 OA
ATOM     61  H   KDA d   1      -5.827   5.611  13.137  0.00  0.00     0.209 HD
ENDBRANCH  57  60
ENDBRANCH  53  57
ENDBRANCH   5  53
TORSDOF 17
