REMARK  5 active torsions:
REMARK  status: ('A' for Active; 'I' for Inactive)
REMARK    1  A    between atoms: C2_2  and  CAS_19 
REMARK    2  A    between atoms: N6_8  and  C6_7 
REMARK    3  A    between atoms: CAV_22  and  N6_8 
REMARK    4  A    between atoms: N9_11  and  CAL_18 
REMARK    5  A    between atoms: CAL_18  and  CAA_12 
ROOT
ATOM      1  N1  QL2 d   1      -5.436 -35.147   1.885  0.00  0.00    -0.208 NA
ATOM      2  C2  QL2 d   1      -6.480 -34.297   1.758  0.00  0.00     0.170 A 
ATOM      3  N3  QL2 d   1      -7.712 -34.511   2.172  0.00  0.00    -0.207 NA
ATOM      4  C4  QL2 d   1      -7.855 -35.716   2.768  0.00  0.00     0.166 A 
ATOM      5  C5  QL2 d   1      -6.882 -36.678   2.952  0.00  0.00     0.150 A 
ATOM      6  C6  QL2 d   1      -5.590 -36.314   2.512  0.00  0.00     0.163 A 
ATOM      7  N7  QL2 d   1      -7.402 -37.775   3.581  0.00  0.00    -0.236 NA
ATOM      8  C8  QL2 d   1      -8.693 -37.462   3.757  0.00  0.00     0.068 A 
ATOM      9  N9  QL2 d   1      -9.006 -36.240   3.272  0.00  0.00    -0.324 N 
ATOM     10  H3  QL2 d   1      -9.413 -38.122   4.239  0.00  0.00     0.143 H 
ENDROOT
BRANCH   6  11
ATOM     11  N6  QL2 d   1      -4.551 -37.174   2.687  0.00  0.00    -0.339 N 
ATOM     12  H2  QL2 d   1      -4.770 -38.026   3.223  0.00  0.00     0.167 HD
BRANCH  11  13
ATOM     13  CAV QL2 d   1      -3.226 -37.068   2.244  0.00  0.00     0.039 A 
ATOM     14  CAJ QL2 d   1      -2.819 -36.216   1.221  0.00  0.00    -0.020 A 
ATOM     15  CAT QL2 d   1      -1.525 -36.228   0.813  0.00  0.00     0.121 A 
ATOM     16  H8  QL2 d   1      -3.532 -35.547   0.753  0.00  0.00     0.091 H 
ATOM     17  FAE QL2 d   1      -1.141 -35.406  -0.166  0.00  0.00    -0.206 F 
ATOM     18  CAI QL2 d   1      -0.561 -36.996   1.440  0.00  0.00    -0.008 A 
ATOM     19  CAU QL2 d   1      -0.974 -37.804   2.442  0.00  0.00     0.121 A 
ATOM     20  H7  QL2 d   1       0.480 -36.952   1.141  0.00  0.00     0.092 H 
ATOM     21  FAF QL2 d   1      -0.064 -38.624   3.045  0.00  0.00    -0.206 F 
ATOM     22  CAK QL2 d   1      -2.273 -37.856   2.883  0.00  0.00    -0.020 A 
ATOM     23  H9  QL2 d   1      -2.551 -38.497   3.712  0.00  0.00     0.091 H 
ENDBRANCH  11  13
ENDBRANCH   6  11
BRANCH   2  24
ATOM     24  CAS QL2 d   1      -6.179 -33.041   1.080  0.00  0.00     0.040 C 
ATOM     25  N2  QL2 d   1      -7.023 -32.084   0.988  0.00  0.00    -0.308 NA
ATOM     26  H1  QL2 d   1      -6.770 -31.233   0.510  0.00  0.00     0.186 HD
ATOM     27  H12 QL2 d   1      -5.194 -32.913   0.633  0.00  0.00     0.119 H 
ENDBRANCH   2  24
BRANCH   9  28
ATOM     28  CAL QL2 d   1     -10.364 -35.578   3.347  0.00  0.00    -0.001 C 
ATOM     29  H10 QL2 d   1     -10.288 -34.512   3.088  0.00  0.00     0.064 H 
ATOM     30  H11 QL2 d   1     -10.787 -35.681   4.357  0.00  0.00     0.064 H 
BRANCH  28  31
ATOM     31  CAA QL2 d   1     -11.198 -36.289   2.364  0.00  0.00    -0.061 C 
ATOM     32  H4  QL2 d   1     -12.210 -35.858   2.362  0.00  0.00     0.029 H 
ATOM     33  H5  QL2 d   1     -11.253 -37.354   2.632  0.00  0.00     0.029 H 
ATOM     34  H6  QL2 d   1     -10.754 -36.186   1.363  0.00  0.00     0.029 H 
ENDBRANCH  28  31
ENDBRANCH   9  28
TORSDOF 5
