REMARK  6 active torsions:
REMARK  status: ('A' for Active; 'I' for Inactive)
REMARK    1  A    between atoms: S23_2  and  N29_4 
REMARK    2  A    between atoms: S23_2  and  C19_5 
REMARK       I    between atoms: N15_12  and  C14_13 
REMARK    3  A    between atoms: C14_13  and  C13_15 
REMARK    4  A    between atoms: C13_15  and  S12_16 
REMARK    5  A    between atoms: S12_16  and  C11_17 
REMARK       I    between atoms: C11_17  and  N2_19 
REMARK    6  A    between atoms: C9_27  and  C27_28 
ROOT
ATOM      1  C11 RT3 d   1       9.308  12.663  15.472  0.00  0.00     0.286 C 
ATOM      2  O28 RT3 d   1       8.864  11.822  16.232  0.00  0.00    -0.260 OA
ATOM      3  N2  RT3 d   1      10.457  13.282  15.693  0.00  0.00    -0.308 N 
ATOM      4  C1  RT3 d   1      11.426  13.680  14.680  0.00  0.00     0.004 C 
ATOM      5  C3  RT3 d   1      10.645  13.616  17.030  0.00  0.00     0.044 A 
ATOM      6  C7  RT3 d   1       9.687  13.244  17.957  0.00  0.00    -0.056 A 
ATOM      7  C4  RT3 d   1      11.823  14.356  17.482  0.00  0.00    -0.031 A 
ATOM      8  C5  RT3 d   1      12.851  14.758  16.459  0.00  0.00    -0.037 C 
ATOM      9  C6  RT3 d   1      12.792  13.711  15.357  0.00  0.00    -0.046 C 
ATOM     10  C10 RT3 d   1      11.932  14.646  18.835  0.00  0.00    -0.069 A 
ATOM     11  C9  RT3 d   1      10.943  14.249  19.728  0.00  0.00    -0.061 A 
ATOM     12  C8  RT3 d   1       9.836  13.555  19.296  0.00  0.00    -0.075 A 
ATOM     13  H9  RT3 d   1      11.176  14.677  14.289  0.00  0.00     0.065 H 
ATOM     14  H10 RT3 d   1      11.430  12.953  13.855  0.00  0.00     0.065 H 
ATOM     15  H11 RT3 d   1       8.808  12.701  17.629  0.00  0.00     0.087 H 
ATOM     16  H12 RT3 d   1      13.853  14.776  16.913  0.00  0.00     0.040 H 
ATOM     17  H13 RT3 d   1      12.614  15.752  16.052  0.00  0.00     0.040 H 
ATOM     18  H14 RT3 d   1      13.558  13.944  14.603  0.00  0.00     0.035 H 
ATOM     19  H15 RT3 d   1      12.996  12.722  15.794  0.00  0.00     0.035 H 
ATOM     20  H16 RT3 d   1      12.797  15.188  19.199  0.00  0.00     0.085 H 
ATOM     21  H20 RT3 d   1       9.078  13.251  20.008  0.00  0.00     0.084 H 
ENDROOT
BRANCH   1  22
ATOM     22  S12 RT3 d   1       8.370  13.135  14.174  0.00  0.00    -0.060 SA
BRANCH  22  23
ATOM     23  C13 RT3 d   1       8.019  11.729  13.163  0.00  0.00     0.059 C 
ATOM     24  H7  RT3 d   1       8.419  11.897  12.152  0.00  0.00     0.064 H 
ATOM     25  H8  RT3 d   1       8.491  10.837  13.601  0.00  0.00     0.064 H 
BRANCH  23  26
ATOM     26  C14 RT3 d   1       6.530  11.519  13.084  0.00  0.00     0.232 C 
ATOM     27  N15 RT3 d   1       5.970  10.674  13.958  0.00  0.00    -0.325 N 
ATOM     28  C16 RT3 d   1       6.178   9.328  13.905  0.00  0.00     0.056 A 
ATOM     29  H6  RT3 d   1       5.378  11.043  14.675  0.00  0.00     0.169 HD
ATOM     30  C21 RT3 d   1       6.207   8.499  15.140  0.00  0.00     0.062 A 
ATOM     31  C17 RT3 d   1       6.369   8.677  12.692  0.00  0.00    -0.054 A 
ATOM     32  C20 RT3 d   1       6.421   7.135  15.063  0.00  0.00    -0.037 A 
ATOM     33 CL22 RT3 d   1       5.971   9.210  16.759  0.00  0.00    -0.082 Cl
ATOM     34  C19 RT3 d   1       6.606   6.525  13.831  0.00  0.00     0.081 A 
ATOM     35  H3  RT3 d   1       6.444   6.540  15.969  0.00  0.00     0.088 H 
ATOM     36  C18 RT3 d   1       6.582   7.297  12.663  0.00  0.00    -0.058 A 
ATOM     37  H4  RT3 d   1       6.733   6.809  11.707  0.00  0.00     0.086 H 
ATOM     38  H5  RT3 d   1       6.353   9.241  11.767  0.00  0.00     0.087 H 
ATOM     39  O29 RT3 d   1       5.906  12.129  12.234  0.00  0.00    -0.272 OA
BRANCH  34  40
ATOM     40  S23 RT3 d   1       6.862   4.941  13.784  0.00  0.00     0.256 S 
ATOM     41  O30 RT3 d   1       8.253   4.727  14.078  0.00  0.00    -0.201 OA
ATOM     42  O26 RT3 d   1       6.066   4.276  14.780  0.00  0.00    -0.201 OA
BRANCH  40  43
ATOM     43  N29 RT3 d   1       6.536   4.390  12.310  0.00  0.00    -0.324 N 
ATOM     44  H1  RT3 d   1       7.018   4.765  11.518  0.00  0.00     0.169 HD
ATOM     45  H2  RT3 d   1       5.851   3.672  12.185  0.00  0.00     0.169 HD
ENDBRANCH  40  43
ENDBRANCH  34  40
ENDBRANCH  23  26
ENDBRANCH  22  23
ENDBRANCH   1  22
BRANCH  11  46
ATOM     46  C27 RT3 d   1      11.055  14.557  21.191  0.00  0.00    -0.051 C 
ATOM     47  H17 RT3 d   1      10.175  14.159  21.718  0.00  0.00     0.033 H 
ATOM     48  H18 RT3 d   1      11.106  15.646  21.334  0.00  0.00     0.033 H 
ATOM     49  H19 RT3 d   1      11.966  14.091  21.595  0.00  0.00     0.033 H 
ENDBRANCH  11  46
TORSDOF 6
