REMARK  6 active torsions:
REMARK  status: ('A' for Active; 'I' for Inactive)
REMARK       I    between atoms: N7_11  and  C11_13 
REMARK    1  A    between atoms: C11_13  and  S12_15 
REMARK    2  A    between atoms: S12_15  and  C13_16 
REMARK    3  A    between atoms: C13_16  and  C14_17 
REMARK       I    between atoms: C14_17  and  N15_19 
REMARK    4  A    between atoms: N15_19  and  C16_20 
REMARK    5  A    between atoms: C19_24  and  S25_25 
REMARK    6  A    between atoms: S25_25  and  N28_26 
ROOT
ATOM      1  S12 RT7 d   1       8.288  12.940  15.458  0.00  0.00    -0.060 SA
ENDROOT
BRANCH   1   2
ATOM      2  C11 RT7 d   1       9.872  12.389  15.245  0.00  0.00     0.287 C 
ATOM      3  N7  RT7 d   1      10.915  12.902  15.916  0.00  0.00    -0.307 N 
ATOM      4  C8  RT7 d   1      12.269  12.981  15.396  0.00  0.00     0.004 C 
ATOM      5  C1  RT7 d   1      10.783  13.443  17.181  0.00  0.00     0.066 A 
ATOM      6  C9  RT7 d   1      12.560  14.469  15.186  0.00  0.00    -0.046 C 
ATOM      7  H7  RT7 d   1      12.980  12.552  16.117  0.00  0.00     0.065 H 
ATOM      8  H8  RT7 d   1      12.343  12.440  14.441  0.00  0.00     0.065 H 
ATOM      9  C10 RT7 d   1      12.495  15.305  16.462  0.00  0.00    -0.037 C 
ATOM     10  H5  RT7 d   1      13.570  14.566  14.761  0.00  0.00     0.035 H 
ATOM     11  H6  RT7 d   1      11.822  14.868  14.474  0.00  0.00     0.035 H 
ATOM     12  C6  RT7 d   1      11.577  14.657  17.478  0.00  0.00    -0.028 A 
ATOM     13  H3  RT7 d   1      13.505  15.390  16.890  0.00  0.00     0.040 H 
ATOM     14  H4  RT7 d   1      12.114  16.308  16.218  0.00  0.00     0.040 H 
ATOM     15  C5  RT7 d   1      11.471  15.213  18.733  0.00  0.00    -0.054 A 
ATOM     16  C4  RT7 d   1      10.647  14.632  19.674  0.00  0.00     0.036 A 
ATOM     17  H2  RT7 d   1      12.034  16.105  18.981  0.00  0.00     0.087 H 
ATOM     18 CL30 RT7 d   1      10.516  15.365  21.276  0.00  0.00    -0.084 Cl
ATOM     19  C3  RT7 d   1       9.887  13.508  19.456  0.00  0.00    -0.039 A 
ATOM     20  C2  RT7 d   1       9.918  12.869  18.241  0.00  0.00     0.063 A 
ATOM     21  H1  RT7 d   1       9.258  13.123  20.250  0.00  0.00     0.088 H 
ATOM     22 CL29 RT7 d   1       8.874  11.410  18.063  0.00  0.00    -0.082 Cl
ATOM     23  O22 RT7 d   1      10.072  11.491  14.443  0.00  0.00    -0.260 OA
ENDBRANCH   1   2
BRANCH   1  24
ATOM     24  C13 RT7 d   1       7.141  12.758  14.117  0.00  0.00     0.059 C 
ATOM     25  H9  RT7 d   1       7.601  13.187  13.215  0.00  0.00     0.064 H 
ATOM     26  H10 RT7 d   1       6.231  13.323  14.368  0.00  0.00     0.064 H 
BRANCH  24  27
ATOM     27  C14 RT7 d   1       6.737  11.334  13.805  0.00  0.00     0.232 C 
ATOM     28  O23 RT7 d   1       6.804  10.977  12.645  0.00  0.00    -0.272 OA
ATOM     29  N15 RT7 d   1       6.300  10.543  14.795  0.00  0.00    -0.325 N 
ATOM     30  H11 RT7 d   1       5.918  10.965  15.617  0.00  0.00     0.169 HD
BRANCH  29  31
ATOM     31  C16 RT7 d   1       6.358   9.186  14.720  0.00  0.00     0.056 A 
ATOM     32  C17 RT7 d   1       6.157   8.341  15.920  0.00  0.00     0.062 A 
ATOM     33 CL24 RT7 d   1       5.813   9.104  17.503  0.00  0.00    -0.082 Cl
ATOM     34  C18 RT7 d   1       6.229   6.955  15.808  0.00  0.00    -0.037 A 
ATOM     35  C19 RT7 d   1       6.484   6.350  14.572  0.00  0.00     0.081 A 
ATOM     36  H12 RT7 d   1       6.086   6.338  16.688  0.00  0.00     0.088 H 
ATOM     37  C20 RT7 d   1       6.674   7.164  13.452  0.00  0.00    -0.058 A 
ATOM     38  C21 RT7 d   1       6.612   8.549  13.518  0.00  0.00    -0.054 A 
ATOM     39  H15 RT7 d   1       6.878   6.696  12.496  0.00  0.00     0.086 H 
ATOM     40  H16 RT7 d   1       6.764   9.137  12.620  0.00  0.00     0.087 H 
BRANCH  35  41
ATOM     41  S25 RT7 d   1       6.595   4.731  14.430  0.00  0.00     0.256 S 
ATOM     42  O27 RT7 d   1       5.630   4.102  15.297  0.00  0.00    -0.201 OA
ATOM     43  O26 RT7 d   1       6.396   4.321  13.056  0.00  0.00    -0.201 OA
BRANCH  41  44
ATOM     44  N28 RT7 d   1       8.094   4.327  14.836  0.00  0.00    -0.324 N 
ATOM     45  H13 RT7 d   1       8.376   3.368  14.817  0.00  0.00     0.169 HD
ATOM     46  H14 RT7 d   1       8.746   5.035  15.108  0.00  0.00     0.169 HD
ENDBRANCH  41  44
ENDBRANCH  35  41
ENDBRANCH  29  31
ENDBRANCH  24  27
ENDBRANCH   1  24
TORSDOF 6
