REMARK  6 active torsions:
REMARK  status: ('A' for Active; 'I' for Inactive)
REMARK    1  A    between atoms: C4_1  and  C9_18 
REMARK    2  A    between atoms: C1_19  and  C4_1 
REMARK    3  A    between atoms: C17_9  and  C18_15 
REMARK       I    between atoms: N14_17  and  C17_9 
REMARK    4  A    between atoms: C9_18  and  N14_17 
REMARK    5  A    between atoms: C1_19  and  C3_20 
REMARK    6  A    between atoms: C1_19  and  C2_23 
ROOT
ATOM      1  C1  33N d   1      74.445  -9.984  69.131  0.00  0.00    -0.002 C 
ATOM      2  H17 33N d   1      73.353  -9.999  69.265  0.00  0.00     0.054 H 
ENDROOT
BRANCH   1   3
ATOM      3  C4  33N d   1      74.782  -9.029  67.983  0.00  0.00    -0.039 C 
ATOM      4  H1  33N d   1      74.202  -8.101  68.098  0.00  0.00     0.036 H 
ATOM      5  H2  33N d   1      75.857  -8.795  68.006  0.00  0.00     0.036 H 
BRANCH   3   6
ATOM      6  C9  33N d   1      74.434  -9.682  66.646  0.00  0.00    -0.004 C 
ATOM      7  H15 33N d   1      73.458 -10.184  66.722  0.00  0.00     0.064 H 
ATOM      8  H16 33N d   1      75.206 -10.420  66.382  0.00  0.00     0.064 H 
BRANCH   6   9
ATOM      9  N14 33N d   1      74.374  -8.644  65.618  0.00  0.00    -0.357 N 
ATOM     10  C17 33N d   1      75.151  -8.741  64.526  0.00  0.00     0.253 C 
ATOM     11  O19 33N d   1      75.901  -9.688  64.406  0.00  0.00    -0.268 OA
ATOM     12  H14 33N d   1      73.757  -7.865  65.727  0.00  0.00     0.162 HD
BRANCH  10  13
ATOM     13  C18 33N d   1      75.094  -7.701  63.475  0.00  0.00     0.049 A 
ATOM     14  C20 33N d   1      75.879  -7.816  62.321  0.00  0.00    -0.065 A 
ATOM     15  C22 33N d   1      75.787  -6.822  61.364  0.00  0.00    -0.065 A 
ATOM     16  H10 33N d   1      76.542  -8.662  62.181  0.00  0.00     0.085 H 
ATOM     17  C24 33N d   1      74.929  -5.758  61.577  0.00  0.00     0.002 A 
ATOM     18  H12 33N d   1      76.380  -6.876  60.458  0.00  0.00     0.085 H 
ATOM     19  N23 33N d   1      74.197  -5.675  62.672  0.00  0.00    -0.272 NA
ATOM     20  H13 33N d   1      74.856  -4.976  60.829  0.00  0.00     0.114 H 
ATOM     21  C21 33N d   1      74.251  -6.597  63.611  0.00  0.00     0.017 A 
ATOM     22  H11 33N d   1      73.635  -6.497  64.498  0.00  0.00     0.116 H 
ENDBRANCH  10  13
ENDBRANCH   6   9
ENDBRANCH   3   6
ENDBRANCH   1   3
BRANCH   1  23
ATOM     23  C3  33N d   1      75.079  -9.478  70.404  0.00  0.00    -0.050 A 
ATOM     24  C7  33N d   1      74.901 -10.169  71.591  0.00  0.00    -0.076 A 
ATOM     25  C12 33N d   1      75.482  -9.703  72.758  0.00  0.00    -0.082 A 
ATOM     26  H5  33N d   1      74.306 -11.075  71.606  0.00  0.00     0.084 H 
ATOM     27  C16 33N d   1      76.247  -8.548  72.739  0.00  0.00    -0.083 A 
ATOM     28  H19 33N d   1      75.338 -10.242  73.687  0.00  0.00     0.083 H 
ATOM     29  C13 33N d   1      76.425  -7.859  71.552  0.00  0.00    -0.082 A 
ATOM     30  H18 33N d   1      76.705  -8.185  73.652  0.00  0.00     0.083 H 
ATOM     31  C8  33N d   1      75.846  -8.324  70.383  0.00  0.00    -0.076 A 
ATOM     32  H8  33N d   1      77.019  -6.953  71.537  0.00  0.00     0.083 H 
ATOM     33  H6  33N d   1      75.993  -7.786  69.453  0.00  0.00     0.084 H 
ENDBRANCH   1  23
BRANCH   1  34
ATOM     34  C2  33N d   1      74.902 -11.389  68.820  0.00  0.00    -0.050 A 
ATOM     35  C5  33N d   1      76.229 -11.653  68.525  0.00  0.00    -0.076 A 
ATOM     36  C10 33N d   1      76.631 -12.947  68.243  0.00  0.00    -0.082 A 
ATOM     37  H3  33N d   1      76.953 -10.846  68.515  0.00  0.00     0.084 H 
ATOM     38  C15 33N d   1      75.706 -13.977  68.258  0.00  0.00    -0.083 A 
ATOM     39  H7  33N d   1      77.669 -13.154  68.011  0.00  0.00     0.083 H 
ATOM     40  C11 33N d   1      74.380 -13.714  68.557  0.00  0.00    -0.082 A 
ATOM     41  H9  33N d   1      76.020 -14.990  68.035  0.00  0.00     0.083 H 
ATOM     42  C6  33N d   1      73.978 -12.421  68.837  0.00  0.00    -0.076 A 
ATOM     43  H20 33N d   1      73.657 -14.522  68.572  0.00  0.00     0.083 H 
ATOM     44  H4  33N d   1      72.940 -12.215  69.070  0.00  0.00     0.084 H 
ENDBRANCH   1  34
TORSDOF 6
