REMARK  8 active torsions:
REMARK  status: ('A' for Active; 'I' for Inactive)
REMARK    1  A    between atoms: C5_1  and  S2_21 
REMARK    2  A    between atoms: C11_19  and  C8_4 
REMARK    3  A    between atoms: C12_25  and  C13_6 
REMARK    4  A    between atoms: C13_6  and  N14_26 
REMARK    5  A    between atoms: C15_7  and  C17_8 
REMARK       I    between atoms: N14_26  and  C15_7 
REMARK    6  A    between atoms: C11_19  and  C25_18 
REMARK    7  A    between atoms: C11_19  and  C12_25 
REMARK    8  A    between atoms: S2_21  and  C1_24 
ROOT
ATOM      1  C17 34N d   1      75.033  -7.834  63.664  0.00  0.00     0.032 A 
ATOM      2  C20 34N d   1      75.194  -5.898  61.694  0.00  0.00     0.044 A 
ATOM      3  C21 34N d   1      76.190  -6.862  61.821  0.00  0.00    -0.062 A 
ATOM      4  C22 34N d   1      76.114  -7.818  62.793  0.00  0.00    -0.066 A 
ATOM      5  C23 34N d   1      75.338  -4.911  60.668  0.00  0.00     0.099 C 
ATOM      6  N24 34N d   1      75.419  -4.113  59.864  0.00  0.00    -0.191 NA
ATOM      7  C19 34N d   1      74.099  -5.885  62.570  0.00  0.00    -0.062 A 
ATOM      8  C18 34N d   1      74.023  -6.864  63.554  0.00  0.00    -0.066 A 
ATOM      9  H6  34N d   1      77.034  -6.854  61.141  0.00  0.00     0.085 H 
ATOM     10  H7  34N d   1      76.896  -8.563  62.884  0.00  0.00     0.085 H 
ATOM     11  H20 34N d   1      73.328  -5.128  62.482  0.00  0.00     0.085 H 
ATOM     12  H21 34N d   1      73.182  -6.879  64.238  0.00  0.00     0.085 H 
ENDROOT
BRANCH   1  13
ATOM     13  C15 34N d   1      74.954  -8.875  64.720  0.00  0.00     0.251 C 
ATOM     14  N14 34N d   1      74.029  -8.736  65.697  0.00  0.00    -0.357 N 
ATOM     15  H19 34N d   1      73.411  -7.950  65.693  0.00  0.00     0.162 HD
ATOM     16  O16 34N d   1      75.714  -9.826  64.708  0.00  0.00    -0.268 OA
BRANCH  14  17
ATOM     17  C13 34N d   1      73.933  -9.737  66.759  0.00  0.00    -0.004 C 
ATOM     18  H4  34N d   1      72.888  -9.856  67.082  0.00  0.00     0.064 H 
ATOM     19  H5  34N d   1      74.322 -10.706  66.411  0.00  0.00     0.064 H 
BRANCH  17  20
ATOM     20  C12 34N d   1      74.789  -9.198  67.904  0.00  0.00    -0.039 C 
ATOM     21  H17 34N d   1      74.603  -8.122  68.036  0.00  0.00     0.036 H 
ATOM     22  H18 34N d   1      75.854  -9.362  67.684  0.00  0.00     0.036 H 
BRANCH  20  23
ATOM     23  C11 34N d   1      74.400  -9.950  69.171  0.00  0.00    -0.002 C 
ATOM     24  H12 34N d   1      73.336  -9.748  69.363  0.00  0.00     0.054 H 
BRANCH  23  25
ATOM     25  C8  34N d   1      75.187  -9.453  70.382  0.00  0.00    -0.050 A 
ATOM     26  C7  34N d   1      76.005  -8.323  70.322  0.00  0.00    -0.075 A 
ATOM     27  C6  34N d   1      76.693  -7.880  71.449  0.00  0.00    -0.062 A 
ATOM     28  H2  34N d   1      76.106  -7.784  69.387  0.00  0.00     0.084 H 
ATOM     29  C5  34N d   1      76.550  -8.571  72.642  0.00  0.00     0.058 A 
ATOM     30  H1  34N d   1      77.332  -7.006  71.394  0.00  0.00     0.085 H 
ATOM     31  C10 34N d   1      75.732  -9.690  72.706  0.00  0.00    -0.062 A 
ATOM     32  C9  34N d   1      75.048 -10.126  71.582  0.00  0.00    -0.075 A 
ATOM     33  H3  34N d   1      75.627 -10.227  73.642  0.00  0.00     0.085 H 
ATOM     34  H13 34N d   1      74.403 -10.995  71.644  0.00  0.00     0.084 H 
BRANCH  29  35
ATOM     35  S2  34N d   1      77.408  -8.052  74.094  0.00  0.00     0.171 S 
ATOM     36  O3  34N d   1      76.543  -8.395  75.165  0.00  0.00    -0.223 OA
ATOM     37  O4  34N d   1      77.760  -6.684  73.895  0.00  0.00    -0.223 OA
BRANCH  35  38
ATOM     38  C1  34N d   1      78.876  -9.117  74.030  0.00  0.00     0.020 C 
ATOM     39  H14 34N d   1      79.522  -8.902  74.894  0.00  0.00     0.049 H 
ATOM     40  H15 34N d   1      79.430  -8.922  73.100  0.00  0.00     0.049 H 
ATOM     41  H16 34N d   1      78.565 -10.172  74.058  0.00  0.00     0.049 H 
ENDBRANCH  35  38
ENDBRANCH  29  35
ENDBRANCH  23  25
BRANCH  23  42
ATOM     42  C25 34N d   1      74.555 -11.439  68.989  0.00  0.00    -0.049 A 
ATOM     43  C26 34N d   1      75.792 -12.023  68.771  0.00  0.00    -0.073 A 
ATOM     44  C27 34N d   1      75.890 -13.395  68.636  0.00  0.00    -0.045 A 
ATOM     45  H8  34N d   1      76.681 -11.406  68.707  0.00  0.00     0.084 H 
ATOM     46  C28 34N d   1      74.747 -14.177  68.721  0.00  0.00     0.116 A 
ATOM     47  H9  34N d   1      76.855 -13.858  68.465  0.00  0.00     0.088 H 
ATOM     48  F29 34N d   1      74.820 -15.524  68.592  0.00  0.00    -0.206 F 
ATOM     49  C30 34N d   1      73.513 -13.584  68.929  0.00  0.00    -0.045 A 
ATOM     50  C31 34N d   1      73.413 -12.221  69.074  0.00  0.00    -0.073 A 
ATOM     51  H10 34N d   1      72.621 -14.198  68.978  0.00  0.00     0.088 H 
ATOM     52  H11 34N d   1      72.448 -11.761  69.254  0.00  0.00     0.084 H 
ENDBRANCH  23  42
ENDBRANCH  20  23
ENDBRANCH  17  20
ENDBRANCH  14  17
ENDBRANCH   1  13
TORSDOF 8
