REMARK  9 active torsions:
REMARK  status: ('A' for Active; 'I' for Inactive)
REMARK    1  A    between atoms: C1_1  and  S1_12 
REMARK    2  A    between atoms: C2_2  and  O2_3 
REMARK    3  A    between atoms: C3_4  and  O3_5 
REMARK    4  A    between atoms: C4_6  and  O4_7 
REMARK    5  A    between atoms: C5_8  and  C6_10 
REMARK    6  A    between atoms: C6_10  and  O6_11 
REMARK    7  A    between atoms: S1_12  and  C1'_13 
REMARK    8  A    between atoms: C1'_13  and  C2'_14 
REMARK    9  A    between atoms: C1'_13  and  C3'_15 
ROOT
ATOM      1  C1  IPT d   1      14.737  27.695  75.460  0.00  0.00     0.110 C 
ATOM      2  C2  IPT d   1      13.420  27.597  76.262  0.00  0.00     0.096 C 
ATOM      3  C3  IPT d   1      12.275  27.238  75.308  0.00  0.00     0.090 C 
ATOM      4  C4  IPT d   1      12.171  28.329  74.227  0.00  0.00     0.089 C 
ATOM      5  C5  IPT d   1      13.539  28.412  73.490  0.00  0.00     0.087 C 
ATOM      6  O5  IPT d   1      14.618  28.703  74.414  0.00  0.00    -0.363 OA
ATOM      7  H1  IPT d   1      14.943  26.720  74.995  0.00  0.00     0.104 H 
ATOM      8  H2  IPT d   1      13.208  28.567  76.735  0.00  0.00     0.092 H 
ATOM      9  H4  IPT d   1      12.493  26.273  74.828  0.00  0.00     0.091 H 
ATOM     10  H6  IPT d   1      11.392  28.046  73.504  0.00  0.00     0.091 H 
ATOM     11  H8  IPT d   1      13.737  27.443  73.010  0.00  0.00     0.090 H 
ENDROOT
BRANCH   1  12
ATOM     12  S1  IPT d   1      16.114  28.126  76.565  0.00  0.00    -0.131 SA
BRANCH  12  13
ATOM     13  C1' IPT d   1      17.522  28.100  75.402  0.00  0.00    -0.014 C 
ATOM     14  H12 IPT d   1      17.379  27.278  74.685  0.00  0.00     0.055 H 
BRANCH  13  15
ATOM     15  C2' IPT d   1      18.809  27.867  76.193  0.00  0.00    -0.065 C 
ATOM     16  H13 IPT d   1      19.665  27.849  75.503  0.00  0.00     0.028 H 
ATOM     17  H14 IPT d   1      18.745  26.905  76.722  0.00  0.00     0.028 H 
ATOM     18  H15 IPT d   1      18.943  28.679  76.923  0.00  0.00     0.028 H 
ENDBRANCH  13  15
BRANCH  13  19
ATOM     19  C3' IPT d   1      17.633  29.417  74.632  0.00  0.00    -0.065 C 
ATOM     20  H16 IPT d   1      18.489  29.368  73.942  0.00  0.00     0.028 H 
ATOM     21  H17 IPT d   1      17.781  30.245  75.341  0.00  0.00     0.028 H 
ATOM     22  H18 IPT d   1      16.709  29.586  74.059  0.00  0.00     0.028 H 
ENDBRANCH  13  19
ENDBRANCH  12  13
ENDBRANCH   1  12
BRANCH   2  23
ATOM     23  O2  IPT d   1      13.544  26.602  77.271  0.00  0.00    -0.389 OA
ATOM     24  H3  IPT d   1      12.732  26.546  77.761  0.00  0.00     0.210 HD
ENDBRANCH   2  23
BRANCH   3  25
ATOM     25  O3  IPT d   1      11.049  27.130  76.025  0.00  0.00    -0.390 OA
ATOM     26  H5  IPT d   1      10.855  27.960  76.445  0.00  0.00     0.210 HD
ENDBRANCH   3  25
BRANCH   5  27
ATOM     27  C6  IPT d   1      13.489  29.504  72.410  0.00  0.00     0.043 C 
ATOM     28  H9  IPT d   1      14.470  29.574  71.916  0.00  0.00     0.078 H 
ATOM     29  H10 IPT d   1      13.244  30.469  72.878  0.00  0.00     0.078 H 
BRANCH  27  30
ATOM     30  O6  IPT d   1      12.494  29.183  71.441  0.00  0.00    -0.398 OA
ATOM     31  H11 IPT d   1      12.705  28.350  71.036  0.00  0.00     0.209 HD
ENDBRANCH  27  30
ENDBRANCH   5  27
BRANCH   4  32
ATOM     32  O4  IPT d   1      11.814  29.593  74.810  0.00  0.00    -0.390 OA
ATOM     33  H7  IPT d   1      11.755  30.250  74.127  0.00  0.00     0.210 HD
ENDBRANCH   4  32
TORSDOF 9
