REMARK  10 active torsions:
REMARK  status: ('A' for Active; 'I' for Inactive)
REMARK    1  A    between atoms: CT1_1  and  CH1_2 
REMARK    2  A    between atoms: CH1_2  and  CZ_3 
REMARK    3  A    between atoms: CZ_3  and  NH2_4 
REMARK    4  A    between atoms: CZ_3  and  NE_5 
REMARK    5  A    between atoms: NE_5  and  CD_6 
REMARK    6  A    between atoms: CD_6  and  CG_7 
REMARK    7  A    between atoms: CG_7  and  CB_8 
REMARK    8  A    between atoms: CB_8  and  CA_9 
REMARK    9  A    between atoms: CA_9  and  C_10 
REMARK   10  A    between atoms: CA_9  and  N_13 
ROOT
ATOM      1  CD  LN5 d   1       2.048 -20.462 -18.257  0.00  0.00     0.084 C 
ATOM      2  H12 LN5 d   1       1.021 -20.544 -18.642  0.00  0.00     0.075 H 
ATOM      3  H13 LN5 d   1       2.506 -21.461 -18.220  0.00  0.00     0.075 H 
ENDROOT
BRANCH   1   4
ATOM      4  NE  LN5 d   1       2.019 -19.885 -16.899  0.00  0.00    -0.046 N 
ATOM      5  H10 LN5 d   1       2.958 -19.931 -16.535  0.00  0.00     0.279 HD
ATOM      6  H11 LN5 d   1       1.741 -18.920 -16.990  0.00  0.00     0.279 HD
BRANCH   4   7
ATOM      7  CZ  LN5 d   1       1.139 -20.498 -15.908  0.00  0.00     0.250 C 
ATOM      8  H6  LN5 d   1       0.080 -20.448 -16.203  0.00  0.00     0.130 H 
BRANCH   7   9
ATOM      9  CH1 LN5 d   1       1.529 -21.929 -15.597  0.00  0.00    -0.018 C 
ATOM     10  H4  LN5 d   1       0.609 -22.516 -15.457  0.00  0.00     0.038 H 
ATOM     11  H5  LN5 d   1       2.092 -22.328 -16.454  0.00  0.00     0.038 H 
BRANCH   9  12
ATOM     12  CT1 LN5 d   1       2.386 -22.078 -14.350  0.00  0.00    -0.073 C 
ATOM     13  H1  LN5 d   1       2.625 -23.140 -14.194  0.00  0.00     0.027 H 
ATOM     14  H2  LN5 d   1       1.835 -21.695 -13.479  0.00  0.00     0.027 H 
ATOM     15  H3  LN5 d   1       3.318 -21.507 -14.475  0.00  0.00     0.027 H 
ENDBRANCH   9  12
ENDBRANCH   7   9
BRANCH   7  16
ATOM     16  NH2 LN5 d   1       1.442 -19.669 -14.796  0.00  0.00    -0.050 N 
ATOM     17  H7  LN5 d   1       1.182 -18.718 -15.005  0.00  0.00     0.276 HD
ATOM     18  H8  LN5 d   1       2.431 -19.712 -14.604  0.00  0.00     0.276 HD
ATOM     19  H9  LN5 d   1       0.929 -19.988 -13.989  0.00  0.00     0.276 HD
ENDBRANCH   7  16
ENDBRANCH   4   7
ENDBRANCH   1   4
BRANCH   1  20
ATOM     20  CG  LN5 d   1       2.875 -19.552 -19.190  0.00  0.00    -0.040 C 
ATOM     21  H14 LN5 d   1       3.912 -19.515 -18.823  0.00  0.00     0.035 H 
ATOM     22  H15 LN5 d   1       2.444 -18.540 -19.174  0.00  0.00     0.035 H 
BRANCH  20  23
ATOM     23  CB  LN5 d   1       2.878 -20.075 -20.656  0.00  0.00    -0.027 C 
ATOM     24  H16 LN5 d   1       1.836 -20.171 -20.996  0.00  0.00     0.036 H 
ATOM     25  H17 LN5 d   1       3.362 -21.063 -20.674  0.00  0.00     0.036 H 
BRANCH  23  26
ATOM     26  CA  LN5 d   1       3.625 -19.146 -21.626  0.00  0.00     0.182 C 
ATOM     27  H18 LN5 d   1       3.235 -18.124 -21.508  0.00  0.00     0.101 H 
BRANCH  26  28
ATOM     28  C   LN5 d   1       5.128 -19.145 -21.340  0.00  0.00     0.204 C 
ATOM     29  OA2 LN5 d   1       5.834 -19.925 -22.018  0.00  0.00    -0.646 OA
ATOM     30  OA1 LN5 d   1       5.541 -18.346 -20.471  0.00  0.00    -0.646 OA
ENDBRANCH  26  28
BRANCH  26  31
ATOM     31  N   LN5 d   1       3.417 -19.588 -23.014  0.00  0.00    -0.065 N 
ATOM     32  H19 LN5 d   1       3.911 -18.972 -23.640  0.00  0.00     0.275 HD
ATOM     33  H20 LN5 d   1       2.433 -19.567 -23.229  0.00  0.00     0.275 HD
ATOM     34  H21 LN5 d   1       3.765 -20.528 -23.123  0.00  0.00     0.275 HD
ENDBRANCH  26  31
ENDBRANCH  23  26
ENDBRANCH  20  23
ENDBRANCH   1  20
TORSDOF 10
