REMARK  6 active torsions:
REMARK  status: ('A' for Active; 'I' for Inactive)
REMARK    1  A    between atoms: C1_28  and  C5_4 
REMARK    2  A    between atoms: N5_21  and  C13_9 
REMARK    3  A    between atoms: O1_14  and  C21_13 
REMARK    4  A    between atoms: C19_15  and  O1_14 
REMARK    5  A    between atoms: C12_22  and  N5_21 
REMARK    6  A    between atoms: C11_23  and  C12_22 
ROOT
ATOM      1  C12 B2D d   1      21.103  12.397  55.161  0.00  0.00     0.051 C 
ATOM      2  H13 B2D d   1      20.386  12.297  54.333  0.00  0.00     0.076 H 
ATOM      3  H14 B2D d   1      22.120  12.495  54.755  0.00  0.00     0.076 H 
ENDROOT
BRANCH   1   4
ATOM      4  N5  B2D d   1      21.034  11.195  56.011  0.00  0.00    -0.381 N 
ATOM      5  H12 B2D d   1      20.169  10.637  55.990  0.00  0.00     0.160 HD
BRANCH   4   6
ATOM      6  C13 B2D d   1      22.031  10.783  56.812  0.00  0.00     0.061 A 
ATOM      7  C17 B2D d   1      21.810   9.688  57.645  0.00  0.00     0.111 A 
ATOM      8  N7  B2D d   1      20.613   9.080  57.635  0.00  0.00    -0.254 NA
ATOM      9  C16 B2D d   1      22.832   9.229  58.485  0.00  0.00     0.090 A 
ATOM     10  C20 B2D d   1      20.362   8.041  58.414  0.00  0.00     0.035 A 
ATOM     11  C19 B2D d   1      21.327   7.526  59.280  0.00  0.00     0.087 A 
ATOM     12  H6  B2D d   1      19.382   7.578  58.379  0.00  0.00     0.119 H 
ATOM     13  C18 B2D d   1      22.587   8.133  59.318  0.00  0.00    -0.019 A 
ATOM     14  H10 B2D d   1      23.359   7.760  59.981  0.00  0.00     0.091 H 
ATOM     15  N6  B2D d   1      24.028   9.852  58.490  0.00  0.00    -0.259 NA
ATOM     16  C15 B2D d   1      24.269  10.903  57.707  0.00  0.00     0.005 A 
ATOM     17  C14 B2D d   1      23.287  11.394  56.842  0.00  0.00    -0.038 A 
ATOM     18  H5  B2D d   1      25.240  11.384  57.741  0.00  0.00     0.114 H 
ATOM     19  H11 B2D d   1      23.498  12.242  56.200  0.00  0.00     0.089 H 
BRANCH  11  20
ATOM     20  O1  B2D d   1      20.974   6.445  60.050  0.00  0.00    -0.354 OA
BRANCH  20  21
ATOM     21  C21 B2D d   1      21.944   5.968  61.010  0.00  0.00     0.010 C 
ATOM     22  H7  B2D d   1      21.530   5.105  61.552  0.00  0.00     0.066 H 
ATOM     23  H8  B2D d   1      22.179   6.771  61.724  0.00  0.00     0.066 H 
ATOM     24  H9  B2D d   1      22.862   5.665  60.484  0.00  0.00     0.066 H 
ENDBRANCH  20  21
ENDBRANCH  11  20
ENDBRANCH   4   6
ENDBRANCH   1   4
BRANCH   1  25
ATOM     25  C11 B2D d   1      20.762  13.649  55.976  0.00  0.00     0.169 A 
ATOM     26  N1  B2D d   1      19.742  13.703  56.930  0.00  0.00    -0.196 N 
ATOM     27  C4  B2D d   1      19.809  15.019  57.388  0.00  0.00     0.174 A 
ATOM     28  N2  B2D d   1      18.914  12.889  57.367  0.00  0.00    -0.164 NA
ATOM     29  N3  B2D d   1      20.795  15.625  56.724  0.00  0.00    -0.128 NA
ATOM     30  C3  B2D d   1      18.925  15.447  58.370  0.00  0.00    -0.033 A 
ATOM     31  N4  B2D d   1      21.337  14.853  55.921  0.00  0.00    -0.131 NA
ATOM     32  C2  B2D d   1      18.007  14.521  58.847  0.00  0.00    -0.049 A 
ATOM     33  H15 B2D d   1      18.951  16.467  58.750  0.00  0.00     0.089 H 
ATOM     34  C1  B2D d   1      18.014  13.224  58.322  0.00  0.00     0.088 A 
ATOM     35  H16 B2D d   1      17.291  14.800  59.619  0.00  0.00     0.087 H 
BRANCH  34  36
ATOM     36  C5  B2D d   1      17.095  12.285  58.801  0.00  0.00    -0.006 A 
ATOM     37  C6  B2D d   1      15.995  12.699  59.560  0.00  0.00    -0.071 A 
ATOM     38  C7  B2D d   1      15.078  11.769  60.043  0.00  0.00    -0.082 A 
ATOM     39  H1  B2D d   1      15.855  13.752  59.774  0.00  0.00     0.084 H 
ATOM     40  C8  B2D d   1      15.259  10.413  59.771  0.00  0.00    -0.083 A 
ATOM     41  H2  B2D d   1      14.227  12.098  60.628  0.00  0.00     0.083 H 
ATOM     42  C9  B2D d   1      16.354   9.992  59.015  0.00  0.00    -0.082 A 
ATOM     43  H3  B2D d   1      14.549   9.686  60.147  0.00  0.00     0.083 H 
ATOM     44  C10 B2D d   1      17.269  10.925  58.531  0.00  0.00    -0.071 A 
ATOM     45  H17 B2D d   1      16.493   8.938  58.804  0.00  0.00     0.083 H 
ATOM     46  H4  B2D d   1      18.118  10.595  57.944  0.00  0.00     0.084 H 
ENDBRANCH  34  36
ENDBRANCH   1  25
TORSDOF 6
