REMARK WARNING: 32 MAX_TORS EXCEEDED!!!
REMARK  33 active torsions:
REMARK  status: ('A' for Active; 'I' for Inactive)
REMARK    1  A    between atoms: N_1  and  CA_2 
REMARK    2  A    between atoms: CA_2  and  C_3 
REMARK    3  A    between atoms: CA_2  and  CB_5 
REMARK       I    between atoms: C_3  and  N_10 
REMARK    4  A    between atoms: CB_5  and  CG_6 
REMARK    5  A    between atoms: CG_6  and  CD_7 
REMARK    6  A    between atoms: CD_7  and  CE_8 
REMARK    7  A    between atoms: CE_8  and  NZ_9 
REMARK    8  A    between atoms: N_10  and  CA_11 
REMARK    9  A    between atoms: CA_11  and  C_12 
REMARK   10  A    between atoms: CA_11  and  CB_14 
REMARK       I    between atoms: C_12  and  N_21 
REMARK   11  A    between atoms: CB_14  and  CG_15 
REMARK   12  A    between atoms: CG_15  and  CD_16 
REMARK   13  A    between atoms: CD_16  and  NE_17 
REMARK       I    between atoms: NE_17  and  CZ_18 
REMARK       I    between atoms: CZ_18  and  NH1_19 
REMARK   14  A    between atoms: CA_22  and  C_23 
REMARK       I    between atoms: C_23  and  N_28 
REMARK   15  A    between atoms: N_28  and  CA_29 
REMARK   16  A    between atoms: CA_29  and  C_30 
REMARK   17  A    between atoms: CA_29  and  CB_32 
REMARK       I    between atoms: C_30  and  N_36 
REMARK   18  A    between atoms: CB_32  and  CG_33 
REMARK   19  A    between atoms: CG_33  and  CD1_34 
REMARK   20  A    between atoms: CG_33  and  CD2_35 
REMARK   21  A    between atoms: CA_37  and  C_38 
REMARK       I    between atoms: C_38  and  N_43 
REMARK   22  A    between atoms: CA_44  and  C_45 
REMARK       I    between atoms: C_45  and  N_50 
REMARK   23  A    between atoms: N_50  and  CA_51 
REMARK   24  A    between atoms: CA_51  and  C_52 
REMARK   25  A    between atoms: CA_51  and  CB_54 
REMARK       I    between atoms: C_52  and  N_58 
REMARK   26  A    between atoms: CB_54  and  CG_55 
REMARK   27  A    between atoms: CG_55  and  CD1_56 
REMARK   28  A    between atoms: CG_55  and  CD2_57 
REMARK   29  A    between atoms: CA_59  and  C_60 
REMARK       I    between atoms: C_60  and  N_65 
REMARK   30  A    between atoms: N_65  and  CA_66 
REMARK   31  A    between atoms: CA_66  and  C_67 
REMARK   32  A    between atoms: CA_66  and  CB_69 
REMARK   33  A    between atoms: CB_69  and  OG_70 
ROOT
ATOM      1  CA  LEU d   1       1.168  26.471  18.666  0.00  0.00     0.090 C 
ATOM      2  H37 LEU d   1       0.679  25.630  18.152  0.00  0.00     0.087 H 
ENDROOT
BRANCH   1   3
ATOM      3  N   LEU d   1       0.156  27.355  19.242  0.00  0.00    -0.346 N 
ATOM      4  C   PRO d   1      -0.936  26.865  19.811  0.00  0.00     0.241 C 
ATOM      5  O   PRO d   1      -1.208  25.670  19.820  0.00  0.00    -0.271 OA
ATOM      6  H36 LEU d   1       0.290  28.345  19.206  0.00  0.00     0.163 HD
BRANCH   4   7
ATOM      7  CA  PRO d   1      -1.866  27.871  20.483  0.00  0.00     0.091 C 
ATOM      8  N   PRO d   1      -3.271  27.508  20.309  0.00  0.00    -0.337 N 
ATOM      9  C   ARG d   1      -3.810  27.445  19.081  0.00  0.00     0.243 C 
ATOM     10  CD  PRO d   1      -3.965  27.411  21.602  0.00  0.00    -0.001 C 
ATOM     11  O   ARG d   1      -3.168  27.696  18.068  0.00  0.00    -0.271 OA
ATOM     12  CG  PRO d   1      -2.855  27.035  22.517  0.00  0.00    -0.048 C 
ATOM     13  H34 PRO d   1      -4.746  26.636  21.580  0.00  0.00     0.064 H 
ATOM     14  H35 PRO d   1      -4.412  28.374  21.890  0.00  0.00     0.064 H 
ATOM     15  CB  PRO d   1      -1.679  27.823  22.009  0.00  0.00    -0.036 C 
ATOM     16  H32 PRO d   1      -3.093  27.313  23.554  0.00  0.00     0.035 H 
ATOM     17  H33 PRO d   1      -2.654  25.955  22.464  0.00  0.00     0.035 H 
ATOM     18  H30 PRO d   1      -1.682  28.839  22.432  0.00  0.00     0.036 H 
ATOM     19  H31 PRO d   1      -0.735  27.321  22.268  0.00  0.00     0.036 H 
ATOM     20  H29 PRO d   1      -1.668  28.878  20.087  0.00  0.00     0.087 H 
BRANCH   9  21
ATOM     21  CA  ARG d   1      -5.282  27.064  18.984  0.00  0.00     0.089 C 
ATOM     22  H17 ARG d   1      -5.724  27.062  19.991  0.00  0.00     0.087 H 
BRANCH  21  23
ATOM     23  N   ARG d   1      -5.987  28.024  18.151  0.00  0.00    -0.346 N 
ATOM     24  C   LYS d   1      -6.030  29.317  18.453  0.00  0.00     0.248 C 
ATOM     25  O   LYS d   1      -5.601  29.769  19.516  0.00  0.00    -0.271 OA
ATOM     26  H16 ARG d   1      -6.453  27.702  17.327  0.00  0.00     0.163 HD
BRANCH  24  27
ATOM     27  CA  LYS d   1      -6.663  30.232  17.403  0.00  0.00     0.176 C 
ATOM     28  H4  LYS d   1      -7.322  29.624  16.766  0.00  0.00     0.099 H 
BRANCH  27  29
ATOM     29  N   LYS d   1      -7.470  31.280  18.024  0.00  0.00    -0.067 N 
ATOM     30  H1  LYS d   1      -7.872  31.864  17.307  0.00  0.00     0.275 HD
ATOM     31  H2  LYS d   1      -6.887  31.840  18.626  0.00  0.00     0.275 HD
ATOM     32  H3  LYS d   1      -8.208  30.859  18.567  0.00  0.00     0.275 HD
ENDBRANCH  27  29
BRANCH  27  33
ATOM     33  CB  LYS d   1      -5.570  30.845  16.526  0.00  0.00    -0.030 C 
ATOM     34  H5  LYS d   1      -5.130  30.044  15.914  0.00  0.00     0.036 H 
ATOM     35  H6  LYS d   1      -4.798  31.270  17.184  0.00  0.00     0.036 H 
BRANCH  33  36
ATOM     36  CG  LYS d   1      -6.057  31.942  15.594  0.00  0.00    -0.061 C 
ATOM     37  H7  LYS d   1      -6.968  32.393  16.015  0.00  0.00     0.033 H 
ATOM     38  H8  LYS d   1      -6.285  31.503  14.611  0.00  0.00     0.033 H 
BRANCH  36  39
ATOM     39  CD  LYS d   1      -4.997  33.028  15.421  0.00  0.00    -0.043 C 
ATOM     40  H9  LYS d   1      -4.708  33.402  16.414  0.00  0.00     0.035 H 
ATOM     41  H10 LYS d   1      -5.426  33.851  14.830  0.00  0.00     0.035 H 
BRANCH  39  42
ATOM     42  CE  LYS d   1      -3.752  32.511  14.710  0.00  0.00     0.080 C 
ATOM     43  H11 LYS d   1      -3.508  31.513  15.104  0.00  0.00     0.075 H 
ATOM     44  H12 LYS d   1      -2.918  33.199  14.912  0.00  0.00     0.075 H 
BRANCH  42  45
ATOM     45  NZ  LYS d   1      -3.944  32.411  13.240  0.00  0.00    -0.079 N 
ATOM     46  H13 LYS d   1      -3.098  32.066  12.813  0.00  0.00     0.274 HD
ATOM     47  H14 LYS d   1      -4.161  33.322  12.867  0.00  0.00     0.274 HD
ATOM     48  H15 LYS d   1      -4.702  31.777  13.043  0.00  0.00     0.274 HD
ENDBRANCH  42  45
ENDBRANCH  39  42
ENDBRANCH  36  39
ENDBRANCH  33  36
ENDBRANCH  27  33
ENDBRANCH  24  27
ENDBRANCH  21  23
BRANCH  21  49
ATOM     49  CB  ARG d   1      -5.408  25.673  18.372  0.00  0.00    -0.036 C 
ATOM     50  H18 ARG d   1      -5.013  25.710  17.346  0.00  0.00     0.036 H 
ATOM     51  H19 ARG d   1      -6.474  25.404  18.345  0.00  0.00     0.036 H 
BRANCH  49  52
ATOM     52  CG  ARG d   1      -4.667  24.596  19.125  0.00  0.00    -0.048 C 
ATOM     53  H20 ARG d   1      -5.081  24.509  20.140  0.00  0.00     0.035 H 
ATOM     54  H21 ARG d   1      -3.601  24.860  19.185  0.00  0.00     0.035 H 
BRANCH  52  55
ATOM     55  CD  ARG d   1      -4.818  23.274  18.406  0.00  0.00     0.009 C 
ATOM     56  H22 ARG d   1      -4.443  23.381  17.377  0.00  0.00     0.064 H 
ATOM     57  H23 ARG d   1      -5.883  22.999  18.381  0.00  0.00     0.064 H 
BRANCH  55  58
ATOM     58  NE  ARG d   1      -4.069  22.214  19.077  0.00  0.00    -0.227 N 
ATOM     59  CZ  ARG d   1      -3.871  21.010  18.557  0.00  0.00     0.665 C 
ATOM     60  NH1 ARG d   1      -4.364  20.720  17.354  0.00  0.00    -0.235 N 
ATOM     61  NH2 ARG d   1      -3.186  20.094  19.234  0.00  0.00    -0.235 N 
ATOM     62  H25 ARG d   1      -4.212  19.786  16.947  0.00  0.00     0.174 HD
ATOM     63  H26 ARG d   1      -4.897  21.430  16.831  0.00  0.00     0.174 HD
ATOM     64  H27 ARG d   1      -2.805  20.319  20.164  0.00  0.00     0.174 HD
ATOM     65  H28 ARG d   1      -3.036  19.159  18.828  0.00  0.00     0.174 HD
ATOM     66  H24 ARG d   1      -3.672  22.413  20.006  0.00  0.00     0.177 HD
ENDBRANCH  55  58
ENDBRANCH  52  55
ENDBRANCH  49  52
ENDBRANCH  21  49
ENDBRANCH   9  21
ENDBRANCH   4   7
ENDBRANCH   1   3
BRANCH   1  67
ATOM     67  C   LEU d   1       2.074  25.961  19.761  0.00  0.00     0.243 C 
ATOM     68  O   LEU d   1       2.377  26.697  20.707  0.00  0.00    -0.271 OA
ATOM     69  N   PRO d   1       2.542  24.713  19.632  0.00  0.00    -0.337 N 
ATOM     70  CA  PRO d   1       3.536  24.255  20.599  0.00  0.00     0.092 C 
ATOM     71  CD  PRO d   1       2.258  23.676  18.621  0.00  0.00    -0.001 C 
ATOM     72  CB  PRO d   1       3.553  22.747  20.359  0.00  0.00    -0.036 C 
ATOM     73  H47 PRO d   1       3.256  24.500  21.634  0.00  0.00     0.087 H 
ATOM     74  CG  PRO d   1       3.355  22.648  18.886  0.00  0.00    -0.048 C 
ATOM     75  H48 PRO d   1       2.737  22.249  20.903  0.00  0.00     0.036 H 
ATOM     76  H49 PRO d   1       4.516  22.308  20.660  0.00  0.00     0.036 H 
ATOM     77  H50 PRO d   1       3.029  21.638  18.597  0.00  0.00     0.035 H 
ATOM     78  H51 PRO d   1       4.277  22.905  18.344  0.00  0.00     0.035 H 
ATOM     79  H52 PRO d   1       2.333  24.083  17.602  0.00  0.00     0.064 H 
ATOM     80  H53 PRO d   1       1.260  23.239  18.769  0.00  0.00     0.064 H 
BRANCH  70  81
ATOM     81  C   PRO d   1       4.880  24.886  20.245  0.00  0.00     0.243 C 
ATOM     82  O   PRO d   1       5.105  25.226  19.090  0.00  0.00    -0.271 OA
ATOM     83  N   PRO d   1       5.757  25.077  21.238  0.00  0.00    -0.337 N 
ATOM     84  CA  PRO d   1       7.113  25.511  20.923  0.00  0.00     0.091 C 
ATOM     85  CD  PRO d   1       5.562  24.911  22.687  0.00  0.00    -0.001 C 
ATOM     86  CB  PRO d   1       7.761  25.653  22.307  0.00  0.00    -0.036 C 
ATOM     87  H54 PRO d   1       7.120  26.462  20.370  0.00  0.00     0.087 H 
ATOM     88  CG  PRO d   1       6.963  24.705  23.165  0.00  0.00    -0.048 C 
ATOM     89  H55 PRO d   1       7.676  26.685  22.677  0.00  0.00     0.036 H 
ATOM     90  H56 PRO d   1       8.821  25.360  22.277  0.00  0.00     0.036 H 
ATOM     91  H57 PRO d   1       7.058  24.962  24.230  0.00  0.00     0.035 H 
ATOM     92  H58 PRO d   1       7.285  23.665  23.008  0.00  0.00     0.035 H 
ATOM     93  H59 PRO d   1       4.931  24.037  22.908  0.00  0.00     0.064 H 
ATOM     94  H60 PRO d   1       5.114  25.810  23.136  0.00  0.00     0.064 H 
BRANCH  84  95
ATOM     95  C   PRO d   1       7.828  24.423  20.121  0.00  0.00     0.241 C 
ATOM     96  O   PRO d   1       7.441  23.239  20.179  0.00  0.00    -0.271 OA
ATOM     97  N   LEU d   1       8.837  24.823  19.353  0.00  0.00    -0.346 N 
ATOM     98  H61 LEU d   1       9.016  25.800  19.236  0.00  0.00     0.163 HD
BRANCH  97  99
ATOM     99  CA  LEU d   1       9.683  23.847  18.681  0.00  0.00     0.090 C 
ATOM    100  H62 LEU d   1       9.049  23.211  18.045  0.00  0.00     0.087 H 
BRANCH  99 101
ATOM    101  C   LEU d   1      10.379  22.973  19.713  0.00  0.00     0.243 C 
ATOM    102  O   LEU d   1      10.702  23.434  20.813  0.00  0.00    -0.271 OA
ATOM    103  N   PRO d   1      10.604  21.697  19.371  0.00  0.00    -0.337 N 
ATOM    104  CA  PRO d   1      11.283  20.794  20.306  0.00  0.00     0.091 C 
ATOM    105  CD  PRO d   1      10.046  20.967  18.223  0.00  0.00    -0.001 C 
ATOM    106  CB  PRO d   1      11.050  19.410  19.687  0.00  0.00    -0.036 C 
ATOM    107  H72 PRO d   1      10.860  20.864  21.319  0.00  0.00     0.087 H 
ATOM    108  CG  PRO d   1      10.840  19.696  18.230  0.00  0.00    -0.048 C 
ATOM    109  H73 PRO d   1      10.161  18.931  20.124  0.00  0.00     0.036 H 
ATOM    110  H74 PRO d   1      11.926  18.762  19.836  0.00  0.00     0.036 H 
ATOM    111  H75 PRO d   1      10.279  18.882  17.748  0.00  0.00     0.035 H 
ATOM    112  H76 PRO d   1      11.803  19.833  17.715  0.00  0.00     0.035 H 
ATOM    113  H77 PRO d   1      10.196  21.524  17.287  0.00  0.00     0.064 H 
ATOM    114  H78 PRO d   1       8.973  20.767  18.363  0.00  0.00     0.064 H 
BRANCH 104 115
ATOM    115  C   PRO d   1      12.770  21.101  20.331  0.00  0.00     0.241 C 
ATOM    116  O   PRO d   1      13.249  21.856  19.476  0.00  0.00    -0.271 OA
ATOM    117  N   SER d   1      13.474  20.499  21.285  0.00  0.00    -0.343 N 
ATOM    118  H79 SER d   1      13.005  19.844  21.878  0.00  0.00     0.163 HD
BRANCH 117 119
ATOM    119  CA  SER d   1      14.896  20.743  21.513  0.00  0.00     0.116 C 
ATOM    120  H80 SER d   1      15.318  19.857  22.010  0.00  0.00     0.093 H 
BRANCH 119 121
ATOM    121  C   SER d   1      15.084  21.940  22.438  0.00  0.00     0.198 C 
ATOM    122  O   SER d   1      15.919  21.912  23.336  0.00  0.00    -0.646 OA
ATOM    123  OXT SER d   1      14.403  22.951  22.300  0.00  0.00    -0.646 OA
ENDBRANCH 119 121
BRANCH 119 124
ATOM    124  CB  SER d   1      15.652  20.948  20.195  0.00  0.00     0.045 C 
ATOM    125  H81 SER d   1      15.153  21.739  19.616  0.00  0.00     0.077 H 
ATOM    126  H82 SER d   1      15.635  20.008  19.623  0.00  0.00     0.077 H 
BRANCH 124 127
ATOM    127  OG  SER d   1      17.001  21.325  20.422  0.00  0.00    -0.398 OA
ATOM    128  H83 SER d   1      17.440  21.444  19.588  0.00  0.00     0.209 HD
ENDBRANCH 124 127
ENDBRANCH 119 124
ENDBRANCH 117 119
ENDBRANCH 104 115
ENDBRANCH  99 101
BRANCH  99 129
ATOM    129  CB  LEU d   1      10.725  24.535  17.799  0.00  0.00    -0.035 C 
ATOM    130  H63 LEU d   1      11.403  23.756  17.420  0.00  0.00     0.037 H 
ATOM    131  H64 LEU d   1      11.288  25.233  18.436  0.00  0.00     0.037 H 
BRANCH 129 132
ATOM    132  CG  LEU d   1      10.216  25.321  16.598  0.00  0.00    -0.059 C 
ATOM    133  H65 LEU d   1       9.588  26.146  16.965  0.00  0.00     0.038 H 
BRANCH 132 134
ATOM    134  CD1 LEU d   1      11.418  25.920  15.867  0.00  0.00    -0.073 C 
ATOM    135  H66 LEU d   1      11.069  26.492  14.995  0.00  0.00     0.028 H 
ATOM    136  H67 LEU d   1      12.084  25.111  15.532  0.00  0.00     0.028 H 
ATOM    137  H68 LEU d   1      11.966  26.588  16.548  0.00  0.00     0.028 H 
ENDBRANCH 132 134
BRANCH 132 138
ATOM    138  CD2 LEU d   1       9.359  24.464  15.678  0.00  0.00    -0.073 C 
ATOM    139  H69 LEU d   1       8.509  24.055  16.244  0.00  0.00     0.028 H 
ATOM    140  H70 LEU d   1       9.964  23.637  15.278  0.00  0.00     0.028 H 
ATOM    141  H71 LEU d   1       8.984  25.080  14.847  0.00  0.00     0.028 H 
ENDBRANCH 132 138
ENDBRANCH 129 132
ENDBRANCH  99 129
ENDBRANCH  97  99
ENDBRANCH  84  95
ENDBRANCH  70  81
ENDBRANCH   1  67
BRANCH   1 142
ATOM    142  CB  LEU d   1       2.032  27.245  17.699  0.00  0.00    -0.035 C 
ATOM    143  H38 LEU d   1       2.928  26.646  17.478  0.00  0.00     0.037 H 
ATOM    144  H39 LEU d   1       2.331  28.188  18.180  0.00  0.00     0.037 H 
BRANCH 142 145
ATOM    145  CG  LEU d   1       1.339  27.576  16.383  0.00  0.00    -0.059 C 
ATOM    146  H40 LEU d   1       0.317  27.926  16.590  0.00  0.00     0.038 H 
BRANCH 145 147
ATOM    147  CD1 LEU d   1       2.089  28.672  15.664  0.00  0.00    -0.073 C 
ATOM    148  H41 LEU d   1       1.581  28.903  14.716  0.00  0.00     0.028 H 
ATOM    149  H42 LEU d   1       3.117  28.338  15.457  0.00  0.00     0.028 H 
ATOM    150  H43 LEU d   1       2.116  29.573  16.295  0.00  0.00     0.028 H 
ENDBRANCH 145 147
BRANCH 145 151
ATOM    151  CD2 LEU d   1       1.268  26.317  15.543  0.00  0.00    -0.073 C 
ATOM    152  H44 LEU d   1       0.717  25.540  16.093  0.00  0.00     0.028 H 
ATOM    153  H45 LEU d   1       2.287  25.962  15.328  0.00  0.00     0.028 H 
ATOM    154  H46 LEU d   1       0.749  26.535  14.598  0.00  0.00     0.028 H 
ENDBRANCH 145 151
ENDBRANCH 142 145
ENDBRANCH   1 142
TORSDOF 33
