REMARK  7 active torsions:
REMARK  status: ('A' for Active; 'I' for Inactive)
REMARK    1  A    between atoms: C3_3  and  O18_18 
REMARK    2  A    between atoms: C6_6  and  O17_17 
REMARK    3  A    between atoms: N10_10  and  C19_19 
REMARK    4  A    between atoms: O17_17  and  C16_16 
REMARK    5  A    between atoms: C19_19  and  C20_20 
REMARK    6  A    between atoms: C20_20  and  C21_21 
REMARK    7  A    between atoms: C21_21  and  N22_22 
ROOT
ATOM      1  C1  G3X d   1       2.576  68.097  63.232  0.00  0.00    -0.089 C 
ATOM      2  C2  G3X d   1       2.735  68.537  61.947  0.00  0.00    -0.078 C 
ATOM      3  C3  G3X d   1       4.102  68.573  61.270  0.00  0.00     0.054 C 
ATOM      4  C4  G3X d   1       5.184  68.845  62.343  0.00  0.00    -0.012 C 
ATOM      5  O5  G3X d   1       5.418  66.438  62.916  0.00  0.00    -0.341 OA
ATOM      6  C6  G3X d   1       4.722  64.151  63.720  0.00  0.00     0.102 A 
ATOM      7  C7  G3X d   1       3.775  63.455  64.518  0.00  0.00    -0.047 A 
ATOM      8  C8  G3X d   1       2.755  64.164  65.194  0.00  0.00    -0.072 A 
ATOM      9  C9  G3X d   1       1.469  66.279  65.783  0.00  0.00     0.108 C 
ATOM     10  N10 G3X d   1       1.883  67.352  66.752  0.00  0.00    -0.067 N 
ATOM     11  C11 G3X d   1       2.397  68.625  66.140  0.00  0.00     0.085 C 
ATOM     12  C12 G3X d   1       3.772  68.498  65.461  0.00  0.00    -0.026 C 
ATOM     13  C13 G3X d   1       4.633  65.558  63.606  0.00  0.00     0.110 A 
ATOM     14  C14 G3X d   1       3.624  66.233  64.290  0.00  0.00     0.001 A 
ATOM     15  C15 G3X d   1       2.663  65.572  65.088  0.00  0.00    -0.022 A 
ATOM     16  C41 G3X d   1       5.139  67.763  63.489  0.00  0.00     0.062 C 
ATOM     17  C42 G3X d   1       3.717  67.619  64.198  0.00  0.00     0.036 C 
ATOM     18  H1  G3X d   1       1.560  68.076  63.623  0.00  0.00     0.078 H 
ATOM     19  H2  G3X d   1       1.861  68.871  61.391  0.00  0.00     0.080 H 
ATOM     20  H3  G3X d   1       4.126  69.381  60.524  0.00  0.00     0.089 H 
ATOM     21  H4  G3X d   1       5.012  69.839  62.782  0.00  0.00     0.041 H 
ATOM     22  H5  G3X d   1       6.175  68.821  61.867  0.00  0.00     0.041 H 
ATOM     23  H6  G3X d   1       3.834  62.377  64.609  0.00  0.00     0.087 H 
ATOM     24  H7  G3X d   1       2.037  63.623  65.799  0.00  0.00     0.084 H 
ATOM     25  H8  G3X d   1       0.837  66.736  65.007  0.00  0.00     0.083 H 
ATOM     26  H9  G3X d   1       0.888  65.522  66.330  0.00  0.00     0.083 H 
ATOM     27  H10 G3X d   1       2.646  66.966  67.285  0.00  0.00     0.280 HD
ATOM     28  H11 G3X d   1       2.475  69.381  66.935  0.00  0.00     0.076 H 
ATOM     29  H12 G3X d   1       1.671  68.961  65.385  0.00  0.00     0.076 H 
ATOM     30  H13 G3X d   1       4.479  68.050  66.174  0.00  0.00     0.037 H 
ATOM     31  H14 G3X d   1       4.122  69.502  65.179  0.00  0.00     0.037 H 
ATOM     32  H36 G3X d   1       5.897  68.021  64.243  0.00  0.00     0.086 H 
ENDROOT
BRANCH  10  33
ATOM     33  C19 G3X d   1       0.792  67.662  67.708  0.00  0.00     0.085 C 
ATOM     34  H19 G3X d   1      -0.153  67.723  67.149  0.00  0.00     0.076 H 
ATOM     35  H20 G3X d   1       1.005  68.635  68.175  0.00  0.00     0.076 H 
BRANCH  33  36
ATOM     36  C20 G3X d   1       0.632  66.618  68.817  0.00  0.00    -0.020 C 
ATOM     37  H21 G3X d   1       0.515  65.625  68.358  0.00  0.00     0.037 H 
ATOM     38  H22 G3X d   1      -0.266  66.858  69.406  0.00  0.00     0.037 H 
BRANCH  36  39
ATOM     39  C21 G3X d   1       1.841  66.592  69.748  0.00  0.00     0.085 C 
ATOM     40  H23 G3X d   1       1.592  66.014  70.650  0.00  0.00     0.076 H 
ATOM     41  H24 G3X d   1       2.103  67.622  70.032  0.00  0.00     0.076 H 
BRANCH  39  42
ATOM     42  N22 G3X d   1       2.989  65.968  69.073  0.00  0.00    -0.071 N 
ATOM     43  C23 G3X d   1       3.153  64.532  69.420  0.00  0.00     0.084 C 
ATOM     44  C24 G3X d   1       4.215  63.910  68.506  0.00  0.00    -0.042 C 
ATOM     45  H26 G3X d   1       2.196  64.008  69.281  0.00  0.00     0.076 H 
ATOM     46  H27 G3X d   1       3.472  64.441  70.469  0.00  0.00     0.076 H 
ATOM     47  C25 G3X d   1       5.522  64.714  68.598  0.00  0.00    -0.062 C 
ATOM     48  H28 G3X d   1       3.853  63.920  67.467  0.00  0.00     0.035 H 
ATOM     49  H29 G3X d   1       4.403  62.872  68.819  0.00  0.00     0.035 H 
ATOM     50  C26 G3X d   1       5.284  66.183  68.230  0.00  0.00    -0.042 C 
ATOM     51  H30 G3X d   1       6.260  64.284  67.905  0.00  0.00     0.033 H 
ATOM     52  H31 G3X d   1       5.908  64.658  69.626  0.00  0.00     0.033 H 
ATOM     53  C27 G3X d   1       4.220  66.789  69.147  0.00  0.00     0.084 C 
ATOM     54  H32 G3X d   1       4.943  66.246  67.186  0.00  0.00     0.035 H 
ATOM     55  H33 G3X d   1       6.224  66.743  68.343  0.00  0.00     0.035 H 
ATOM     56  H34 G3X d   1       4.591  66.803  70.182  0.00  0.00     0.076 H 
ATOM     57  H35 G3X d   1       3.997  67.816  68.823  0.00  0.00     0.076 H 
ATOM     58  H25 G3X d   1       2.747  65.965  68.095  0.00  0.00     0.279 HD
ENDBRANCH  39  42
ENDBRANCH  36  39
ENDBRANCH  33  36
ENDBRANCH  10  33
BRANCH   6  59
ATOM     59  O17 G3X d   1       5.769  63.494  63.077  0.00  0.00    -0.353 OA
BRANCH  59  60
ATOM     60  C16 G3X d   1       5.487  62.121  62.738  0.00  0.00     0.010 C 
ATOM     61  H15 G3X d   1       6.361  61.680  62.237  0.00  0.00     0.066 H 
ATOM     62  H16 G3X d   1       4.619  62.081  62.064  0.00  0.00     0.066 H 
ATOM     63  H17 G3X d   1       5.266  61.555  63.655  0.00  0.00     0.066 H 
ENDBRANCH  59  60
ENDBRANCH   6  59
BRANCH   3  64
ATOM     64  O18 G3X d   1       4.309  67.309  60.606  0.00  0.00    -0.392 OA
ATOM     65  H18 G3X d   1       4.277  66.608  61.246  0.00  0.00     0.210 HD
ENDBRANCH   3  64
TORSDOF 7
