REMARK  10 active torsions:
REMARK  status: ('A' for Active; 'I' for Inactive)
REMARK    1  A    between atoms: C3_3  and  O18_18 
REMARK    2  A    between atoms: C6_6  and  O17_17 
REMARK    3  A    between atoms: N10_10  and  C19_19 
REMARK    4  A    between atoms: O17_17  and  C16_16 
REMARK    5  A    between atoms: C19_19  and  C20_20 
REMARK    6  A    between atoms: C20_20  and  C21_21 
REMARK    7  A    between atoms: C21_21  and  C22_22 
REMARK    8  A    between atoms: C22_22  and  C23_23 
REMARK    9  A    between atoms: C23_23  and  C24_24 
REMARK   10  A    between atoms: C24_24  and  N25_25 
ROOT
ATOM      1  C1  G6X d   1       2.523  67.740  63.309  0.00  0.00    -0.089 C 
ATOM      2  C2  G6X d   1       2.620  68.166  62.016  0.00  0.00    -0.078 C 
ATOM      3  C3  G6X d   1       3.964  68.253  61.279  0.00  0.00     0.054 C 
ATOM      4  C4  G6X d   1       5.115  68.491  62.285  0.00  0.00    -0.012 C 
ATOM      5  O5  G6X d   1       5.273  66.089  62.853  0.00  0.00    -0.341 OA
ATOM      6  C6  G6X d   1       4.656  63.835  63.798  0.00  0.00     0.102 A 
ATOM      7  C7  G6X d   1       3.805  63.162  64.715  0.00  0.00    -0.047 A 
ATOM      8  C8  G6X d   1       2.886  63.890  65.495  0.00  0.00    -0.072 A 
ATOM      9  C9  G6X d   1       1.831  66.010  66.356  0.00  0.00     0.108 C 
ATOM     10  N10 G6X d   1       2.481  67.156  67.072  0.00  0.00    -0.067 N 
ATOM     11  C11 G6X d   1       2.586  68.407  66.296  0.00  0.00     0.085 C 
ATOM     12  C12 G6X d   1       3.844  68.384  65.374  0.00  0.00    -0.026 C 
ATOM     13  C13 G6X d   1       4.562  65.238  63.658  0.00  0.00     0.110 A 
ATOM     14  C14 G6X d   1       3.649  65.949  64.441  0.00  0.00     0.001 A 
ATOM     15  C15 G6X d   1       2.797  65.299  65.383  0.00  0.00    -0.022 A 
ATOM     16  C41 G6X d   1       5.107  67.423  63.446  0.00  0.00     0.062 C 
ATOM     17  C42 G6X d   1       3.727  67.342  64.233  0.00  0.00     0.036 C 
ATOM     18  H1  G6X d   1       1.524  67.670  63.736  0.00  0.00     0.078 H 
ATOM     19  H2  G6X d   1       1.712  68.454  61.488  0.00  0.00     0.080 H 
ATOM     20  H3  G6X d   1       3.936  69.099  60.576  0.00  0.00     0.089 H 
ATOM     21  H4  G6X d   1       5.004  69.494  62.723  0.00  0.00     0.041 H 
ATOM     22  H5  G6X d   1       6.074  68.429  61.750  0.00  0.00     0.041 H 
ATOM     23  H6  G6X d   1       3.863  62.084  64.815  0.00  0.00     0.087 H 
ATOM     24  H7  G6X d   1       2.239  63.366  66.189  0.00  0.00     0.084 H 
ATOM     25  H8  G6X d   1       0.972  66.392  65.785  0.00  0.00     0.083 H 
ATOM     26  H9  G6X d   1       1.481  65.281  67.101  0.00  0.00     0.083 H 
ATOM     27  H10 G6X d   1       1.809  67.377  67.790  0.00  0.00     0.280 HD
ATOM     28  H11 G6X d   1       2.664  69.257  66.990  0.00  0.00     0.076 H 
ATOM     29  H12 G6X d   1       1.686  68.522  65.675  0.00  0.00     0.076 H 
ATOM     30  H13 G6X d   1       4.725  68.139  65.986  0.00  0.00     0.037 H 
ATOM     31  H14 G6X d   1       3.973  69.381  64.928  0.00  0.00     0.037 H 
ATOM     32  H35 G6X d   1       5.925  67.647  64.147  0.00  0.00     0.086 H 
ENDROOT
BRANCH  10  33
ATOM     33  C19 G6X d   1       3.733  66.865  67.852  0.00  0.00     0.084 C 
ATOM     34  H19 G6X d   1       4.126  67.817  68.239  0.00  0.00     0.076 H 
ATOM     35  H20 G6X d   1       4.468  66.417  67.167  0.00  0.00     0.076 H 
BRANCH  33  36
ATOM     36  C20 G6X d   1       3.537  65.907  69.041  0.00  0.00    -0.042 C 
ATOM     37  H21 G6X d   1       2.490  65.953  69.376  0.00  0.00     0.035 H 
ATOM     38  H22 G6X d   1       4.200  66.209  69.865  0.00  0.00     0.035 H 
BRANCH  36  39
ATOM     39  C21 G6X d   1       3.870  64.484  68.624  0.00  0.00    -0.064 C 
ATOM     40  H23 G6X d   1       4.682  64.516  67.883  0.00  0.00     0.033 H 
ATOM     41  H24 G6X d   1       2.976  64.033  68.169  0.00  0.00     0.033 H 
BRANCH  39  42
ATOM     42  C22 G6X d   1       4.316  63.607  69.804  0.00  0.00    -0.064 C 
ATOM     43  H25 G6X d   1       5.059  64.169  70.389  0.00  0.00     0.033 H 
ATOM     44  H26 G6X d   1       4.781  62.696  69.399  0.00  0.00     0.033 H 
BRANCH  42  45
ATOM     45  C23 G6X d   1       3.182  63.187  70.747  0.00  0.00    -0.049 C 
ATOM     46  H27 G6X d   1       2.678  64.091  71.121  0.00  0.00     0.035 H 
ATOM     47  H28 G6X d   1       3.611  62.630  71.593  0.00  0.00     0.035 H 
BRANCH  45  48
ATOM     48  C24 G6X d   1       2.154  62.304  70.047  0.00  0.00     0.014 C 
ATOM     49  H29 G6X d   1       2.672  61.504  69.499  0.00  0.00     0.066 H 
ATOM     50  H30 G6X d   1       1.569  62.913  69.341  0.00  0.00     0.066 H 
BRANCH  48  51
ATOM     51  N25 G6X d   1       1.246  61.705  71.048  0.00  0.00    -0.237 N 
ATOM     52  C26 G6X d   1       1.391  60.415  71.467  0.00  0.00     0.269 C 
ATOM     53  C27 G6X d   1       0.291  60.014  72.307  0.00  0.00     0.056 A 
ATOM     54  O34 G6X d   1       2.327  59.680  71.140  0.00  0.00    -0.266 OA
ATOM     55  C28 G6X d   1       0.044  58.767  72.924  0.00  0.00    -0.066 A 
ATOM     56  C32 G6X d   1      -0.696  61.016  72.414  0.00  0.00     0.095 A 
ATOM     57  C29 G6X d   1      -1.160  58.526  73.619  0.00  0.00    -0.082 A 
ATOM     58  H31 G6X d   1       0.791  57.984  72.862  0.00  0.00     0.085 H 
ATOM     59  C30 G6X d   1      -2.137  59.535  73.707  0.00  0.00    -0.081 A 
ATOM     60  H32 G6X d   1      -1.333  57.563  74.085  0.00  0.00     0.083 H 
ATOM     61  C31 G6X d   1      -1.900  60.782  73.101  0.00  0.00    -0.059 A 
ATOM     62  H33 G6X d   1      -3.065  59.353  74.237  0.00  0.00     0.083 H 
ATOM     63  H34 G6X d   1      -2.647  61.565  73.164  0.00  0.00     0.085 H 
ATOM     64  S33 G6X d   1      -0.028  62.460  71.635  0.00  0.00     0.268 S 
ATOM     65  O35 G6X d   1      -0.809  63.179  70.569  0.00  0.00    -0.200 OA
ATOM     66  O36 G6X d   1       0.437  63.467  72.651  0.00  0.00    -0.200 OA
ENDBRANCH  48  51
ENDBRANCH  45  48
ENDBRANCH  42  45
ENDBRANCH  39  42
ENDBRANCH  36  39
ENDBRANCH  33  36
ENDBRANCH  10  33
BRANCH   6  67
ATOM     67  O17 G6X d   1       5.651  63.165  63.093  0.00  0.00    -0.353 OA
BRANCH  67  68
ATOM     68  C16 G6X d   1       5.365  61.793  62.820  0.00  0.00     0.010 C 
ATOM     69  H15 G6X d   1       6.202  61.348  62.263  0.00  0.00     0.066 H 
ATOM     70  H16 G6X d   1       4.446  61.722  62.219  0.00  0.00     0.066 H 
ATOM     71  H17 G6X d   1       5.226  61.252  63.767  0.00  0.00     0.066 H 
ENDBRANCH  67  68
ENDBRANCH   6  67
BRANCH   3  72
ATOM     72  O18 G6X d   1       4.150  67.041  60.537  0.00  0.00    -0.392 OA
ATOM     73  H18 G6X d   1       4.180  66.305  61.137  0.00  0.00     0.210 HD
ENDBRANCH   3  72
TORSDOF 10
