REMARK  6 active torsions:
REMARK  status: ('A' for Active; 'I' for Inactive)
REMARK    1  A    between atoms: C6_6  and  NAC_9 
REMARK    2  A    between atoms: CAW_23  and  CAA_7 
REMARK    3  A    between atoms: CAW_23  and  CAB_8 
REMARK    4  A    between atoms: CAL_17  and  CAQ_19 
REMARK    5  A    between atoms: CAR_20  and  CAL_17 
REMARK    6  A    between atoms: CAW_23  and  NAX_24 
ROOT
ATOM      1  N1  BK1 d   1      21.888  12.489  63.514  0.00  0.00    -0.224 NA
ATOM      2  C2  BK1 d   1      23.059  13.111  63.427  0.00  0.00     0.091 A 
ATOM      3  N3  BK1 d   1      23.144  14.429  63.312  0.00  0.00    -0.222 NA
ATOM      4  C4  BK1 d   1      22.027  15.176  63.272  0.00  0.00     0.163 A 
ATOM      5  C5  BK1 d   1      20.786  14.574  63.354  0.00  0.00     0.084 A 
ATOM      6  C6  BK1 d   1      20.733  13.178  63.483  0.00  0.00     0.138 A 
ATOM      7  NAO BK1 d   1      20.611  16.754  63.176  0.00  0.00    -0.174 NA
ATOM      8  CAR BK1 d   1      19.885  15.639  63.297  0.00  0.00     0.077 A 
ATOM      9  NAX BK1 d   1      21.814  16.480  63.166  0.00  0.00    -0.247 N 
ATOM     10  H1  BK1 d   1      23.970  12.524  63.451  0.00  0.00     0.146 H 
ENDROOT
BRANCH   8  11
ATOM     11  CAL BK1 d   1      18.350  15.631  63.322  0.00  0.00     0.003 C 
ATOM     12  H17 BK1 d   1      18.007  16.632  63.021  0.00  0.00     0.049 H 
ATOM     13  H18 BK1 d   1      18.009  14.889  62.585  0.00  0.00     0.049 H 
BRANCH  11  14
ATOM     14  CAQ BK1 d   1      17.684  15.295  64.664  0.00  0.00    -0.041 A 
ATOM     15  CAG BK1 d   1      18.455  14.820  65.729  0.00  0.00    -0.076 A 
ATOM     16  CAF BK1 d   1      17.873  14.499  66.956  0.00  0.00    -0.082 A 
ATOM     17  H13 BK1 d   1      19.524  14.699  65.599  0.00  0.00     0.084 H 
ATOM     18  CAI BK1 d   1      16.506  14.638  67.141  0.00  0.00    -0.072 A 
ATOM     19  H12 BK1 d   1      18.493  14.139  67.769  0.00  0.00     0.083 H 
ATOM     20  CAS BK1 d   1      15.720  15.109  66.091  0.00  0.00    -0.025 A 
ATOM     21  H15 BK1 d   1      16.053  14.383  68.092  0.00  0.00     0.084 H 
ATOM     22  CAH BK1 d   1      14.347  15.255  66.278  0.00  0.00    -0.072 A 
ATOM     23  CAT BK1 d   1      16.306  15.434  64.864  0.00  0.00    -0.019 A 
ATOM     24  CAD BK1 d   1      13.547  15.726  65.241  0.00  0.00    -0.082 A 
ATOM     25  H14 BK1 d   1      13.901  15.001  67.233  0.00  0.00     0.084 H 
ATOM     26  CAE BK1 d   1      14.125  16.049  64.017  0.00  0.00    -0.082 A 
ATOM     27  H10 BK1 d   1      12.479  15.841  65.386  0.00  0.00     0.083 H 
ATOM     28  CAJ BK1 d   1      15.497  15.907  63.829  0.00  0.00    -0.072 A 
ATOM     29  H11 BK1 d   1      13.504  16.413  63.206  0.00  0.00     0.083 H 
ATOM     30  H16 BK1 d   1      15.940  16.165  62.874  0.00  0.00     0.084 H 
ENDBRANCH  11  14
ENDBRANCH   8  11
BRANCH   6  31
ATOM     31  NAC BK1 d   1      19.587  12.505  63.573  0.00  0.00    -0.383 N 
ATOM     32  H8  BK1 d   1      18.690  13.011  63.552  0.00  0.00     0.157 HD
ATOM     33  H9  BK1 d   1      19.598  11.479  63.664  0.00  0.00     0.157 HD
ENDBRANCH   6  31
BRANCH   9  34
ATOM     34  CAW BK1 d   1      22.903  17.467  63.045  0.00  0.00     0.029 C 
ATOM     35  H19 BK1 d   1      23.786  17.081  63.575  0.00  0.00     0.074 H 
BRANCH  34  36
ATOM     36  CAA BK1 d   1      22.517  18.808  63.677  0.00  0.00    -0.056 C 
ATOM     37  H2  BK1 d   1      23.350  19.518  63.569  0.00  0.00     0.030 H 
ATOM     38  H3  BK1 d   1      22.298  18.660  64.745  0.00  0.00     0.030 H 
ATOM     39  H4  BK1 d   1      21.626  19.209  63.172  0.00  0.00     0.030 H 
ENDBRANCH  34  36
BRANCH  34  40
ATOM     40  CAB BK1 d   1      23.256  17.637  61.563  0.00  0.00    -0.056 C 
ATOM     41  H5  BK1 d   1      23.528  16.660  61.137  0.00  0.00     0.030 H 
ATOM     42  H6  BK1 d   1      24.105  18.329  61.465  0.00  0.00     0.030 H 
ATOM     43  H7  BK1 d   1      22.388  18.043  61.023  0.00  0.00     0.030 H 
ENDBRANCH  34  40
ENDBRANCH   9  34
TORSDOF 6
