REMARK  6 active torsions:
REMARK  status: ('A' for Active; 'I' for Inactive)
REMARK    1  A    between atoms: C6_6  and  NAD_10 
REMARK    2  A    between atoms: CAX_24  and  CAA_7 
REMARK    3  A    between atoms: CAX_24  and  CAB_8 
REMARK    4  A    between atoms: CAX_24  and  CAC_9 
REMARK    5  A    between atoms: CAR_20  and  CAQ_19 
REMARK    6  A    between atoms: NAW_23  and  CAX_24 
ROOT
ATOM      1  N1  BK2 d   1      16.606  11.671  62.801  0.00  0.00    -0.224 NA
ATOM      2  C2  BK2 d   1      17.710  12.285  62.363  0.00  0.00     0.091 A 
ATOM      3  N3  BK2 d   1      17.765  13.603  62.187  0.00  0.00    -0.222 NA
ATOM      4  C4  BK2 d   1      16.696  14.372  62.445  0.00  0.00     0.164 A 
ATOM      5  C5  BK2 d   1      15.526  13.782  62.908  0.00  0.00     0.088 A 
ATOM      6  C6  BK2 d   1      15.502  12.394  63.080  0.00  0.00     0.139 A 
ATOM      7  NAO BK2 d   1      15.310  15.963  62.721  0.00  0.00    -0.168 NA
ATOM      8  CAR BK2 d   1      14.654  14.863  63.077  0.00  0.00     0.105 A 
ATOM      9  NAW BK2 d   1      16.464  15.689  62.374  0.00  0.00    -0.242 N 
ATOM     10  H1  BK2 d   1      18.589  11.690  62.144  0.00  0.00     0.146 H 
ENDROOT
BRANCH   8  11
ATOM     11  CAQ BK2 d   1      13.339  14.852  63.526  0.00  0.00    -0.004 A 
ATOM     12  CAH BK2 d   1      12.401  15.552  62.774  0.00  0.00    -0.070 A 
ATOM     13  CAK BK2 d   1      11.077  15.625  63.164  0.00  0.00    -0.071 A 
ATOM     14  H15 BK2 d   1      12.715  16.050  61.864  0.00  0.00     0.084 H 
ATOM     15  CAS BK2 d   1      10.670  15.014  64.324  0.00  0.00    -0.026 A 
ATOM     16  H18 BK2 d   1      10.361  16.164  62.555  0.00  0.00     0.084 H 
ATOM     17  CAI BK2 d   1       9.336  15.099  64.686  0.00  0.00    -0.072 A 
ATOM     18  CAT BK2 d   1      11.605  14.326  65.110  0.00  0.00    -0.025 A 
ATOM     19  CAE BK2 d   1       8.911  14.479  65.855  0.00  0.00    -0.082 A 
ATOM     20  H16 BK2 d   1       8.632  15.642  64.066  0.00  0.00     0.084 H 
ATOM     21  CAF BK2 d   1       9.837  13.794  66.636  0.00  0.00    -0.082 A 
ATOM     22  H13 BK2 d   1       7.870  14.528  66.155  0.00  0.00     0.083 H 
ATOM     23  CAJ BK2 d   1      11.179  13.706  66.268  0.00  0.00    -0.072 A 
ATOM     24  H14 BK2 d   1       9.507  13.318  67.552  0.00  0.00     0.083 H 
ATOM     25  H17 BK2 d   1      11.881  13.156  66.885  0.00  0.00     0.084 H 
ATOM     26  CAL BK2 d   1      12.941  14.249  64.721  0.00  0.00    -0.060 A 
ATOM     27  H19 BK2 d   1      13.663  13.727  65.339  0.00  0.00     0.086 H 
ENDBRANCH   8  11
BRANCH   6  28
ATOM     28  NAD BK2 d   1      14.422  11.762  63.505  0.00  0.00    -0.383 N 
ATOM     29  H11 BK2 d   1      13.567  12.293  63.724  0.00  0.00     0.157 HD
ATOM     30  H12 BK2 d   1      14.435  10.738  63.617  0.00  0.00     0.157 HD
ENDBRANCH   6  28
BRANCH   9  31
ATOM     31  CAX BK2 d   1      17.446  16.723  61.908  0.00  0.00     0.047 C 
BRANCH  31  32
ATOM     32  CAA BK2 d   1      16.760  18.093  61.903  0.00  0.00    -0.052 C 
ATOM     33  H2  BK2 d   1      17.473  18.859  61.562  0.00  0.00     0.030 H 
ATOM     34  H3  BK2 d   1      16.419  18.336  62.920  0.00  0.00     0.030 H 
ATOM     35  H4  BK2 d   1      15.896  18.068  61.223  0.00  0.00     0.030 H 
ENDBRANCH  31  32
BRANCH  31  36
ATOM     36  CAB BK2 d   1      18.661  16.727  62.832  0.00  0.00    -0.052 C 
ATOM     37  H5  BK2 d   1      19.135  15.735  62.818  0.00  0.00     0.030 H 
ATOM     38  H6  BK2 d   1      18.341  16.967  63.857  0.00  0.00     0.030 H 
ATOM     39  H7  BK2 d   1      19.382  17.483  62.487  0.00  0.00     0.030 H 
ENDBRANCH  31  36
BRANCH  31  40
ATOM     40  CAC BK2 d   1      17.869  16.385  60.474  0.00  0.00    -0.052 C 
ATOM     41  H8  BK2 d   1      16.984  16.386  59.821  0.00  0.00     0.030 H 
ATOM     42  H9  BK2 d   1      18.338  15.390  60.455  0.00  0.00     0.030 H 
ATOM     43  H10 BK2 d   1      18.589  17.136  60.117  0.00  0.00     0.030 H 
ENDBRANCH  31  40
ENDBRANCH   9  31
TORSDOF 6
