REMARK  6 active torsions:
REMARK  status: ('A' for Active; 'I' for Inactive)
REMARK    1  A    between atoms: C2_2  and  C7_7 
REMARK    2  A    between atoms: C11_11  and  C13_13 
REMARK       I    between atoms: C13_13  and  N15_15 
REMARK    3  A    between atoms: N15_15  and  C16_16 
REMARK    4  A    between atoms: C16_16  and  C17_17 
REMARK    5  A    between atoms: C16_16  and  C18_18 
REMARK       I    between atoms: C18_18  and  N20_20 
REMARK    6  A    between atoms: N20_20  and  C21_21 
ROOT
ATOM      1  C16 732 d   1      -6.375  30.943  56.988  0.00  0.00     0.093 C 
ATOM      2  H8  732 d   1      -6.416  30.729  58.066  0.00  0.00     0.088 H 
ENDROOT
BRANCH   1   3
ATOM      3  N15 732 d   1      -6.362  29.719  56.206  0.00  0.00    -0.342 N 
ATOM      4  C13 732 d   1      -6.024  28.468  56.589  0.00  0.00     0.276 C 
ATOM      5  O14 732 d   1      -5.619  28.152  57.711  0.00  0.00    -0.265 OA
ATOM      6  H7  732 d   1      -6.642  29.816  55.251  0.00  0.00     0.163 HD
BRANCH   4   7
ATOM      7  C11 732 d   1      -6.222  27.551  55.475  0.00  0.00     0.143 C 
ATOM      8  C10 732 d   1      -6.136  26.178  55.378  0.00  0.00    -0.042 C 
ATOM      9  C9  732 d   1      -6.701  25.848  54.130  0.00  0.00    -0.047 C 
ATOM     10  H6  732 d   1      -5.718  25.492  56.113  0.00  0.00     0.088 H 
ATOM     11  C7  732 d   1      -6.894  27.029  53.454  0.00  0.00     0.086 C 
ATOM     12  H5  732 d   1      -6.939  24.848  53.770  0.00  0.00     0.087 H 
ATOM     13  O12 732 d   1      -6.619  28.027  54.287  0.00  0.00    -0.304 OA
BRANCH  11  14
ATOM     14  C2  732 d   1      -7.371  27.260  52.085  0.00  0.00    -0.002 A 
ATOM     15  C1  732 d   1      -8.459  26.559  51.589  0.00  0.00    -0.069 A 
ATOM     16  C6  732 d   1      -8.908  26.791  50.309  0.00  0.00    -0.061 A 
ATOM     17  H1  732 d   1      -8.958  25.825  52.212  0.00  0.00     0.085 H 
ATOM     18  C5  732 d   1      -8.265  27.716  49.510  0.00  0.00     0.034 A 
ATOM     19  H4  732 d   1      -9.766  26.248  49.928  0.00  0.00     0.086 H 
ATOM     20  C4  732 d   1      -7.179  28.420  49.990  0.00  0.00    -0.061 A 
ATOM     21 CL8  732 d   1      -8.849  27.992  47.906  0.00  0.00    -0.084 Cl
ATOM     22  C3  732 d   1      -6.727  28.189  51.279  0.00  0.00    -0.069 A 
ATOM     23  H3  732 d   1      -6.682  29.150  49.361  0.00  0.00     0.086 H 
ATOM     24  H2  732 d   1      -5.870  28.734  51.658  0.00  0.00     0.085 H 
ENDBRANCH  11  14
ENDBRANCH   4   7
ENDBRANCH   1   3
BRANCH   1  25
ATOM     25  C17 732 d   1      -5.107  31.748  56.681  0.00  0.00    -0.026 C 
ATOM     26  C22 732 d   1      -5.423  33.242  56.569  0.00  0.00    -0.059 C 
ATOM     27  C23 732 d   1      -4.129  34.007  56.285  0.00  0.00    -0.065 C 
ATOM     28  H14 732 d   1      -5.862  33.598  57.513  0.00  0.00     0.033 H 
ATOM     29  H15 732 d   1      -6.136  33.407  55.748  0.00  0.00     0.033 H 
ATOM     30  C24 732 d   1      -3.164  33.801  57.454  0.00  0.00    -0.065 C 
ATOM     31  H16 732 d   1      -4.351  35.079  56.174  0.00  0.00     0.033 H 
ATOM     32  H17 732 d   1      -3.672  33.629  55.358  0.00  0.00     0.033 H 
ATOM     33  C25 732 d   1      -2.822  32.313  57.604  0.00  0.00    -0.065 C 
ATOM     34  H18 732 d   1      -3.634  34.161  58.381  0.00  0.00     0.033 H 
ATOM     35  H19 732 d   1      -2.241  34.369  57.267  0.00  0.00     0.033 H 
ATOM     36  C26 732 d   1      -4.103  31.501  57.820  0.00  0.00    -0.059 C 
ATOM     37  H20 732 d   1      -2.155  32.178  58.468  0.00  0.00     0.033 H 
ATOM     38  H21 732 d   1      -2.317  31.961  56.692  0.00  0.00     0.033 H 
ATOM     39  H22 732 d   1      -3.850  30.431  57.852  0.00  0.00     0.033 H 
ATOM     40  H23 732 d   1      -4.561  31.798  58.775  0.00  0.00     0.033 H 
ATOM     41  H9  732 d   1      -4.676  31.402  55.730  0.00  0.00     0.043 H 
ENDBRANCH   1  25
BRANCH   1  42
ATOM     42  C18 732 d   1      -7.653  31.622  56.535  0.00  0.00     0.240 C 
ATOM     43  O19 732 d   1      -7.864  31.892  55.350  0.00  0.00    -0.271 OA
ATOM     44  N20 732 d   1      -8.598  31.884  57.461  0.00  0.00    -0.364 N 
ATOM     45  H10 732 d   1      -8.442  31.647  58.420  0.00  0.00     0.161 HD
BRANCH  44  46
ATOM     46  C21 732 d   1      -9.859  32.521  57.052  0.00  0.00    -0.018 C 
ATOM     47  H11 732 d   1     -10.504  32.656  57.933  0.00  0.00     0.056 H 
ATOM     48  H12 732 d   1     -10.371  31.882  56.317  0.00  0.00     0.056 H 
ATOM     49  H13 732 d   1      -9.645  33.501  56.600  0.00  0.00     0.056 H 
ENDBRANCH  44  46
ENDBRANCH   1  42
TORSDOF 6
