REMARK  8 active torsions:
REMARK  status: ('A' for Active; 'I' for Inactive)
REMARK    1  A    between atoms: C1_1  and  N20_20 
REMARK    2  A    between atoms: C4_4  and  C7_7 
REMARK    3  A    between atoms: C10_10  and  C12_12 
REMARK       I    between atoms: C12_12  and  N14_14 
REMARK    4  A    between atoms: N14_14  and  C15_15 
REMARK    5  A    between atoms: C15_15  and  C16_16 
REMARK    6  A    between atoms: C15_15  and  C17_17 
REMARK       I    between atoms: C16_16  and  N18_18 
REMARK    7  A    between atoms: N18_18  and  C21_21 
REMARK       I    between atoms: N20_20  and  C27_27 
REMARK    8  A    between atoms: C27_27  and  C28_28 
ROOT
ATOM      1  C7  518 d   1      -7.015  26.713  53.223  0.00  0.00     0.086 A 
ATOM      2  C8  518 d   1      -6.504  25.563  53.770  0.00  0.00    -0.047 A 
ATOM      3  C9  518 d   1      -6.073  25.851  55.073  0.00  0.00    -0.042 A 
ATOM      4  C10 518 d   1      -6.344  27.179  55.256  0.00  0.00     0.143 A 
ATOM      5  O11 518 d   1      -6.911  27.678  54.138  0.00  0.00    -0.304 OA
ATOM      6  H5  518 d   1      -6.444  24.594  53.277  0.00  0.00     0.087 H 
ATOM      7  H6  518 d   1      -5.620  25.164  55.786  0.00  0.00     0.088 H 
ENDROOT
BRANCH   4   8
ATOM      8  C12 518 d   1      -6.116  28.004  56.425  0.00  0.00     0.276 C 
ATOM      9  O13 518 d   1      -5.691  27.566  57.479  0.00  0.00    -0.265 OA
ATOM     10  N14 518 d   1      -6.451  29.282  56.193  0.00  0.00    -0.342 N 
ATOM     11  H7  518 d   1      -6.781  29.483  55.270  0.00  0.00     0.163 HD
BRANCH  10  12
ATOM     12  C15 518 d   1      -6.399  30.409  57.100  0.00  0.00     0.093 C 
ATOM     13  H8  518 d   1      -6.205  30.144  58.150  0.00  0.00     0.088 H 
BRANCH  12  14
ATOM     14  C16 518 d   1      -7.781  30.986  56.899  0.00  0.00     0.240 C 
ATOM     15  N18 518 d   1      -8.514  31.393  57.951  0.00  0.00    -0.364 N 
ATOM     16  H10 518 d   1      -8.140  31.329  58.876  0.00  0.00     0.161 HD
ATOM     17  O19 518 d   1      -8.268  31.055  55.783  0.00  0.00    -0.271 OA
BRANCH  15  18
ATOM     18  C21 518 d   1      -9.860  31.929  57.741  0.00  0.00    -0.018 C 
ATOM     19  H12 518 d   1     -10.300  32.206  58.711  0.00  0.00     0.056 H 
ATOM     20  H13 518 d   1     -10.488  31.165  57.259  0.00  0.00     0.056 H 
ATOM     21  H14 518 d   1      -9.804  32.818  57.096  0.00  0.00     0.056 H 
ENDBRANCH  15  18
ENDBRANCH  12  14
BRANCH  12  22
ATOM     22  C17 518 d   1      -5.276  31.276  56.514  0.00  0.00    -0.026 C 
ATOM     23  C22 518 d   1      -5.739  32.650  56.021  0.00  0.00    -0.059 C 
ATOM     24  C23 518 d   1      -4.617  33.171  55.120  0.00  0.00    -0.065 C 
ATOM     25  H15 518 d   1      -5.894  33.330  56.872  0.00  0.00     0.033 H 
ATOM     26  H16 518 d   1      -6.675  32.557  55.451  0.00  0.00     0.033 H 
ATOM     27  C24 518 d   1      -3.290  33.258  55.891  0.00  0.00    -0.065 C 
ATOM     28  H17 518 d   1      -4.886  34.172  54.752  0.00  0.00     0.033 H 
ATOM     29  H18 518 d   1      -4.494  32.488  54.267  0.00  0.00     0.033 H 
ATOM     30  C25 518 d   1      -2.936  31.956  56.626  0.00  0.00    -0.065 C 
ATOM     31  H19 518 d   1      -3.367  34.068  56.631  0.00  0.00     0.033 H 
ATOM     32  H20 518 d   1      -2.485  33.488  55.178  0.00  0.00     0.033 H 
ATOM     33  C26 518 d   1      -4.116  31.491  57.489  0.00  0.00    -0.059 C 
ATOM     34  H21 518 d   1      -2.062  32.130  57.271  0.00  0.00     0.033 H 
ATOM     35  H22 518 d   1      -2.698  31.176  55.888  0.00  0.00     0.033 H 
ATOM     36  H23 518 d   1      -3.868  30.552  58.005  0.00  0.00     0.033 H 
ATOM     37  H24 518 d   1      -4.375  32.260  58.232  0.00  0.00     0.033 H 
ATOM     38  H9  518 d   1      -4.883  30.730  55.644  0.00  0.00     0.043 H 
ENDBRANCH  12  22
ENDBRANCH  10  12
ENDBRANCH   4   8
BRANCH   1  39
ATOM     39  C4  518 d   1      -7.565  26.831  51.857  0.00  0.00    -0.002 A 
ATOM     40  C3  518 d   1      -8.335  25.794  51.335  0.00  0.00    -0.068 A 
ATOM     41  C2  518 d   1      -8.822  25.861  50.053  0.00  0.00    -0.056 A 
ATOM     42  H2  518 d   1      -8.552  24.926  51.947  0.00  0.00     0.085 H 
ATOM     43  C1  518 d   1      -8.544  26.961  49.252  0.00  0.00     0.035 A 
ATOM     44  H1  518 d   1      -9.427  25.050  49.664  0.00  0.00     0.086 H 
ATOM     45  C6  518 d   1      -7.753  27.993  49.757  0.00  0.00    -0.056 A 
ATOM     46  C5  518 d   1      -7.257  27.922  51.047  0.00  0.00    -0.068 A 
ATOM     47  H4  518 d   1      -7.526  28.853  49.137  0.00  0.00     0.086 H 
ATOM     48  H3  518 d   1      -6.627  28.718  51.428  0.00  0.00     0.085 H 
BRANCH  43  49
ATOM     49  N20 518 d   1      -9.037  26.970  47.943  0.00  0.00    -0.321 N 
ATOM     50  C27 518 d   1     -10.085  27.660  47.487  0.00  0.00     0.280 C 
ATOM     51  O29 518 d   1     -10.736  28.351  48.243  0.00  0.00    -0.265 OA
ATOM     52  H11 518 d   1      -8.554  26.400  47.279  0.00  0.00     0.169 HD
BRANCH  50  53
ATOM     53  C28 518 d   1     -10.429  27.496  46.062  0.00  0.00     0.144 A 
ATOM     54  O30 518 d   1      -9.589  27.716  45.024  0.00  0.00    -0.304 OA
ATOM     55  C33 518 d   1     -10.202  27.464  43.845  0.00  0.00     0.086 A 
ATOM     56  C32 518 d   1     -11.522  27.052  44.126  0.00  0.00     0.001 A 
ATOM     57  C34 518 d   1      -9.800  27.535  42.518  0.00  0.00    -0.049 A 
ATOM     58  C31 518 d   1     -11.638  27.083  45.588  0.00  0.00    -0.032 A 
ATOM     59  C37 518 d   1     -12.394  26.718  43.075  0.00  0.00    -0.070 A 
ATOM     60  H25 518 d   1     -12.517  26.827  46.178  0.00  0.00     0.089 H 
ATOM     61  C36 518 d   1     -11.977  26.795  41.774  0.00  0.00    -0.082 A 
ATOM     62  H29 518 d   1     -13.405  26.397  43.297  0.00  0.00     0.084 H 
ATOM     63  C35 518 d   1     -10.679  27.204  41.501  0.00  0.00    -0.080 A 
ATOM     64  H28 518 d   1     -12.653  26.540  40.966  0.00  0.00     0.083 H 
ATOM     65  H27 518 d   1     -10.347  27.265  40.471  0.00  0.00     0.083 H 
ATOM     66  H26 518 d   1      -8.792  27.852  42.277  0.00  0.00     0.087 H 
ENDBRANCH  50  53
ENDBRANCH  43  49
ENDBRANCH   1  39
TORSDOF 8
