REMARK  6 active torsions:
REMARK  status: ('A' for Active; 'I' for Inactive)
REMARK    1  A    between atoms: N6_6  and  C2_2 
REMARK    2  A    between atoms: C4_4  and  C7_7 
REMARK    3  A    between atoms: C15_15  and  N6_6 
REMARK    4  A    between atoms: C22_22  and  C24_24 
REMARK    5  A    between atoms: C22_22  and  C27_27 
REMARK       I    between atoms: C24_24  and  N25_25 
REMARK    6  A    between atoms: N25_25  and  C28_28 
ROOT
ATOM      1  C10 EBI d   1     -15.804   8.864  10.090  0.00  0.00     0.005 A 
ATOM      2  C11 EBI d   1     -16.543   9.285  11.217  0.00  0.00    -0.064 A 
ATOM      3  C12 EBI d   1     -17.031   8.153  11.865  0.00  0.00    -0.050 A 
ATOM      4  C13 EBI d   1     -16.555   7.038  11.083  0.00  0.00     0.105 A 
ATOM      5  N14 EBI d   1     -15.811   7.501  10.008  0.00  0.00    -0.226 N 
ATOM      6  C15 EBI d   1     -16.679   5.640  11.172  0.00  0.00     0.177 A 
ATOM      7  N16 EBI d   1     -16.106   4.794  10.263  0.00  0.00    -0.041 NA
ATOM      8  N17 EBI d   1     -15.249   6.611   9.111  0.00  0.00     0.026 NA
ATOM      9  C18 EBI d   1     -15.393   5.277   9.233  0.00  0.00     0.744 A 
ATOM     10  C19 EBI d   1     -13.885   4.918   7.356  0.00  0.00     0.013 C 
ATOM     11  C20 EBI d   1     -13.293   3.671   6.732  0.00  0.00    -0.047 C 
ATOM     12  C21 EBI d   1     -14.310   2.576   7.049  0.00  0.00    -0.031 C 
ATOM     13  C22 EBI d   1     -15.138   3.005   8.261  0.00  0.00     0.127 C 
ATOM     14  N23 EBI d   1     -14.830   4.439   8.337  0.00  0.00    -0.195 N 
ATOM     15  H7  EBI d   1     -15.302   9.529   9.389  0.00  0.00     0.114 H 
ATOM     16  H8  EBI d   1     -16.704  10.317  11.526  0.00  0.00     0.085 H 
ATOM     17  H9  EBI d   1     -17.640   8.117  12.767  0.00  0.00     0.087 H 
ATOM     18  H10 EBI d   1     -14.395   5.526   6.594  0.00  0.00     0.065 H 
ATOM     19  H11 EBI d   1     -13.099   5.518   7.838  0.00  0.00     0.065 H 
ATOM     20  H12 EBI d   1     -12.316   3.437   7.179  0.00  0.00     0.035 H 
ATOM     21  H13 EBI d   1     -13.179   3.795   5.645  0.00  0.00     0.035 H 
ATOM     22  H14 EBI d   1     -13.783   1.637   7.275  0.00  0.00     0.037 H 
ATOM     23  H15 EBI d   1     -14.972   2.426   6.184  0.00  0.00     0.037 H 
ENDROOT
BRANCH  13  24
ATOM     24  C24 EBI d   1     -14.609   2.097   9.426  0.00  0.00     0.251 C 
ATOM     25  N25 EBI d   1     -13.547   2.621  10.115  0.00  0.00    -0.324 N 
ATOM     26  H16 EBI d   1     -13.299   3.569   9.917  0.00  0.00     0.169 HD
ATOM     27  O26 EBI d   1     -15.149   1.014   9.651  0.00  0.00    -0.270 OA
BRANCH  25  28
ATOM     28  C28 EBI d   1     -12.802   1.970  11.041  0.00  0.00     0.052 A 
ATOM     29  C29 EBI d   1     -11.387   2.041  11.084  0.00  0.00    -0.051 A 
ATOM     30  C30 EBI d   1     -10.626   1.375  12.034  0.00  0.00    -0.025 A 
ATOM     31  H20 EBI d   1     -10.876   2.643  10.341  0.00  0.00     0.087 H 
ATOM     32  C31 EBI d   1     -11.333   0.618  12.963  0.00  0.00     0.209 A 
ATOM     33  H21 EBI d   1      -9.544   1.441  12.051  0.00  0.00     0.090 H 
ATOM     34  N32 EBI d   1     -12.705   0.526  12.952  0.00  0.00    -0.231 NA
ATOM     35  F34 EBI d   1     -10.570  -0.018  13.873  0.00  0.00    -0.184 F 
ATOM     36  C33 EBI d   1     -13.430   1.187  12.013  0.00  0.00     0.031 A 
ATOM     37  H22 EBI d   1     -14.511   1.106  12.018  0.00  0.00     0.118 H 
ENDBRANCH  25  28
ENDBRANCH  13  24
BRANCH  13  38
ATOM     38  C27 EBI d   1     -16.656   2.812   8.003  0.00  0.00    -0.044 C 
ATOM     39  H17 EBI d   1     -17.222   3.129   8.891  0.00  0.00     0.031 H 
ATOM     40  H18 EBI d   1     -16.861   1.751   7.797  0.00  0.00     0.031 H 
ATOM     41  H19 EBI d   1     -16.961   3.419   7.138  0.00  0.00     0.031 H 
ENDBRANCH  13  38
BRANCH   6  42
ATOM     42  N6  EBI d   1     -17.411   5.150  12.228  0.00  0.00    -0.322 N 
ATOM     43  H3  EBI d   1     -17.877   5.870  12.798  0.00  0.00     0.169 HD
BRANCH  42  44
ATOM     44  C2  EBI d   1     -17.639   3.773  12.679  0.00  0.00     0.151 A 
ATOM     45  N1  EBI d   1     -18.378   3.452  13.770  0.00  0.00    -0.156 NA
ATOM     46  N5  EBI d   1     -18.422   2.113  13.956  0.00  0.00    -0.279 N 
ATOM     47  C4  EBI d   1     -17.718   1.464  13.004  0.00  0.00     0.043 A 
ATOM     48  H2  EBI d   1     -18.927   1.649  14.724  0.00  0.00     0.189 HD
ATOM     49  C3  EBI d   1     -17.204   2.505  12.173  0.00  0.00    -0.013 A 
ATOM     50  H1  EBI d   1     -16.579   2.358  11.293  0.00  0.00     0.092 H 
BRANCH  47  51
ATOM     51  C7  EBI d   1     -17.535  -0.071  12.885  0.00  0.00     0.020 A 
ATOM     52  C8  EBI d   1     -18.668  -0.166  11.912  0.00  0.00    -0.093 A 
ATOM     53  C9  EBI d   1     -17.261  -0.271  11.439  0.00  0.00    -0.093 A 
ATOM     54  H5  EBI d   1     -19.737  -0.162  11.703  0.00  0.00     0.078 H 
ATOM     55  H6  EBI d   1     -16.549  -0.400  10.625  0.00  0.00     0.078 H 
ATOM     56  H4  EBI d   1     -17.227  -0.700  13.733  0.00  0.00     0.062 H 
ENDBRANCH  47  51
ENDBRANCH  42  44
ENDBRANCH   6  42
TORSDOF 6
