REMARK  12 active torsions:
REMARK  status: ('A' for Active; 'I' for Inactive)
REMARK    1  A    between atoms: O1_7  and  C1_1 
REMARK    2  A    between atoms: C2_2  and  O2_8 
REMARK    3  A    between atoms: C3_3  and  O3_9 
REMARK    4  A    between atoms: C4_4  and  O4_10 
REMARK    5  A    between atoms: C5_5  and  C6_6 
REMARK    6  A    between atoms: C6_6  and  O6_12 
REMARK    7  A    between atoms: C4'_16  and  O1_7 
REMARK    8  A    between atoms: C1'_13  and  O1'_19 
REMARK    9  A    between atoms: C2'_14  and  O2'_20 
REMARK   10  A    between atoms: C3'_15  and  O3'_21 
REMARK   11  A    between atoms: C5'_17  and  C6'_18 
REMARK   12  A    between atoms: C6'_18  and  O6'_23 
ROOT
ATOM      1  O1  LBT d   1      -1.006  75.692  22.607  0.00  0.00    -0.348 OA
ENDROOT
BRANCH   1   2
ATOM      2  C1  LBT d   1      -1.097  75.166  21.310  0.00  0.00     0.159 C 
ATOM      3  C2  LBT d   1      -0.165  75.954  20.379  0.00  0.00     0.110 C 
ATOM      4  C3  LBT d   1      -0.163  75.254  19.007  0.00  0.00     0.092 C 
ATOM      5  H   LBT d   1       0.839  75.977  20.803  0.00  0.00     0.094 H 
ATOM      6  C4  LBT d   1       0.102  73.756  19.153  0.00  0.00     0.090 C 
ATOM      7  H   LBT d   1      -1.150  75.402  18.570  0.00  0.00     0.091 H 
ATOM      8  C5  LBT d   1      -0.920  73.140  20.096  0.00  0.00     0.089 C 
ATOM      9  H   LBT d   1       0.028  73.314  18.159  0.00  0.00     0.091 H 
ATOM     10  O5  LBT d   1      -0.744  73.771  21.347  0.00  0.00    -0.348 OA
ATOM     11  H   LBT d   1      -1.921  73.305  19.699  0.00  0.00     0.090 H 
ATOM     12  H   LBT d   1      -2.114  75.255  20.929  0.00  0.00     0.133 H 
BRANCH   3  13
ATOM     13  O2  LBT d   1      -0.599  77.300  20.236  0.00  0.00    -0.388 OA
ATOM     14  H   LBT d   1      -0.597  77.729  21.095  0.00  0.00     0.210 HD
ENDBRANCH   3  13
BRANCH   4  15
ATOM     15  O3  LBT d   1       0.809  75.811  18.159  0.00  0.00    -0.390 OA
ATOM     16  H   LBT d   1       0.761  75.388  17.298  0.00  0.00     0.210 HD
ENDBRANCH   4  15
BRANCH   6  17
ATOM     17  O4  LBT d   1       1.386  73.506  19.673  0.00  0.00    -0.390 OA
ATOM     18  H   LBT d   1       1.460  73.902  20.545  0.00  0.00     0.210 HD
ENDBRANCH   6  17
BRANCH   8  19
ATOM     19  C6  LBT d   1      -0.812  71.594  20.217  0.00  0.00     0.043 C 
ATOM     20  H   LBT d   1       0.219  71.313  20.430  0.00  0.00     0.078 H 
ATOM     21  H   LBT d   1      -1.120  71.129  19.280  0.00  0.00     0.078 H 
BRANCH  19  22
ATOM     22  O6  LBT d   1      -1.652  71.155  21.266  0.00  0.00    -0.398 OA
ATOM     23  H   LBT d   1      -1.375  71.565  22.089  0.00  0.00     0.209 HD
ENDBRANCH  19  22
ENDBRANCH   8  19
ENDBRANCH   1   2
BRANCH   1  24
ATOM     24  C4' LBT d   1      -1.913  75.232  23.575  0.00  0.00     0.096 C 
ATOM     25  C3' LBT d   1      -1.129  74.940  24.843  0.00  0.00     0.092 C 
ATOM     26  C2' LBT d   1      -2.089  74.510  25.946  0.00  0.00     0.110 C 
ATOM     27  H   LBT d   1      -0.601  75.852  25.122  0.00  0.00     0.091 H 
ATOM     28  C1' LBT d   1      -3.219  75.521  26.134  0.00  0.00     0.156 C 
ATOM     29  H   LBT d   1      -2.508  73.548  25.651  0.00  0.00     0.094 H 
ATOM     30  O5' LBT d   1      -3.882  75.782  24.908  0.00  0.00    -0.349 OA
ATOM     31  H   LBT d   1      -3.957  75.105  26.820  0.00  0.00     0.133 H 
ATOM     32  C5' LBT d   1      -3.063  76.243  23.841  0.00  0.00     0.089 C 
ATOM     33  H   LBT d   1      -2.572  77.187  24.078  0.00  0.00     0.090 H 
ATOM     34  H   LBT d   1      -2.399  74.327  23.211  0.00  0.00     0.091 H 
BRANCH  25  35
ATOM     35  O3' LBT d   1      -0.184  73.923  24.649  0.00  0.00    -0.390 OA
ATOM     36  H   LBT d   1      -0.632  73.118  24.380  0.00  0.00     0.210 HD
ENDBRANCH  25  35
BRANCH  26  37
ATOM     37  O2' LBT d   1      -1.401  74.411  27.166  0.00  0.00    -0.388 OA
ATOM     38  H   LBT d   1      -0.699  73.761  27.085  0.00  0.00     0.210 HD
ENDBRANCH  26  37
BRANCH  28  39
ATOM     39  O1' LBT d   1      -2.686  76.717  26.681  0.00  0.00    -0.369 OA
ATOM     40  H   LBT d   1      -2.242  76.519  27.509  0.00  0.00     0.212 HD
ENDBRANCH  28  39
BRANCH  32  41
ATOM     41  C6' LBT d   1      -3.984  76.458  22.626  0.00  0.00     0.043 C 
ATOM     42  H   LBT d   1      -3.370  76.756  21.776  0.00  0.00     0.078 H 
ATOM     43  H   LBT d   1      -4.716  77.225  22.879  0.00  0.00     0.078 H 
BRANCH  41  44
ATOM     44  O6' LBT d   1      -4.687  75.257  22.279  0.00  0.00    -0.398 OA
ATOM     45  H   LBT d   1      -4.054  74.568  22.063  0.00  0.00     0.209 HD
ENDBRANCH  41  44
ENDBRANCH  32  41
ENDBRANCH   1  24
TORSDOF 12
