REMARK  7 active torsions:
REMARK  status: ('A' for Active; 'I' for Inactive)
REMARK    1  A    between atoms: C16_10  and  C1_1 
REMARK    2  A    between atoms: C3_3  and  N47_22 
REMARK    3  A    between atoms: C14_8  and  C26_13 
REMARK    4  A    between atoms: C17_11  and  O43_21 
REMARK    5  A    between atoms: C26_13  and  C28_14 
REMARK    6  A    between atoms: C32_17  and  N51_24 
REMARK    7  A    between atoms: O43_21  and  C43_20 
REMARK       I    between atoms: N51_24  and  C53_26 
REMARK       I    between atoms: C53_26  and  N55_27 
ROOT
ATOM      1  C13 15X d   1      21.920  -2.921  31.050  0.00  0.00    -0.071 A 
ATOM      2  C14 15X d   1      21.975  -3.973  30.133  0.00  0.00    -0.014 A 
ATOM      3  C15 15X d   1      22.249  -5.342  30.639  0.00  0.00     0.136 A 
ATOM      4  C16 15X d   1      22.464  -5.541  32.089  0.00  0.00     0.047 A 
ATOM      5  C17 15X d   1      22.383  -4.365  32.988  0.00  0.00     0.082 A 
ATOM      6  C18 15X d   1      22.116  -3.107  32.425  0.00  0.00    -0.049 A 
ATOM      7  F59 15X d   1      22.317  -6.407  29.818  0.00  0.00    -0.204 F 
ATOM      8  H   15X d   1      21.717  -1.915  30.682  0.00  0.00     0.084 H 
ATOM      9  H   15X d   1      22.059  -2.240  33.084  0.00  0.00     0.087 H 
ENDROOT
BRANCH   2  10
ATOM     10  C26 15X d   1      21.765  -3.726  28.647  0.00  0.00    -0.014 C 
ATOM     11  H   15X d   1      22.680  -3.974  28.109  0.00  0.00     0.047 H 
ATOM     12  H   15X d   1      21.513  -2.677  28.490  0.00  0.00     0.047 H 
BRANCH  10  13
ATOM     13  C28 15X d   1      20.639  -4.590  28.135  0.00  0.00    -0.054 A 
ATOM     14  C30 15X d   1      20.892  -5.797  27.480  0.00  0.00    -0.074 A 
ATOM     15  C31 15X d   1      19.842  -6.597  27.024  0.00  0.00    -0.057 A 
ATOM     16  H   15X d   1      21.922  -6.119  27.323  0.00  0.00     0.084 H 
ATOM     17  C32 15X d   1      18.512  -6.196  27.204  0.00  0.00     0.036 A 
ATOM     18  H   15X d   1      20.059  -7.541  26.524  0.00  0.00     0.086 H 
ATOM     19  C33 15X d   1      18.284  -4.986  27.866  0.00  0.00    -0.057 A 
ATOM     20  C34 15X d   1      19.326  -4.185  28.327  0.00  0.00    -0.074 A 
ATOM     21  H   15X d   1      17.257  -4.659  28.027  0.00  0.00     0.086 H 
ATOM     22  H   15X d   1      19.111  -3.245  28.836  0.00  0.00     0.084 H 
BRANCH  17  23
ATOM     23  N51 15X d   1      17.381  -6.872  26.837  0.00  0.00    -0.309 N 
ATOM     24  C53 15X d   1      17.205  -8.125  26.359  0.00  0.00     0.318 C 
ATOM     25  N55 15X d   1      18.148  -9.001  25.982  0.00  0.00    -0.352 N 
ATOM     26  O57 15X d   1      16.046  -8.501  26.289  0.00  0.00    -0.247 OA
ATOM     27  H   15X d   1      17.880  -9.930  25.657  0.00  0.00     0.160 HD
ATOM     28  H   15X d   1      19.133  -8.738  26.021  0.00  0.00     0.160 HD
ATOM     29  H   15X d   1      16.519  -6.337  26.942  0.00  0.00     0.170 HD
ENDBRANCH  17  23
ENDBRANCH  10  13
ENDBRANCH   2  10
BRANCH   4  30
ATOM     30  C1  15X d   1      22.728  -6.926  32.551  0.00  0.00    -0.018 A 
ATOM     31  C2  15X d   1      23.798  -7.626  32.000  0.00  0.00    -0.040 A 
ATOM     32  C3  15X d   1      24.062  -8.942  32.379  0.00  0.00     0.103 A 
ATOM     33  H   15X d   1      24.437  -7.139  31.263  0.00  0.00     0.088 H 
ATOM     34  C4  15X d   1      23.229  -9.551  33.315  0.00  0.00    -0.051 A 
ATOM     35  C5  15X d   1      22.150  -8.852  33.861  0.00  0.00    -0.080 A 
ATOM     36  H   15X d   1      23.420 -10.579  33.623  0.00  0.00     0.087 H 
ATOM     37  C6  15X d   1      21.891  -7.542  33.475  0.00  0.00    -0.072 A 
ATOM     38  H   15X d   1      21.506  -9.337  34.595  0.00  0.00     0.083 H 
ATOM     39  H   15X d   1      21.040  -7.003  33.892  0.00  0.00     0.084 H 
BRANCH  32  40
ATOM     40  N47 15X d   1      25.159  -9.629  31.822  0.00  0.00    -0.116 N 
ATOM     41  O49 15X d   1      25.370 -10.805  32.095  0.00  0.00    -0.532 OA
ATOM     42  O51 15X d   1      26.027  -8.973  30.945  0.00  0.00    -0.532 OA
ENDBRANCH  32  40
ENDBRANCH   4  30
BRANCH   5  43
ATOM     43  O43 15X d   1      22.577  -4.543  34.337  0.00  0.00    -0.355 OA
BRANCH  43  44
ATOM     44  C43 15X d   1      22.838  -3.454  35.220  0.00  0.00     0.010 C 
ATOM     45  H   15X d   1      23.752  -2.948  34.910  0.00  0.00     0.066 H 
ATOM     46  H   15X d   1      22.004  -2.753  35.187  0.00  0.00     0.066 H 
ATOM     47  H   15X d   1      22.957  -3.832  36.236  0.00  0.00     0.066 H 
ENDBRANCH  43  44
ENDBRANCH   5  43
TORSDOF 7
