REMARK WARNING: 32 MAX_TORS EXCEEDED!!!
REMARK  38 active torsions:
REMARK  status: ('A' for Active; 'I' for Inactive)
REMARK    1  A    between atoms: C_1  and  CH3_3 
REMARK       I    between atoms: C_1  and  N_4 
REMARK    2  A    between atoms: N_4  and  CA_5 
REMARK    3  A    between atoms: CA_5  and  C1_6 
REMARK    4  A    between atoms: CA_5  and  CB_8 
REMARK       I    between atoms: C1_6  and  N1_11 
REMARK    5  A    between atoms: CB_8  and  OG1_9 
REMARK    6  A    between atoms: CB_8  and  CG2_10 
REMARK    7  A    between atoms: N1_11  and  CA1_12 
REMARK    8  A    between atoms: CA1_12  and  C2_13 
REMARK    9  A    between atoms: CA1_12  and  CB1_15 
REMARK       I    between atoms: C2_13  and  N2_19 
REMARK   10  A    between atoms: CB1_15  and  CG1_16 
REMARK   11  A    between atoms: CB1_15  and  CG21_17 
REMARK   12  A    between atoms: CG1_16  and  CD1_18 
REMARK   13  A    between atoms: N2_19  and  CA2_20 
REMARK   14  A    between atoms: CA2_20  and  C3_21 
REMARK   15  A    between atoms: CA2_20  and  CB2_22 
REMARK   16  A    between atoms: C3_21  and  N3_26 
REMARK   17  A    between atoms: CB2_22  and  CG_23 
REMARK   18  A    between atoms: CG_23  and  CD_24 
REMARK   19  A    between atoms: CD_24  and  CE_25 
REMARK   20  A    between atoms: N3_26  and  CA3_27 
REMARK   21  A    between atoms: CA3_27  and  C4_28 
REMARK   22  A    between atoms: CA3_27  and  CB3_30 
REMARK   23  A    between atoms: C4_28  and  O3_29 
REMARK   24  A    between atoms: C4_28  and  N4_34 
REMARK   25  A    between atoms: CB3_30  and  CG3_31 
REMARK   26  A    between atoms: CG3_31  and  CD2_32 
REMARK   27  A    between atoms: CD2_32  and  CE1_33 
REMARK   28  A    between atoms: N4_34  and  CA4_35 
REMARK   29  A    between atoms: CA4_35  and  C5_36 
REMARK   30  A    between atoms: CA4_35  and  CB4_38 
REMARK       I    between atoms: C5_36  and  N5_43 
REMARK   31  A    between atoms: CB4_38  and  CG4_39 
REMARK   32  A    between atoms: CG4_39  and  CD3_40 
REMARK       I    between atoms: CD3_40  and  NE2_42 
REMARK   33  A    between atoms: N5_43  and  CA5_44 
REMARK   34  A    between atoms: CA5_44  and  C6_45 
REMARK   35  A    between atoms: CA5_44  and  CB5_47 
REMARK       I    between atoms: C6_45  and  N6_54 
REMARK   36  A    between atoms: CB5_47  and  CG5_48 
REMARK   37  A    between atoms: CG5_48  and  CD4_49 
REMARK   38  A    between atoms: CD4_49  and  NE_50 
REMARK       I    between atoms: NE_50  and  CZ_51 
REMARK       I    between atoms: CZ_51  and  NH1_52 
ROOT
ATOM      1  CA3 2NC d   1       4.697  -1.948  15.403  0.00  0.00     0.151 C 
ATOM      2  H   2NC d   1       4.418  -1.853  16.453  0.00  0.00     0.091 H 
ENDROOT
BRANCH   1   3
ATOM      3  N3  2NC d   1       4.795  -0.644  14.786  0.00  0.00    -0.065 N 
ATOM      4  H   2NC d   1       5.093  -0.953  13.861  0.00  0.00     0.277 HD
ATOM      5  H   2NC d   1       3.961  -0.232  15.204  0.00  0.00     0.277 HD
BRANCH   3   6
ATOM      6  C3  2NC d   1       5.657   0.518  14.889  0.00  0.00     0.101 C 
ATOM      7  H   2NC d   1       5.095   1.359  15.295  0.00  0.00     0.078 H 
ATOM      8  H   2NC d   1       6.493   0.299  15.553  0.00  0.00     0.078 H 
BRANCH   6   9
ATOM      9  CA2 2NC d   1       6.175   0.867  13.513  0.00  0.00     0.035 C 
ATOM     10  H   2NC d   1       6.362  -0.043  12.943  0.00  0.00     0.075 H 
BRANCH   9  11
ATOM     11  N2  2NC d   1       5.175   1.683  12.858  0.00  0.00    -0.353 N 
ATOM     12  C2  2NC d   1       4.434   0.957  12.033  0.00  0.00     0.241 C 
ATOM     13  O2  2NC d   1       4.786  -0.043  11.396  0.00  0.00    -0.271 OA
ATOM     14  H   2NC d   1       5.056   2.684  13.011  0.00  0.00     0.163 HD
BRANCH  12  15
ATOM     15  CA1 2NC d   1       3.413   1.964  11.468  0.00  0.00     0.092 C 
ATOM     16  H   2NC d   1       3.217   2.703  12.245  0.00  0.00     0.088 H 
BRANCH  15  17
ATOM     17  N1  2NC d   1       3.914   2.733  10.333  0.00  0.00    -0.346 N 
ATOM     18  C1  2NC d   1       4.002   4.051  10.395  0.00  0.00     0.243 C 
ATOM     19  O1  2NC d   1       3.738   4.690  11.423  0.00  0.00    -0.271 OA
ATOM     20  H   2NC d   1       4.199   2.248   9.482  0.00  0.00     0.163 HD
BRANCH  18  21
ATOM     21  CA  2NC d   1       4.395   4.781   9.113  0.00  0.00     0.113 C 
ATOM     22  H   2NC d   1       5.146   5.527   9.373  0.00  0.00     0.091 H 
BRANCH  21  23
ATOM     23  N   2NC d   1       5.049   3.952   8.095  0.00  0.00    -0.346 N 
ATOM     24  C   2NC d   1       6.361   4.006   7.870  0.00  0.00     0.214 C 
ATOM     25  O   2NC d   1       7.149   4.433   8.704  0.00  0.00    -0.274 OA
ATOM     26  H   2NC d   1       4.480   3.312   7.540  0.00  0.00     0.163 HD
BRANCH  24  27
ATOM     27  CH3 2NC d   1       6.831   3.307   6.627  0.00  0.00    -0.003 C 
ATOM     28  H   2NC d   1       7.462   3.982   6.049  0.00  0.00     0.040 H 
ATOM     29  H   2NC d   1       7.402   2.421   6.904  0.00  0.00     0.040 H 
ATOM     30  H   2NC d   1       5.968   3.012   6.029  0.00  0.00     0.040 H 
ENDBRANCH  24  27
ENDBRANCH  21  23
BRANCH  21  31
ATOM     31  CB  2NC d   1       3.110   5.385   8.545  0.00  0.00     0.060 C 
ATOM     32  H   2NC d   1       2.522   5.826   9.350  0.00  0.00     0.086 H 
BRANCH  31  33
ATOM     33  OG1 2NC d   1       2.338   4.357   7.913  0.00  0.00    -0.393 OA
ATOM     34  H   2NC d   1       1.532   4.737   7.557  0.00  0.00     0.210 HD
ENDBRANCH  31  33
BRANCH  31  35
ATOM     35  CG2 2NC d   1       3.463   6.456   7.545  0.00  0.00    -0.050 C 
ATOM     36  H   2NC d   1       4.045   6.017   6.735  0.00  0.00     0.031 H 
ATOM     37  H   2NC d   1       2.548   6.891   7.142  0.00  0.00     0.031 H 
ATOM     38  H   2NC d   1       4.050   7.232   8.037  0.00  0.00     0.031 H 
ENDBRANCH  31  35
ENDBRANCH  21  31
ENDBRANCH  18  21
ENDBRANCH  15  17
BRANCH  15  39
ATOM     39  CB1 2NC d   1       2.116   1.218  11.112  0.00  0.00    -0.030 C 
ATOM     40  H   2NC d   1       2.367   0.424  10.409  0.00  0.00     0.043 H 
BRANCH  39  41
ATOM     41  CG1 2NC d   1       1.104   2.154  10.441  0.00  0.00    -0.063 C 
ATOM     42  H   2NC d   1       0.171   1.596  10.359  0.00  0.00     0.033 H 
ATOM     43  H   2NC d   1       1.548   2.466   9.496  0.00  0.00     0.033 H 
BRANCH  41  44
ATOM     44  CD1 2NC d   1       0.776   3.448  11.222  0.00  0.00    -0.076 C 
ATOM     45  H   2NC d   1       0.358   3.188  12.194  0.00  0.00     0.027 H 
ATOM     46  H   2NC d   1       1.688   4.028  11.361  0.00  0.00     0.027 H 
ATOM     47  H   2NC d   1       0.051   4.037  10.659  0.00  0.00     0.027 H 
ENDBRANCH  41  44
ENDBRANCH  39  41
BRANCH  39  48
ATOM     48  CG2 2NC d   1       1.506   0.618  12.357  0.00  0.00    -0.071 C 
ATOM     49  H   2NC d   1       2.212  -0.082  12.805  0.00  0.00     0.028 H 
ATOM     50  H   2NC d   1       1.280   1.412  13.068  0.00  0.00     0.028 H 
ATOM     51  H   2NC d   1       0.588   0.092  12.093  0.00  0.00     0.028 H 
ENDBRANCH  39  48
ENDBRANCH  15  39
ENDBRANCH  12  15
ENDBRANCH   9  11
BRANCH   9  52
ATOM     52  CB2 2NC d   1       7.492   1.636  13.613  0.00  0.00    -0.045 C 
ATOM     53  H   2NC d   1       8.225   0.984  14.089  0.00  0.00     0.036 H 
ATOM     54  H   2NC d   1       7.305   2.546  14.183  0.00  0.00     0.036 H 
BRANCH  52  55
ATOM     55  CG  2NC d   1       8.047   2.045  12.238  0.00  0.00    -0.064 C 
ATOM     56  H   2NC d   1       9.134   2.081  12.314  0.00  0.00     0.033 H 
ATOM     57  H   2NC d   1       7.609   3.008  11.975  0.00  0.00     0.033 H 
BRANCH  55  58
ATOM     58  CD  2NC d   1       7.688   1.050  11.134  0.00  0.00    -0.068 C 
ATOM     59  H   2NC d   1       7.468   1.621  10.232  0.00  0.00     0.032 H 
ATOM     60  H   2NC d   1       6.841   0.459  11.483  0.00  0.00     0.032 H 
BRANCH  58  61
ATOM     61  CE  2NC d   1       8.815   0.092  10.809  0.00  0.00    -0.077 C 
ATOM     62  H   2NC d   1       9.685   0.657  10.475  0.00  0.00     0.027 H 
ATOM     63  H   2NC d   1       9.072  -0.481  11.700  0.00  0.00     0.027 H 
ATOM     64  H   2NC d   1       8.496  -0.587  10.018  0.00  0.00     0.027 H 
ENDBRANCH  58  61
ENDBRANCH  55  58
ENDBRANCH  52  55
ENDBRANCH   9  52
ENDBRANCH   6   9
ENDBRANCH   3   6
ENDBRANCH   1   3
BRANCH   1  65
ATOM     65  C4  2NC d   1       6.040  -2.660  15.353  0.00  0.00     0.218 C 
ATOM     66  H   2NC d   1       6.398  -1.736  15.807  0.00  0.00     0.132 H 
BRANCH  65  67
ATOM     67  O3  2NC d   1       6.535  -3.018  14.284  0.00  0.00    -0.368 OA
ATOM     68  H   2NC d   1       6.409  -2.329  13.628  0.00  0.00     0.212 HD
ENDBRANCH  65  67
BRANCH  65  69
ATOM     69  N4  2NC d   1       6.349  -3.761  16.046  0.00  0.00    -0.034 N 
ATOM     70  H   2NC d   1       5.547  -4.340  15.796  0.00  0.00     0.281 HD
ATOM     71  H   2NC d   1       6.647  -3.325  16.919  0.00  0.00     0.281 HD
BRANCH  69  72
ATOM     72  CA4 2NC d   1       7.411  -4.761  15.910  0.00  0.00     0.181 C 
ATOM     73  H   2NC d   1       7.291  -5.266  14.952  0.00  0.00     0.099 H 
BRANCH  72  74
ATOM     74  C5  2NC d   1       7.304  -5.812  17.013  0.00  0.00     0.249 C 
ATOM     75  O4  2NC d   1       7.205  -5.480  18.202  0.00  0.00    -0.271 OA
ATOM     76  N5  2NC d   1       7.310  -7.077  16.612  0.00  0.00    -0.346 N 
ATOM     77  H   2NC d   1       7.325  -7.274  15.611  0.00  0.00     0.163 HD
BRANCH  76  78
ATOM     78  CA5 2NC d   1       7.296  -8.190  17.541  0.00  0.00     0.089 C 
ATOM     79  H   2NC d   1       7.098  -7.826  18.549  0.00  0.00     0.087 H 
BRANCH  78  80
ATOM     80  C6  2NC d   1       8.653  -8.872  17.426  0.00  0.00     0.238 C 
ATOM     81  O5  2NC d   1       9.049  -9.284  16.327  0.00  0.00    -0.271 OA
ATOM     82  N6  2NC d   1       9.472  -8.868  18.479  0.00  0.00    -0.368 N 
ATOM     83  H   2NC d   1      10.430  -9.205  18.381  0.00  0.00     0.159 HD
ATOM     84  H   2NC d   1       9.141  -8.528  19.382  0.00  0.00     0.159 HD
ENDBRANCH  78  80
BRANCH  78  85
ATOM     85  CB5 2NC d   1       6.197  -9.207  17.189  0.00  0.00    -0.036 C 
ATOM     86  H   2NC d   1       6.266  -9.990  17.944  0.00  0.00     0.036 H 
ATOM     87  H   2NC d   1       6.381  -9.495  16.154  0.00  0.00     0.036 H 
BRANCH  85  88
ATOM     88  CG5 2NC d   1       4.739  -8.712  17.232  0.00  0.00    -0.048 C 
ATOM     89  H   2NC d   1       4.749  -7.631  17.369  0.00  0.00     0.035 H 
ATOM     90  H   2NC d   1       4.229  -9.220  18.051  0.00  0.00     0.035 H 
BRANCH  88  91
ATOM     91  CD4 2NC d   1       3.979  -9.030  15.912  0.00  0.00     0.009 C 
ATOM     92  H   2NC d   1       4.740  -9.404  15.227  0.00  0.00     0.064 H 
ATOM     93  H   2NC d   1       3.456  -8.109  15.654  0.00  0.00     0.064 H 
BRANCH  91  94
ATOM     94  NE  2NC d   1       2.937 -10.071  15.936  0.00  0.00    -0.227 N 
ATOM     95  CZ  2NC d   1       3.068 -11.332  16.360  0.00  0.00     0.665 C 
ATOM     96  NH1 2NC d   1       4.201 -11.788  16.876  0.00  0.00    -0.235 N 
ATOM     97  NH2 2NC d   1       2.028 -12.153  16.283  0.00  0.00    -0.235 N 
ATOM     98  H   2NC d   1       5.008 -11.170  16.959  0.00  0.00     0.174 HD
ATOM     99  H   2NC d   1       4.265 -12.757  17.189  0.00  0.00     0.174 HD
ATOM    100  H   2NC d   1       1.142 -11.819  15.904  0.00  0.00     0.174 HD
ATOM    101  H   2NC d   1       2.115 -13.118  16.603  0.00  0.00     0.174 HD
ATOM    102  H   2NC d   1       2.016  -9.800  15.592  0.00  0.00     0.177 HD
ENDBRANCH  91  94
ENDBRANCH  88  91
ENDBRANCH  85  88
ENDBRANCH  78  85
ENDBRANCH  76  78
ENDBRANCH  72  74
BRANCH  72 103
ATOM    103  CB4 2NC d   1       8.792  -4.085  15.922  0.00  0.00    -0.022 C 
ATOM    104  H   2NC d   1       8.909  -3.641  16.911  0.00  0.00     0.037 H 
ATOM    105  H   2NC d   1       8.800  -3.387  15.085  0.00  0.00     0.037 H 
BRANCH 103 106
ATOM    106  CG4 2NC d   1      10.001  -5.023  15.720  0.00  0.00     0.011 C 
ATOM    107  H   2NC d   1      10.824  -4.429  15.323  0.00  0.00     0.047 H 
ATOM    108  H   2NC d   1       9.697  -5.822  15.044  0.00  0.00     0.047 H 
BRANCH 106 109
ATOM    109  CD3 2NC d   1      10.465  -5.657  17.010  0.00  0.00     0.215 C 
ATOM    110  OE1 2NC d   1      10.316  -5.064  18.071  0.00  0.00    -0.274 OA
ATOM    111  NE2 2NC d   1      11.027  -6.866  16.932  0.00  0.00    -0.370 N 
ATOM    112  H   2NC d   1      11.352  -7.333  17.779  0.00  0.00     0.159 HD
ATOM    113  H   2NC d   1      11.131  -7.323  16.026  0.00  0.00     0.159 HD
ENDBRANCH 106 109
ENDBRANCH 103 106
ENDBRANCH  72 103
ENDBRANCH  69  72
ENDBRANCH  65  69
ENDBRANCH   1  65
BRANCH   1 114
ATOM    114  CB3 2NC d   1       3.639  -2.736  14.658  0.00  0.00    -0.034 C 
ATOM    115  H   2NC d   1       4.063  -3.177  13.756  0.00  0.00     0.036 H 
ATOM    116  H   2NC d   1       2.821  -2.080  14.359  0.00  0.00     0.036 H 
BRANCH 114 117
ATOM    117  CG3 2NC d   1       3.126  -3.826  15.585  0.00  0.00    -0.063 C 
ATOM    118  H   2NC d   1       2.040  -3.759  15.655  0.00  0.00     0.033 H 
ATOM    119  H   2NC d   1       3.567  -3.697  16.573  0.00  0.00     0.033 H 
BRANCH 117 120
ATOM    120  CD2 2NC d   1       3.513  -5.196  15.034  0.00  0.00    -0.068 C 
ATOM    121  H   2NC d   1       3.485  -5.927  15.842  0.00  0.00     0.032 H 
ATOM    122  H   2NC d   1       4.517  -5.141  14.613  0.00  0.00     0.032 H 
BRANCH 120 123
ATOM    123  CE1 2NC d   1       2.541  -5.615  13.950  0.00  0.00    -0.077 C 
ATOM    124  H   2NC d   1       1.535  -5.667  14.366  0.00  0.00     0.027 H 
ATOM    125  H   2NC d   1       2.563  -4.884  13.142  0.00  0.00     0.027 H 
ATOM    126  H   2NC d   1       2.828  -6.594  13.565  0.00  0.00     0.027 H 
ENDBRANCH 120 123
ENDBRANCH 117 120
ENDBRANCH 114 117
ENDBRANCH   1 114
TORSDOF 38
