REMARK  19 active torsions:
REMARK  status: ('A' for Active; 'I' for Inactive)
REMARK    1  A    between atoms: C_1  and  CH3_3 
REMARK       I    between atoms: C_1  and  N_4 
REMARK    2  A    between atoms: N_4  and  CA_5 
REMARK    3  A    between atoms: CA_5  and  C_6 
REMARK    4  A    between atoms: CA_5  and  CB_8 
REMARK       I    between atoms: C_6  and  N_16 
REMARK    5  A    between atoms: CB_8  and  CG_9 
REMARK    6  A    between atoms: CZ_14  and  OH_15 
REMARK    7  A    between atoms: N_16  and  CA_17 
REMARK    8  A    between atoms: CA_17  and  C_18 
REMARK    9  A    between atoms: CA_17  and  CB_20 
REMARK       I    between atoms: C_18  and  N_23 
REMARK   10  A    between atoms: CB_20  and  CG1_21 
REMARK   11  A    between atoms: CB_20  and  CG2_22 
REMARK   12  A    between atoms: N_23  and  CA_24 
REMARK   13  A    between atoms: CA_24  and  C_25 
REMARK   14  A    between atoms: CA_24  and  CB_27 
REMARK       I    between atoms: C_25  and  N_28 
REMARK   15  A    between atoms: N_28  and  CA_29 
REMARK   16  A    between atoms: CA_29  and  C_30 
REMARK   17  A    between atoms: CA_29  and  CB_32 
REMARK   18  A    between atoms: C_30  and  O_31 
REMARK   19  A    between atoms: CB_32  and  CG_33 
ROOT
ATOM      1  CA  VAL d   1      55.166 -25.596  -2.697  0.00  0.00     0.092 C 
ATOM      2  H14 VAL d   1      56.092 -25.006  -2.757  0.00  0.00     0.088 H 
ENDROOT
BRANCH   1   3
ATOM      3  N   VAL d   1      55.335 -26.703  -1.766  0.00  0.00    -0.346 N 
ATOM      4  C   TYR d   1      56.520 -27.097  -1.313  0.00  0.00     0.241 C 
ATOM      5  O   TYR d   1      57.578 -26.560  -1.633  0.00  0.00    -0.271 OA
ATOM      6  H13 VAL d   1      54.520 -27.190  -1.453  0.00  0.00     0.163 HD
BRANCH   4   7
ATOM      7  CA  TYR d   1      56.485 -28.281  -0.346  0.00  0.00     0.093 C 
ATOM      8  H5  TYR d   1      55.426 -28.448  -0.102  0.00  0.00     0.088 H 
BRANCH   7   9
ATOM      9  N   TYR d   1      57.046 -29.554  -0.834  0.00  0.00    -0.348 N 
ATOM     10  C   ACE d   1      58.313 -29.650  -1.387  0.00  0.00     0.214 C 
ATOM     11  O   ACE d   1      59.282 -29.156  -0.853  0.00  0.00    -0.274 OA
ATOM     12  H4  TYR d   1      56.490 -30.382  -0.763  0.00  0.00     0.163 HD
BRANCH  10  13
ATOM     13  CH3 ACE d   1      58.514 -30.786  -2.356  0.00  0.00    -0.003 C 
ATOM     14  H1  ACE d   1      57.538 -31.113  -2.745  0.00  0.00     0.040 H 
ATOM     15  H2  ACE d   1      59.003 -31.626  -1.840  0.00  0.00     0.040 H 
ATOM     16  H3  ACE d   1      59.147 -30.449  -3.190  0.00  0.00     0.040 H 
ENDBRANCH  10  13
ENDBRANCH   7   9
BRANCH   7  17
ATOM     17  CB  TYR d   1      57.255 -28.017   0.951  0.00  0.00    -0.014 C 
ATOM     18  H6  TYR d   1      57.022 -26.999   1.297  0.00  0.00     0.043 H 
ATOM     19  H7  TYR d   1      58.332 -28.095   0.742  0.00  0.00     0.043 H 
BRANCH  17  20
ATOM     20  CG  TYR d   1      56.904 -28.994   2.051  0.00  0.00    -0.056 A 
ATOM     21  CD1 TYR d   1      57.873 -29.450   2.943  0.00  0.00    -0.074 A 
ATOM     22  CE1 TYR d   1      57.548 -30.339   3.972  0.00  0.00    -0.051 A 
ATOM     23  H8  TYR d   1      58.897 -29.109   2.837  0.00  0.00     0.084 H 
ATOM     24  CZ  TYR d   1      56.235 -30.777   4.113  0.00  0.00     0.065 A 
ATOM     25  H10 TYR d   1      58.315 -30.685   4.656  0.00  0.00     0.087 H 
ATOM     26  CE2 TYR d   1      55.254 -30.337   3.234  0.00  0.00    -0.051 A 
ATOM     27  CD2 TYR d   1      55.592 -29.452   2.211  0.00  0.00    -0.074 A 
ATOM     28  H11 TYR d   1      54.231 -30.680   3.343  0.00  0.00     0.087 H 
ATOM     29  H9  TYR d   1      54.823 -29.112   1.526  0.00  0.00     0.084 H 
BRANCH  24  30
ATOM     30  OH  TYR d   1      55.899 -31.634   5.141  0.00  0.00    -0.361 OA
ATOM     31  H12 TYR d   1      56.676 -31.839   5.648  0.00  0.00     0.217 HD
ENDBRANCH  24  30
ENDBRANCH  17  20
ENDBRANCH   7  17
ENDBRANCH   4   7
ENDBRANCH   1   3
BRANCH   1  32
ATOM     32  C   VAL d   1      54.021 -24.738  -2.158  0.00  0.00     0.241 C 
ATOM     33  O   VAL d   1      53.416 -25.085  -1.149  0.00  0.00    -0.271 OA
ATOM     34  N   ALA d   1      53.728 -23.622  -2.822  0.00  0.00    -0.346 N 
ATOM     35  H22 ALA d   1      54.262 -23.381  -3.632  0.00  0.00     0.163 HD
BRANCH  34  36
ATOM     36  CA  ALA d   1      52.642 -22.740  -2.393  0.00  0.00     0.086 C 
ATOM     37  H23 ALA d   1      52.175 -23.168  -1.494  0.00  0.00     0.086 H 
BRANCH  36  38
ATOM     38  C   ALA d   1      51.580 -22.635  -3.494  0.00  0.00     0.240 C 
ATOM     39  O   ALA d   1      51.894 -22.757  -4.680  0.00  0.00    -0.271 OA
ATOM     40  N   ASP d   1      50.324 -22.423  -3.098  0.00  0.00    -0.352 N 
ATOM     41  H27 ASP d   1      50.132 -22.339  -2.120  0.00  0.00     0.163 HD
BRANCH  40  42
ATOM     42  CA  ASP d   1      49.214 -22.309  -4.054  0.00  0.00     0.041 C 
ATOM     43  H28 ASP d   1      49.614 -22.500  -5.061  0.00  0.00     0.076 H 
BRANCH  42  44
ATOM     44  C   ASP d   1      48.560 -20.931  -4.042  0.00  0.00     0.036 C 
ATOM     45  H29 ASP d   1      49.049 -20.306  -3.281  0.00  0.00     0.077 H 
ATOM     46  H30 ASP d   1      47.493 -21.040  -3.797  0.00  0.00     0.077 H 
BRANCH  44  47
ATOM     47  O   ASP d   1      48.687 -20.296  -5.329  0.00  0.00    -0.399 OA
ATOM     48  H31 ASP d   1      48.263 -20.832  -5.989  0.00  0.00     0.209 HD
ENDBRANCH  44  47
ENDBRANCH  42  44
BRANCH  42  49
ATOM     49  CB  ASP d   1      48.118 -23.338  -3.748  0.00  0.00     0.036 C 
ATOM     50  H32 ASP d   1      47.157 -22.948  -4.115  0.00  0.00     0.052 H 
ATOM     51  H33 ASP d   1      48.064 -23.481  -2.659  0.00  0.00     0.052 H 
BRANCH  49  52
ATOM     52  CG  ASP d   1      48.374 -24.678  -4.398  0.00  0.00     0.174 C 
ATOM     53  OD1 ASP d   1      47.902 -25.695  -3.847  0.00  0.00    -0.648 OA
ATOM     54  OD2 ASP d   1      49.044 -24.714  -5.454  0.00  0.00    -0.648 OA
ENDBRANCH  49  52
ENDBRANCH  42  49
ENDBRANCH  40  42
ENDBRANCH  36  38
BRANCH  36  55
ATOM     55  CB  ALA d   1      53.194 -21.356  -2.046  0.00  0.00    -0.049 C 
ATOM     56  H24 ALA d   1      52.370 -20.702  -1.725  0.00  0.00     0.030 H 
ATOM     57  H25 ALA d   1      53.682 -20.923  -2.932  0.00  0.00     0.030 H 
ATOM     58  H26 ALA d   1      53.928 -21.448  -1.231  0.00  0.00     0.030 H 
ENDBRANCH  36  55
ENDBRANCH  34  36
ENDBRANCH   1  32
BRANCH   1  59
ATOM     59  CB  VAL d   1      54.792 -26.124  -4.104  0.00  0.00    -0.033 C 
ATOM     60  H15 VAL d   1      53.767 -26.522  -4.068  0.00  0.00     0.042 H 
BRANCH  59  61
ATOM     61  CG1 VAL d   1      54.832 -24.998  -5.122  0.00  0.00    -0.071 C 
ATOM     62  H16 VAL d   1      54.564 -25.391  -6.114  0.00  0.00     0.028 H 
ATOM     63  H17 VAL d   1      55.846 -24.572  -5.158  0.00  0.00     0.028 H 
ATOM     64  H18 VAL d   1      54.115 -24.216  -4.832  0.00  0.00     0.028 H 
ENDBRANCH  59  61
BRANCH  59  65
ATOM     65  CG2 VAL d   1      55.731 -27.249  -4.499  0.00  0.00    -0.071 C 
ATOM     66  H19 VAL d   1      55.682 -28.049  -3.746  0.00  0.00     0.028 H 
ATOM     67  H20 VAL d   1      56.760 -26.864  -4.559  0.00  0.00     0.028 H 
ATOM     68  H21 VAL d   1      55.432 -27.649  -5.479  0.00  0.00     0.028 H 
ENDBRANCH  59  65
ENDBRANCH   1  59
TORSDOF 19
