REMARK  5 active torsions:
REMARK  status: ('A' for Active; 'I' for Inactive)
REMARK    1  A    between atoms: C3_28  and  C7_2 
REMARK    2  A    between atoms: C19_22  and  C20_7 
REMARK    3  A    between atoms: C24_10  and  N25_18 
REMARK    4  A    between atoms: N25_18  and  C26_11 
REMARK    5  A    between atoms: N13_24  and  C14_23 
ROOT
ATOM      1  C15 L1E d   1      23.271  43.703  37.304  0.00  0.00     0.006 A 
ATOM      2  C17 L1E d   1      21.456  45.289  37.546  0.00  0.00    -0.068 A 
ATOM      3  C21 L1E d   1      24.135  43.003  36.468  0.00  0.00    -0.053 A 
ATOM      4  C22 L1E d   1      24.050  43.176  35.094  0.00  0.00     0.005 A 
ATOM      5  C24 L1E d   1      22.303  44.706  35.346  0.00  0.00     0.139 A 
ATOM      6  N23 L1E d   1      23.157  44.007  34.581  0.00  0.00    -0.242 NA
ATOM      7  C16 L1E d   1      22.338  44.574  36.736  0.00  0.00     0.022 A 
ATOM      8  C18 L1E d   1      21.515  45.126  38.923  0.00  0.00    -0.074 A 
ATOM      9  C19 L1E d   1      22.446  44.256  39.489  0.00  0.00    -0.034 A 
ATOM     10  C14 L1E d   1      23.342  43.535  38.683  0.00  0.00     0.051 A 
ATOM     11  H4  L1E d   1      20.732  45.965  37.105  0.00  0.00     0.085 H 
ATOM     12  H8  L1E d   1      24.870  42.326  36.888  0.00  0.00     0.087 H 
ATOM     13  H9  L1E d   1      24.718  42.629  34.438  0.00  0.00     0.114 H 
ATOM     14  H15 L1E d   1      20.834  45.678  39.561  0.00  0.00     0.084 H 
ENDROOT
BRANCH  10  15
ATOM     15  N13 L1E d   1      24.240  42.677  39.204  0.00  0.00    -0.339 N 
ATOM     16  C12 L1E d   1      25.567  42.880  39.228  0.00  0.00     0.140 A 
ATOM     17  C7  L1E d   1      26.464  41.806  39.481  0.00  0.00     0.041 A 
ATOM     18  N11 L1E d   1      26.042  44.135  39.023  0.00  0.00    -0.242 NA
ATOM     19  C8  L1E d   1      27.834  42.094  39.491  0.00  0.00    -0.066 A 
ATOM     20  C9  L1E d   1      28.272  43.399  39.271  0.00  0.00    -0.065 A 
ATOM     21  H2  L1E d   1      28.553  41.303  39.670  0.00  0.00     0.085 H 
ATOM     22  C10 L1E d   1      27.343  44.412  39.039  0.00  0.00     0.004 A 
ATOM     23  H17 L1E d   1      29.332  43.625  39.280  0.00  0.00     0.085 H 
ATOM     24  H3  L1E d   1      27.682  45.428  38.871  0.00  0.00     0.114 H 
ATOM     25  H16 L1E d   1      23.883  41.802  39.614  0.00  0.00     0.167 HD
BRANCH  17  26
ATOM     26  C3  L1E d   1      26.029  40.476  39.684  0.00  0.00     0.104 A 
ATOM     27  N4  L1E d   1      24.726  40.147  39.545  0.00  0.00    -0.239 NA
ATOM     28  C5  L1E d   1      24.292  38.899  39.717  0.00  0.00     0.089 A 
ATOM     29  N6  L1E d   1      25.106  37.901  40.014  0.00  0.00    -0.222 NA
ATOM     30  H1  L1E d   1      23.233  38.695  39.609  0.00  0.00     0.146 H 
ATOM     31  C1  L1E d   1      26.420  38.142  40.153  0.00  0.00     0.161 A 
ATOM     32  C2  L1E d   1      26.918  39.435  39.994  0.00  0.00     0.133 A 
ATOM     33  N33 L1E d   1      27.460  37.356  40.436  0.00  0.00    -0.334 N 
ATOM     34  N35 L1E d   1      28.236  39.363  40.186  0.00  0.00    -0.238 NA
ATOM     35  C34 L1E d   1      28.569  38.100  40.456  0.00  0.00     0.066 A 
ATOM     36  H18 L1E d   1      29.575  37.737  40.659  0.00  0.00     0.143 H 
ATOM     37  H19 L1E d   1      27.415  36.342  40.610  0.00  0.00     0.168 HD
ENDBRANCH  17  26
ENDBRANCH  10  15
BRANCH   9  38
ATOM     38  C20 L1E d   1      22.453  44.120  41.006  0.00  0.00    -0.049 C 
ATOM     39  H5  L1E d   1      21.675  44.769  41.436  0.00  0.00     0.033 H 
ATOM     40  H6  L1E d   1      23.437  44.419  41.396  0.00  0.00     0.033 H 
ATOM     41  H7  L1E d   1      22.252  43.074  41.281  0.00  0.00     0.033 H 
ENDBRANCH   9  38
BRANCH   5  42
ATOM     42  N25 L1E d   1      21.430  45.530  34.774  0.00  0.00    -0.340 N 
ATOM     43  H14 L1E d   1      21.082  46.329  35.322  0.00  0.00     0.167 HD
BRANCH  42  44
ATOM     44  C26 L1E d   1      20.982  45.375  33.527  0.00  0.00     0.033 A 
ATOM     45  C27 L1E d   1      20.751  44.105  32.983  0.00  0.00    -0.056 A 
ATOM     46  C28 L1E d   1      20.280  43.982  31.678  0.00  0.00    -0.060 A 
ATOM     47  H11 L1E d   1      20.939  43.218  33.578  0.00  0.00     0.087 H 
ATOM     48  C29 L1E d   1      20.044  45.136  30.926  0.00  0.00     0.034 A 
ATOM     49  H10 L1E d   1      20.099  43.002  31.251  0.00  0.00     0.086 H 
ATOM     50 CL32 L1E d   1      19.452  45.005  29.308  0.00  0.00    -0.084 Cl
ATOM     51  C30 L1E d   1      20.272  46.405  31.462  0.00  0.00    -0.060 A 
ATOM     52  C31 L1E d   1      20.740  46.524  32.767  0.00  0.00    -0.056 A 
ATOM     53  H12 L1E d   1      20.086  47.291  30.866  0.00  0.00     0.086 H 
ATOM     54  H13 L1E d   1      20.917  47.505  33.194  0.00  0.00     0.087 H 
ENDBRANCH  42  44
ENDBRANCH   5  42
TORSDOF 5
