REMARK  9 active torsions:
REMARK  status: ('A' for Active; 'I' for Inactive)
REMARK    1  A    between atoms: OA5_1  and  CE1_2 
REMARK    2  A    between atoms: CE1_2  and  CE2_3 
REMARK    3  A    between atoms: CE2_3  and  CE3_4 
REMARK    4  A    between atoms: CE3_4  and  CE4_5 
REMARK    5  A    between atoms: CE4_5  and  CE5_6 
REMARK    6  A    between atoms: CE5_6  and  CE6_7 
REMARK    7  A    between atoms: CE6_7  and  S1_8 
REMARK    8  A    between atoms: S1_8  and  CF4_9 
REMARK    9  A    between atoms: CF7_17  and  NA4_18 
ROOT
ATOM      1  CE6 N11 d   1       7.073   2.723  28.684  0.00  0.00    -0.019 C 
ATOM      2  H12 N11 d   1       8.097   2.704  29.086  0.00  0.00     0.049 H 
ATOM      3  H13 N11 d   1       6.790   3.760  28.451  0.00  0.00     0.049 H 
ENDROOT
BRANCH   1   4
ATOM      4  CE5 N11 d   1       6.109   2.153  29.721  0.00  0.00    -0.057 C 
ATOM      5  H10 N11 d   1       5.215   1.771  29.207  0.00  0.00     0.034 H 
ATOM      6  H11 N11 d   1       6.604   1.329  30.255  0.00  0.00     0.034 H 
BRANCH   4   7
ATOM      7  CE4 N11 d   1       5.686   3.216  30.730  0.00  0.00    -0.064 C 
ATOM      8  H8  N11 d   1       5.755   2.794  31.744  0.00  0.00     0.033 H 
ATOM      9  H9  N11 d   1       6.363   4.079  30.645  0.00  0.00     0.033 H 
BRANCH   7  10
ATOM     10  CE3 N11 d   1       4.255   3.683  30.485  0.00  0.00    -0.063 C 
ATOM     11  H6  N11 d   1       4.276   4.604  29.885  0.00  0.00     0.033 H 
ATOM     12  H7  N11 d   1       3.711   2.900  29.936  0.00  0.00     0.033 H 
BRANCH  10  13
ATOM     13  CE2 N11 d   1       3.534   3.962  31.800  0.00  0.00    -0.045 C 
ATOM     14  H4  N11 d   1       3.601   3.072  32.443  0.00  0.00     0.036 H 
ATOM     15  H5  N11 d   1       4.018   4.813  32.301  0.00  0.00     0.036 H 
BRANCH  13  16
ATOM     16  CE1 N11 d   1       2.064   4.294  31.560  0.00  0.00     0.017 C 
ATOM     17  H2  N11 d   1       1.909   4.517  30.494  0.00  0.00     0.073 H 
ATOM     18  H3  N11 d   1       1.443   3.433  31.849  0.00  0.00     0.073 H 
BRANCH  16  19
ATOM     19  OA5 N11 d   1       1.691   5.434  32.344  0.00  0.00    -0.401 OA
ATOM     20  H1  N11 d   1       0.775   5.636  32.191  0.00  0.00     0.209 HD
ENDBRANCH  16  19
ENDBRANCH  13  16
ENDBRANCH  10  13
ENDBRANCH   7  10
ENDBRANCH   4   7
ENDBRANCH   1   4
BRANCH   1  21
ATOM     21  S1  N11 d   1       7.001   1.751  27.214  0.00  0.00    -0.127 SA
BRANCH  21  22
ATOM     22  CF4 N11 d   1       7.653   2.620  25.912  0.00  0.00     0.034 A 
ATOM     23  CL  N11 d   1       6.846   3.661  25.213  0.00  0.00     0.136 A 
ATOM     24  NA3 N11 d   1       5.591   4.126  25.393  0.00  0.00    -0.101 NA
ATOM     25  CI  N11 d   1       7.478   4.392  24.070  0.00  0.00     0.151 A 
ATOM     26  OA2 N11 d   1       5.443   5.125  24.382  0.00  0.00    -0.106 OA
ATOM     27  NA1 N11 d   1       6.604   5.289  23.567  0.00  0.00    -0.100 NA
ATOM     28  CF7 N11 d   1       8.872   4.029  23.696  0.00  0.00     0.136 A 
ATOM     29  CF6 N11 d   1       9.536   3.027  24.409  0.00  0.00    -0.047 A 
ATOM     30  CF5 N11 d   1       8.952   2.348  25.485  0.00  0.00    -0.062 A 
ATOM     31  H15 N11 d   1      10.546   2.764  24.116  0.00  0.00     0.087 H 
ATOM     32  H14 N11 d   1       9.527   1.588  26.002  0.00  0.00     0.085 H 
BRANCH  28  33
ATOM     33  NA4 N11 d   1       9.499   4.691  22.632  0.00  0.00    -0.113 N 
ATOM     34  OA4 N11 d   1       8.781   5.590  21.850  0.00  0.00    -0.532 OA
ATOM     35  OA3 N11 d   1      10.843   4.471  22.351  0.00  0.00    -0.532 OA
ENDBRANCH  28  33
ENDBRANCH  21  22
ENDBRANCH   1  21
TORSDOF 9
