REMARK  9 active torsions:
REMARK  status: ('A' for Active; 'I' for Inactive)
REMARK    1  A    between atoms: N2_2  and  C13_7 
REMARK    2  A    between atoms: C13_7  and  C14_8 
REMARK    3  A    between atoms: C14_8  and  C15_9 
REMARK    4  A    between atoms: C15_9  and  N16_10 
REMARK    5  A    between atoms: C22_12  and  C39_19 
REMARK       I    between atoms: N32_17  and  C69_33 
REMARK    6  A    between atoms: C44_23  and  C52_25 
REMARK    7  A    between atoms: C53_26  and  C54_27 
REMARK    8  A    between atoms: C69_33  and  C70_34 
REMARK    9  A    between atoms: C70_34  and  O71_35 
ROOT
ATOM      1  N16 599 d   1      -1.302 -23.272   5.643  0.00  0.00    -0.273 N 
ATOM      2  N21 599 d   1      -0.411 -22.971   6.663  0.00  0.00    -0.171 NA
ATOM      3  C22 599 d   1       0.287 -24.099   6.907  0.00  0.00     0.097 A 
ATOM      4  C23 599 d   1      -0.187 -25.106   6.078  0.00  0.00     0.015 A 
ATOM      5  C24 599 d   1      -1.189 -24.561   5.287  0.00  0.00     0.042 A 
ATOM      6  C30 599 d   1      -1.930 -25.346   4.233  0.00  0.00    -0.009 C 
ATOM      7  C31 599 d   1      -1.595 -26.835   4.350  0.00  0.00     0.003 C 
ATOM      8  N32 599 d   1      -0.143 -26.939   4.571  0.00  0.00    -0.346 N 
ATOM      9  C33 599 d   1       0.261 -26.551   5.938  0.00  0.00     0.026 C 
ATOM     10  C69 599 d   1       0.744 -27.302   3.644  0.00  0.00     0.243 C 
ATOM     11  O77 599 d   1       1.895 -27.529   3.931  0.00  0.00    -0.271 OA
ATOM     12  H16 599 d   1      -1.636 -24.985   3.237  0.00  0.00     0.044 H 
ATOM     13  H17 599 d   1      -3.012 -25.205   4.369  0.00  0.00     0.044 H 
ATOM     14  H18 599 d   1      -1.873 -27.358   3.423  0.00  0.00     0.065 H 
ATOM     15  H19 599 d   1      -2.138 -27.278   5.198  0.00  0.00     0.065 H 
ATOM     16  H20 599 d   1      -0.238 -27.186   6.685  0.00  0.00     0.071 H 
ATOM     17  H21 599 d   1       1.351 -26.632   6.058  0.00  0.00     0.071 H 
ENDROOT
BRANCH   1  18
ATOM     18  C15 599 d   1      -2.160 -22.156   5.243  0.00  0.00     0.018 C 
ATOM     19  H14 599 d   1      -1.688 -21.205   5.530  0.00  0.00     0.067 H 
ATOM     20  H15 599 d   1      -2.311 -22.177   4.154  0.00  0.00     0.067 H 
BRANCH  18  21
ATOM     21  C14 599 d   1      -3.508 -22.297   5.952  0.00  0.00    -0.026 C 
ATOM     22  H12 599 d   1      -4.317 -22.166   5.218  0.00  0.00     0.037 H 
ATOM     23  H13 599 d   1      -3.577 -23.300   6.399  0.00  0.00     0.037 H 
BRANCH  21  24
ATOM     24  C13 599 d   1      -3.653 -21.256   7.043  0.00  0.00     0.085 C 
ATOM     25  H10 599 d   1      -2.884 -21.416   7.813  0.00  0.00     0.076 H 
ATOM     26  H11 599 d   1      -3.539 -20.250   6.614  0.00  0.00     0.076 H 
BRANCH  24  27
ATOM     27  N2  599 d   1      -4.977 -21.391   7.634  0.00  0.00    -0.067 N 
ATOM     28  C1  599 d   1      -5.166 -22.177   8.840  0.00  0.00     0.103 C 
ATOM     29  C6  599 d   1      -5.560 -21.175   9.931  0.00  0.00     0.042 C 
ATOM     30  H1  599 d   1      -4.233 -22.693   9.112  0.00  0.00     0.079 H 
ATOM     31  H2  599 d   1      -5.965 -22.918   8.693  0.00  0.00     0.079 H 
ATOM     32  O5  599 d   1      -6.695 -20.417   9.498  0.00  0.00    -0.388 OA
ATOM     33  H8  599 d   1      -4.718 -20.495  10.125  0.00  0.00     0.076 H 
ATOM     34  H9  599 d   1      -5.813 -21.718  10.854  0.00  0.00     0.076 H 
ATOM     35  C4  599 d   1      -6.557 -19.732   8.234  0.00  0.00     0.042 C 
ATOM     36  C3  599 d   1      -6.137 -20.682   7.094  0.00  0.00     0.103 C 
ATOM     37  H6  599 d   1      -7.522 -19.273   7.974  0.00  0.00     0.076 H 
ATOM     38  H7  599 d   1      -5.794 -18.947   8.339  0.00  0.00     0.076 H 
ATOM     39  H4  599 d   1      -6.948 -21.385   6.852  0.00  0.00     0.079 H 
ATOM     40  H5  599 d   1      -5.863 -20.114   6.192  0.00  0.00     0.079 H 
ATOM     41  H3  599 d   1      -5.168 -22.191   7.051  0.00  0.00     0.280 HD
ENDBRANCH  24  27
ENDBRANCH  21  24
ENDBRANCH  18  21
ENDBRANCH   1  18
BRANCH   3  42
ATOM     42  C39 599 d   1       1.330 -24.164   7.948  0.00  0.00    -0.004 A 
ATOM     43  C41 599 d   1       2.252 -23.120   8.018  0.00  0.00    -0.069 A 
ATOM     44  C42 599 d   1       3.229 -23.123   8.999  0.00  0.00    -0.060 A 
ATOM     45  H22 599 d   1       2.204 -22.306   7.304  0.00  0.00     0.085 H 
ATOM     46  C43 599 d   1       3.263 -24.168   9.925  0.00  0.00     0.052 A 
ATOM     47  H23 599 d   1       3.959 -22.323   9.048  0.00  0.00     0.086 H 
ATOM     48  C44 599 d   1       2.340 -25.210   9.864  0.00  0.00     0.040 A 
ATOM     49 CL81 599 d   1       4.527 -24.146  11.188  0.00  0.00    -0.083 Cl
ATOM     50  C45 599 d   1       1.355 -25.211   8.872  0.00  0.00    -0.051 A 
ATOM     51  H24 599 d   1       0.624 -26.010   8.821  0.00  0.00     0.087 H 
BRANCH  48  52
ATOM     52  C52 599 d   1       2.366 -26.153  10.741  0.00  0.00    -0.060 C 
ATOM     53  C53 599 d   1       2.479 -26.877  11.682  0.00  0.00    -0.061 C 
BRANCH  53  54
ATOM     54  C54 599 d   1       2.434 -27.642  12.721  0.00  0.00     0.018 A 
ATOM     55  C58 599 d   1       1.618 -28.778  12.719  0.00  0.00    -0.063 A 
ATOM     56  C59 599 d   1       1.587 -29.623  13.832  0.00  0.00    -0.061 A 
ATOM     57  H25 599 d   1       1.008 -29.004  11.852  0.00  0.00     0.085 H 
ATOM     58  C60 599 d   1       2.382 -29.336  14.945  0.00  0.00     0.034 A 
ATOM     59  H26 599 d   1       0.948 -30.499  13.832  0.00  0.00     0.086 H 
ATOM     60  C61 599 d   1       3.209 -28.204  14.935  0.00  0.00    -0.061 A 
ATOM     61 CL83 599 d   1       2.330 -30.413  16.384  0.00  0.00    -0.084 Cl
ATOM     62  C62 599 d   1       3.226 -27.355  13.825  0.00  0.00    -0.063 A 
ATOM     63  H27 599 d   1       3.837 -27.986  15.791  0.00  0.00     0.086 H 
ATOM     64  H28 599 d   1       3.857 -26.473  13.826  0.00  0.00     0.085 H 
ENDBRANCH  53  54
ENDBRANCH  48  52
ENDBRANCH   3  42
BRANCH  10  65
ATOM     65  C70 599 d   1       0.328 -27.409   2.189  0.00  0.00     0.090 C 
ATOM     66  H29 599 d   1      -0.293 -26.542   1.920  0.00  0.00     0.088 H 
ATOM     67  H30 599 d   1      -0.249 -28.333   2.040  0.00  0.00     0.088 H 
BRANCH  65  68
ATOM     68  O71 599 d   1       1.501 -27.436   1.356  0.00  0.00    -0.392 OA
ATOM     69  H31 599 d   1       2.036 -28.185   1.589  0.00  0.00     0.210 HD
ENDBRANCH  65  68
ENDBRANCH  10  65
TORSDOF 9
