REMARK  8 active torsions:
REMARK  status: ('A' for Active; 'I' for Inactive)
REMARK    1  A    between atoms: C_1  and  CA_4 
REMARK       I    between atoms: NAL_15  and  C_1 
REMARK    2  A    between atoms: CA_4  and  N_2 
REMARK       I    between atoms: N_2  and  CAO_17 
REMARK    3  A    between atoms: CA_4  and  CB_5 
REMARK    4  A    between atoms: CB_5  and  OAN_16 
REMARK    5  A    between atoms: OAN_16  and  CAA_6 
REMARK    6  A    between atoms: CAO_17  and  CAB_7 
REMARK    7  A    between atoms: CAJ_14  and  NAL_15 
REMARK    8  A    between atoms: CAJ_14  and  CAQ_18 
ROOT
ATOM      1  C   AMJ d   1      -5.707   8.199  12.088  0.00  0.00     0.242 C 
ATOM      2  O   AMJ d   1      -6.295   9.110  12.668  0.00  0.00    -0.271 OA
ATOM      3  NAL AMJ d   1      -5.955   7.832  10.834  0.00  0.00    -0.355 N 
ATOM      4  H   AMJ d   1      -5.419   7.065  10.428  0.00  0.00     0.162 HD
ENDROOT
BRANCH   1   5
ATOM      5  CA  AMJ d   1      -4.610   7.396  12.791  0.00  0.00     0.109 C 
ATOM      6  H   AMJ d   1      -4.289   7.927  13.687  0.00  0.00     0.090 H 
BRANCH   5   7
ATOM      7  N   AMJ d   1      -5.134   6.075  13.167  0.00  0.00    -0.346 N 
ATOM      8  CAO AMJ d   1      -6.305   5.930  13.781  0.00  0.00     0.214 C 
ATOM      9  OAC AMJ d   1      -6.778   4.843  14.111  0.00  0.00    -0.274 OA
ATOM     10  H   AMJ d   1      -4.583   5.244  12.950  0.00  0.00     0.163 HD
BRANCH   8  11
ATOM     11  CAB AMJ d   1      -7.055   7.234  14.061  0.00  0.00    -0.003 C 
ATOM     12  H   AMJ d   1      -8.020   7.213  13.555  0.00  0.00     0.040 H 
ATOM     13  H   AMJ d   1      -7.209   7.340  15.135  0.00  0.00     0.040 H 
ATOM     14  H   AMJ d   1      -6.468   8.075  13.692  0.00  0.00     0.040 H 
ENDBRANCH   8  11
ENDBRANCH   5   7
BRANCH   5  15
ATOM     15  CB  AMJ d   1      -3.418   7.224  11.847  0.00  0.00     0.046 C 
ATOM     16  H   AMJ d   1      -2.689   8.012  12.035  0.00  0.00     0.078 H 
ATOM     17  H   AMJ d   1      -3.761   7.285  10.814  0.00  0.00     0.078 H 
BRANCH  15  18
ATOM     18  OAN AMJ d   1      -2.809   5.944  12.074  0.00  0.00    -0.393 OA
BRANCH  18  19
ATOM     19  CAA AMJ d   1      -3.623   4.919  11.499  0.00  0.00     0.004 C 
ATOM     20  H   AMJ d   1      -4.610   4.939  11.961  0.00  0.00     0.066 H 
ATOM     21  H   AMJ d   1      -3.718   5.091  10.427  0.00  0.00     0.066 H 
ATOM     22  H   AMJ d   1      -3.159   3.948  11.672  0.00  0.00     0.066 H 
ENDBRANCH  18  19
ENDBRANCH  15  18
ENDBRANCH   5  15
ENDBRANCH   1   5
BRANCH   3  23
ATOM     23  CAJ AMJ d   1      -6.978   8.499  10.015  0.00  0.00     0.019 C 
ATOM     24  H   AMJ d   1      -7.611   9.114  10.655  0.00  0.00     0.071 H 
ATOM     25  H   AMJ d   1      -7.588   7.748   9.514  0.00  0.00     0.071 H 
BRANCH  23  26
ATOM     26  CAQ AMJ d   1      -6.297   9.384   8.969  0.00  0.00    -0.041 A 
ATOM     27  CAH AMJ d   1      -6.625  10.732   8.879  0.00  0.00    -0.075 A 
ATOM     28  CAF AMJ d   1      -6.007  11.536   7.929  0.00  0.00    -0.082 A 
ATOM     29  H   AMJ d   1      -7.367  11.158   9.554  0.00  0.00     0.084 H 
ATOM     30  CAE AMJ d   1      -5.060  10.992   7.069  0.00  0.00    -0.083 A 
ATOM     31  H   AMJ d   1      -6.265  12.593   7.858  0.00  0.00     0.083 H 
ATOM     32  CAG AMJ d   1      -4.732   9.645   7.159  0.00  0.00    -0.082 A 
ATOM     33  H   AMJ d   1      -4.575  11.622   6.324  0.00  0.00     0.083 H 
ATOM     34  CAI AMJ d   1      -5.350   8.841   8.109  0.00  0.00    -0.075 A 
ATOM     35  H   AMJ d   1      -3.990   9.219   6.484  0.00  0.00     0.083 H 
ATOM     36  H   AMJ d   1      -5.092   7.784   8.180  0.00  0.00     0.084 H 
ENDBRANCH  23  26
ENDBRANCH   3  23
TORSDOF 8
