REMARK WARNING: 32 MAX_TORS EXCEEDED!!!
REMARK  45 active torsions:
REMARK  status: ('A' for Active; 'I' for Inactive)
REMARK    1  A    between atoms: CA_2  and  N_1 
REMARK    2  A    between atoms: C_3  and  CA_2 
REMARK       I    between atoms: N_6  and  C_3 
REMARK    3  A    between atoms: CA_22  and  C_5 
REMARK       I    between atoms: C_5  and  N_26 
REMARK    4  A    between atoms: CA_22  and  N_6 
REMARK    5  A    between atoms: OG1_24  and  C1_8 
REMARK    6  A    between atoms: C2_9  and  N2_10 
REMARK       I    between atoms: N2_10  and  C7_19 
REMARK    7  A    between atoms: C3_11  and  O3_12 
REMARK    8  A    between atoms: C4_13  and  O4_14 
REMARK    9  A    between atoms: C5_15  and  C6_17 
REMARK   10  A    between atoms: C6_17  and  O6_18 
REMARK   11  A    between atoms: C7_19  and  C8_21 
REMARK   12  A    between atoms: CB_23  and  CA_22 
REMARK   13  A    between atoms: CB_23  and  OG1_24 
REMARK   14  A    between atoms: CB_23  and  CG2_25 
REMARK   15  A    between atoms: N_26  and  CA_27 
REMARK   16  A    between atoms: CA_27  and  C_28 
REMARK   17  A    between atoms: CA_27  and  CB_30 
REMARK       I    between atoms: C_28  and  N_35 
REMARK   18  A    between atoms: CB_30  and  CG_31 
REMARK   19  A    between atoms: CG_31  and  CD_32 
REMARK   20  A    between atoms: CD_32  and  CE_33 
REMARK   21  A    between atoms: CE_33  and  NZ_34 
REMARK   22  A    between atoms: CA_36  and  C_37 
REMARK       I    between atoms: C_37  and  N_42 
REMARK   23  A    between atoms: CA_43  and  C_44 
REMARK       I    between atoms: C_44  and  N_49 
REMARK   24  A    between atoms: N_49  and  CA_50 
REMARK   25  A    between atoms: CA_50  and  C_51 
REMARK   26  A    between atoms: CA_50  and  CB_53 
REMARK       I    between atoms: C_51  and  N_57 
REMARK   27  A    between atoms: CB_53  and  CG_54 
REMARK   28  A    between atoms: CG_54  and  CD1_55 
REMARK   29  A    between atoms: CG_54  and  CD2_56 
REMARK   30  A    between atoms: N_57  and  CA_58 
REMARK   31  A    between atoms: CA_58  and  C_59 
REMARK   32  A    between atoms: CA_58  and  CB_61 
REMARK       I    between atoms: C_59  and  N_66 
REMARK   33  A    between atoms: CB_61  and  CG_62 
REMARK   34  A    between atoms: CG_62  and  CD_63 
REMARK   35  A    between atoms: N_66  and  CA_67 
REMARK   36  A    between atoms: CA_67  and  C_68 
REMARK   37  A    between atoms: CA_67  and  CB_70 
REMARK       I    between atoms: C_68  and  N_75 
REMARK   38  A    between atoms: CB_70  and  CG_71 
REMARK   39  A    between atoms: CG_71  and  CD_72 
REMARK   40  A    between atoms: N_75  and  CA_76 
REMARK   41  A    between atoms: CA_76  and  C_77 
REMARK   42  A    between atoms: CA_76  and  CB_79 
REMARK   43  A    between atoms: CB_79  and  CG_80 
REMARK   44  A    between atoms: CG_80  and  CD1_81 
REMARK   45  A    between atoms: CG_80  and  CD2_82 
ROOT
ATOM      1  C   PRO d   1      -6.694   5.951  13.097  0.00  0.00     0.243 C 
ATOM      2  O   PRO d   1      -7.720   5.297  12.949  0.00  0.00    -0.271 OA
ATOM      3  N   PRO d   1      -6.590   6.940  13.994  0.00  0.00    -0.337 N 
ATOM      4  CA  PRO d   1      -7.775   7.288  14.792  0.00  0.00     0.091 C 
ATOM      5  CB  PRO d   1      -7.232   8.281  15.828  0.00  0.00    -0.036 C 
ATOM      6  CG  PRO d   1      -5.742   8.061  15.837  0.00  0.00    -0.048 C 
ATOM      7  CD  PRO d   1      -5.401   7.689  14.417  0.00  0.00    -0.001 C 
ATOM      8  H   PRO d   1      -8.255   6.421  15.246  0.00  0.00     0.087 H 
ATOM      9  H   PRO d   1      -7.670   8.117  16.812  0.00  0.00     0.036 H 
ATOM     10  H   PRO d   1      -7.487   9.310  15.573  0.00  0.00     0.036 H 
ATOM     11  H   PRO d   1      -5.450   7.283  16.542  0.00  0.00     0.035 H 
ATOM     12  H   PRO d   1      -5.202   8.949  16.165  0.00  0.00     0.035 H 
ATOM     13  H   PRO d   1      -5.192   8.553  13.786  0.00  0.00     0.064 H 
ATOM     14  H   PRO d   1      -4.480   7.112  14.335  0.00  0.00     0.064 H 
ENDROOT
BRANCH   1  15
ATOM     15  CA  PRO d   1      -5.478   5.638  12.225  0.00  0.00     0.092 C 
ATOM     16  N   PRO d   1      -5.681   4.374  11.509  0.00  0.00    -0.337 N 
ATOM     17  C   LYS d   1      -5.403   3.170  12.037  0.00  0.00     0.243 C 
ATOM     18  CD  PRO d   1      -6.237   4.597  10.168  0.00  0.00    -0.001 C 
ATOM     19  O   LYS d   1      -4.934   3.033  13.164  0.00  0.00    -0.271 OA
ATOM     20  CG  PRO d   1      -5.649   5.918   9.799  0.00  0.00    -0.048 C 
ATOM     21  H   PRO d   1      -7.327   4.591  10.148  0.00  0.00     0.064 H 
ATOM     22  H   PRO d   1      -5.989   3.804   9.463  0.00  0.00     0.064 H 
ATOM     23  CB  PRO d   1      -5.384   6.673  11.093  0.00  0.00    -0.036 C 
ATOM     24  H   PRO d   1      -4.724   5.782   9.239  0.00  0.00     0.035 H 
ATOM     25  H   PRO d   1      -6.334   6.478   9.163  0.00  0.00     0.035 H 
ATOM     26  H   PRO d   1      -4.402   7.146  11.076  0.00  0.00     0.036 H 
ATOM     27  H   PRO d   1      -6.109   7.474  11.234  0.00  0.00     0.036 H 
ATOM     28  H   PRO d   1      -4.606   5.622  12.879  0.00  0.00     0.087 H 
BRANCH  17  29
ATOM     29  CA  LYS d   1      -5.678   1.950  11.161  0.00  0.00     0.089 C 
ATOM     30  H   LYS d   1      -5.992   2.297  10.177  0.00  0.00     0.087 H 
BRANCH  29  31
ATOM     31  N   LYS d   1      -4.468   1.153  11.015  0.00  0.00    -0.346 N 
ATOM     32  C   THR d   1      -3.368   1.671  10.487  0.00  0.00     0.243 C 
ATOM     33  O   THR d   1      -3.307   2.823  10.053  0.00  0.00    -0.271 OA
ATOM     34  H   LYS d   1      -4.467   0.181  11.324  0.00  0.00     0.163 HD
BRANCH  32  35
ATOM     35  CA  THR d   1      -2.160   0.749  10.435  0.00  0.00     0.114 C 
ATOM     36  H   THR d   1      -2.516  -0.234  10.128  0.00  0.00     0.091 H 
BRANCH  35  37
ATOM     37  N   THR d   1      -1.175   1.331   9.508  0.00  0.00    -0.344 N 
ATOM     38  C   GLY d   1      -1.189   1.115   8.195  0.00  0.00     0.243 C 
ATOM     39  O   GLY d   1      -2.071   0.475   7.625  0.00  0.00    -0.272 OA
ATOM     40  H   THR d   1      -0.445   1.931   9.892  0.00  0.00     0.163 HD
BRANCH  38  41
ATOM     41  CA  GLY d   1      -0.043   1.727   7.406  0.00  0.00     0.152 C 
ATOM     42  H   GLY d   1      -0.298   2.770   7.217  0.00  0.00     0.090 H 
ATOM     43  H   GLY d   1       0.864   1.596   7.996  0.00  0.00     0.090 H 
BRANCH  41  44
ATOM     44  N   GLY d   1       0.184   1.096   6.116  0.00  0.00    -0.071 N 
ATOM     45  H   GLY d   1       0.963   1.556   5.646  0.00  0.00     0.274 HD
ATOM     46  H   GLY d   1       0.404   0.110   6.255  0.00  0.00     0.274 HD
ATOM     47  H   GLY d   1      -0.657   1.181   5.545  0.00  0.00     0.274 HD
ENDBRANCH  41  44
ENDBRANCH  38  41
ENDBRANCH  35  37
BRANCH  35  48
ATOM     48  CB  THR d   1      -1.449   0.630  11.801  0.00  0.00     0.066 C 
ATOM     49  H   THR d   1      -2.228   0.221  12.444  0.00  0.00     0.086 H 
BRANCH  48  50
ATOM     50  OG1 THR d   1      -0.984   1.886  12.376  0.00  0.00    -0.352 OA
BRANCH  50  51
ATOM     51  C1  A2G d   1      -1.887   2.669  13.172  0.00  0.00     0.154 C 
ATOM     52  C2  A2G d   1      -1.245   3.997  13.491  0.00  0.00     0.087 C 
ATOM     53  C3  A2G d   1       0.084   3.771  14.213  0.00  0.00     0.086 C 
ATOM     54  H   THR d   1      -1.927   4.574  14.115  0.00  0.00     0.084 H 
ATOM     55  C4  A2G d   1      -0.196   3.038  15.504  0.00  0.00     0.089 C 
ATOM     56  H   THR d   1       0.749   3.171  13.591  0.00  0.00     0.090 H 
ATOM     57  C5  A2G d   1      -0.909   1.736  15.157  0.00  0.00     0.089 C 
ATOM     58  H   THR d   1       0.723   2.822  16.050  0.00  0.00     0.091 H 
ATOM     59  O5  A2G d   1      -2.132   1.946  14.407  0.00  0.00    -0.349 OA
ATOM     60  H   THR d   1      -0.224   1.172  14.524  0.00  0.00     0.090 H 
ATOM     61  H   THR d   1      -2.821   2.841  12.637  0.00  0.00     0.132 H 
BRANCH  52  62
ATOM     62  N2  A2G d   1      -0.948   4.696  12.249  0.00  0.00    -0.349 N 
ATOM     63  C7  A2G d   1      -1.487   5.896  12.077  0.00  0.00     0.214 C 
ATOM     64  O7  A2G d   1      -2.189   6.449  12.924  0.00  0.00    -0.274 OA
ATOM     65  H   THR d   1      -0.348   4.279  11.538  0.00  0.00     0.163 HD
BRANCH  63  66
ATOM     66  C8  A2G d   1      -1.162   6.564  10.743  0.00  0.00    -0.003 C 
ATOM     67  H   THR d   1      -2.088   6.765  10.204  0.00  0.00     0.040 H 
ATOM     68  H   THR d   1      -0.636   7.501  10.926  0.00  0.00     0.040 H 
ATOM     69  H   THR d   1      -0.531   5.901  10.150  0.00  0.00     0.040 H 
ENDBRANCH  63  66
ENDBRANCH  52  62
BRANCH  53  70
ATOM     70  O3  A2G d   1       0.744   5.004  14.453  0.00  0.00    -0.391 OA
ATOM     71  H   THR d   1       0.917   5.441  13.616  0.00  0.00     0.210 HD
ENDBRANCH  53  70
BRANCH  55  72
ATOM     72  O4  A2G d   1      -1.053   3.865  16.310  0.00  0.00    -0.390 OA
ATOM     73  H   THR d   1      -1.243   3.416  17.137  0.00  0.00     0.210 HD
ENDBRANCH  55  72
BRANCH  57  74
ATOM     74  C6  A2G d   1      -1.227   0.944  16.425  0.00  0.00     0.043 C 
ATOM     75  H   THR d   1      -1.728   0.012  16.164  0.00  0.00     0.078 H 
ATOM     76  H   THR d   1      -1.886   1.526  17.070  0.00  0.00     0.078 H 
BRANCH  74  77
ATOM     77  O6  A2G d   1      -0.005   0.663  17.107  0.00  0.00    -0.398 OA
ATOM     78  H   THR d   1      -0.193   0.165  17.906  0.00  0.00     0.209 HD
ENDBRANCH  74  77
ENDBRANCH  57  74
ENDBRANCH  50  51
ENDBRANCH  48  50
BRANCH  48  79
ATOM     79  CG2 THR d   1      -0.215  -0.274  11.713  0.00  0.00    -0.050 C 
ATOM     80  H   THR d   1      -0.518  -1.271  11.393  0.00  0.00     0.031 H 
ATOM     81  H   THR d   1       0.488   0.142  10.992  0.00  0.00     0.031 H 
ATOM     82  H   THR d   1       0.260  -0.335  12.692  0.00  0.00     0.031 H 
ENDBRANCH  48  79
ENDBRANCH  35  48
ENDBRANCH  32  35
ENDBRANCH  29  31
BRANCH  29  83
ATOM     83  CB  LYS d   1      -6.808   1.100  11.752  0.00  0.00    -0.038 C 
ATOM     84  H   LYS d   1      -6.462   0.737  12.720  0.00  0.00     0.036 H 
ATOM     85  H   LYS d   1      -7.030   0.315  11.029  0.00  0.00     0.036 H 
BRANCH  83  86
ATOM     86  CG  LYS d   1      -8.104   1.859  11.998  0.00  0.00    -0.061 C 
ATOM     87  H   LYS d   1      -8.477   2.225  11.042  0.00  0.00     0.033 H 
ATOM     88  H   LYS d   1      -7.899   2.679  12.686  0.00  0.00     0.033 H 
BRANCH  86  89
ATOM     89  CD  LYS d   1      -9.170   0.957  12.622  0.00  0.00    -0.043 C 
ATOM     90  H   LYS d   1      -9.637   1.495  13.447  0.00  0.00     0.035 H 
ATOM     91  H   LYS d   1      -8.689   0.040  12.963  0.00  0.00     0.035 H 
BRANCH  89  92
ATOM     92  CE  LYS d   1     -10.262   0.584  11.604  0.00  0.00     0.080 C 
ATOM     93  H   LYS d   1     -10.522   1.490  11.057  0.00  0.00     0.075 H 
ATOM     94  H   LYS d   1     -11.095   0.156  12.161  0.00  0.00     0.075 H 
BRANCH  92  95
ATOM     95  NZ  LYS d   1      -9.820  -0.443  10.593  0.00  0.00    -0.079 N 
ATOM     96  H   LYS d   1     -10.589  -0.642   9.953  0.00  0.00     0.274 HD
ATOM     97  H   LYS d   1      -9.024  -0.081  10.068  0.00  0.00     0.274 HD
ATOM     98  H   LYS d   1      -9.548  -1.299  11.076  0.00  0.00     0.274 HD
ENDBRANCH  92  95
ENDBRANCH  89  92
ENDBRANCH  86  89
ENDBRANCH  83  86
ENDBRANCH  29  83
ENDBRANCH  17  29
ENDBRANCH   1  15
BRANCH   4  99
ATOM     99  C   PRO d   1      -8.826   7.950  13.917  0.00  0.00     0.241 C 
ATOM    100  O   PRO d   1      -8.508   8.434  12.825  0.00  0.00    -0.271 OA
ATOM    101  N   LEU d   1     -10.067   7.973  14.395  0.00  0.00    -0.346 N 
ATOM    102  H   LEU d   1     -10.238   7.675  15.355  0.00  0.00     0.163 HD
BRANCH 101 103
ATOM    103  CA  LEU d   1     -11.196   8.418  13.570  0.00  0.00     0.089 C 
ATOM    104  H   LEU d   1     -11.171   7.758  12.703  0.00  0.00     0.087 H 
BRANCH 103 105
ATOM    105  C   LEU d   1     -11.064   9.836  13.002  0.00  0.00     0.241 C 
ATOM    106  O   LEU d   1     -11.669  10.164  11.974  0.00  0.00    -0.271 OA
ATOM    107  N   GLU d   1     -10.273  10.671  13.661  0.00  0.00    -0.346 N 
ATOM    108  H   GLU d   1      -9.800  10.361  14.510  0.00  0.00     0.163 HD
BRANCH 107 109
ATOM    109  CA  GLU d   1     -10.077  12.031  13.175  0.00  0.00     0.090 C 
ATOM    110  H   GLU d   1     -11.028  12.352  12.749  0.00  0.00     0.087 H 
BRANCH 109 111
ATOM    111  C   GLU d   1      -9.052  12.106  12.028  0.00  0.00     0.241 C 
ATOM    112  O   GLU d   1      -8.810  13.181  11.471  0.00  0.00    -0.271 OA
ATOM    113  N   GLU d   1      -8.477  10.957  11.671  0.00  0.00    -0.346 N 
ATOM    114  H   GLU d   1      -8.691  10.115  12.205  0.00  0.00     0.163 HD
BRANCH 113 115
ATOM    115  CA  GLU d   1      -7.548  10.856  10.540  0.00  0.00     0.090 C 
ATOM    116  H   GLU d   1      -7.462  11.859  10.121  0.00  0.00     0.087 H 
BRANCH 115 117
ATOM    117  C   GLU d   1      -8.071   9.910   9.458  0.00  0.00     0.241 C 
ATOM    118  O   GLU d   1      -7.394   9.667   8.457  0.00  0.00    -0.271 OA
ATOM    119  N   LEU d   1      -9.263   9.360   9.670  0.00  0.00    -0.345 N 
ATOM    120  H   LEU d   1      -9.742   9.534  10.553  0.00  0.00     0.163 HD
BRANCH 119 121
ATOM    121  CA  LEU d   1      -9.901   8.512   8.667  0.00  0.00     0.096 C 
ATOM    122  H   LEU d   1      -9.200   7.726   8.386  0.00  0.00     0.089 H 
BRANCH 121 123
ATOM    123  C   LEU d   1     -10.252   9.332   7.427  0.00  0.00     0.196 C 
ATOM    124  O   LEU d   1      -9.518   9.339   6.435  0.00  0.00    -0.646 OA
ATOM    125  O1  LEU d   1     -11.311  10.014   7.417  0.00  0.00    -0.646 OA
ENDBRANCH 121 123
BRANCH 121 126
ATOM    126  CB  LEU d   1     -11.164   7.860   9.238  0.00  0.00    -0.034 C 
ATOM    127  H   LEU d   1     -11.806   7.667   8.378  0.00  0.00     0.037 H 
ATOM    128  H   LEU d   1     -11.528   8.549  10.000  0.00  0.00     0.037 H 
BRANCH 126 129
ATOM    129  CG  LEU d   1     -11.014   6.511   9.946  0.00  0.00    -0.059 C 
ATOM    130  H   LEU d   1     -11.197   5.725   9.213  0.00  0.00     0.038 H 
BRANCH 129 131
ATOM    131  CD1 LEU d   1      -9.599   6.301  10.473  0.00  0.00    -0.073 C 
ATOM    132  H   LEU d   1      -8.895   6.332   9.642  0.00  0.00     0.028 H 
ATOM    133  H   LEU d   1      -9.357   7.090  11.185  0.00  0.00     0.028 H 
ATOM    134  H   LEU d   1      -9.537   5.332  10.968  0.00  0.00     0.028 H 
ENDBRANCH 129 131
BRANCH 129 135
ATOM    135  CD2 LEU d   1     -12.042   6.384  11.058  0.00  0.00    -0.073 C 
ATOM    136  H   LEU d   1     -11.894   7.186  11.782  0.00  0.00     0.028 H 
ATOM    137  H   LEU d   1     -13.044   6.456  10.635  0.00  0.00     0.028 H 
ATOM    138  H   LEU d   1     -11.923   5.420  11.552  0.00  0.00     0.028 H 
ENDBRANCH 129 135
ENDBRANCH 126 129
ENDBRANCH 121 126
ENDBRANCH 119 121
ENDBRANCH 115 117
BRANCH 115 139
ATOM    139  CB  GLU d   1      -6.167  10.371  10.997  0.00  0.00    -0.029 C 
ATOM    140  H   GLU d   1      -5.501  10.457  10.138  0.00  0.00     0.037 H 
ATOM    141  H   GLU d   1      -6.296   9.357  11.375  0.00  0.00     0.037 H 
BRANCH 139 142
ATOM    142  CG  GLU d   1      -5.547  11.184  12.119  0.00  0.00     0.018 C 
ATOM    143  H   GLU d   1      -4.808  10.555  12.615  0.00  0.00     0.049 H 
ATOM    144  H   GLU d   1      -6.352  11.501  12.782  0.00  0.00     0.049 H 
BRANCH 142 145
ATOM    145  CD  GLU d   1      -4.833  12.436  11.625  0.00  0.00     0.172 C 
ATOM    146  OE1 GLU d   1      -4.689  13.391  12.417  0.00  0.00    -0.648 OA
ATOM    147  OE2 GLU d   1      -4.420  12.471  10.445  0.00  0.00    -0.648 OA
ENDBRANCH 142 145
ENDBRANCH 139 142
ENDBRANCH 115 139
ENDBRANCH 113 115
ENDBRANCH 109 111
BRANCH 109 148
ATOM    148  CB  GLU d   1      -9.752  13.007  14.320  0.00  0.00    -0.029 C 
ATOM    149  H   GLU d   1     -10.698  13.216  14.820  0.00  0.00     0.037 H 
ATOM    150  H   GLU d   1      -9.253  13.860  13.861  0.00  0.00     0.037 H 
BRANCH 148 151
ATOM    151  CG  GLU d   1      -8.805  12.488  15.397  0.00  0.00     0.018 C 
ATOM    152  H   GLU d   1      -8.278  13.346  15.814  0.00  0.00     0.049 H 
ATOM    153  H   GLU d   1      -8.142  11.760  14.930  0.00  0.00     0.049 H 
BRANCH 151 154
ATOM    154  CD  GLU d   1      -9.526  11.784  16.549  0.00  0.00     0.172 C 
ATOM    155  OE1 GLU d   1     -10.198  12.444  17.375  0.00  0.00    -0.648 OA
ATOM    156  OE2 GLU d   1      -9.404  10.551  16.635  0.00  0.00    -0.648 OA
ENDBRANCH 151 154
ENDBRANCH 148 151
ENDBRANCH 109 148
ENDBRANCH 107 109
ENDBRANCH 103 105
BRANCH 103 157
ATOM    157  CB  LEU d   1     -12.541   8.237  14.294  0.00  0.00    -0.035 C 
ATOM    158  H   LEU d   1     -12.588   7.177  14.543  0.00  0.00     0.037 H 
ATOM    159  H   LEU d   1     -13.286   8.650  13.614  0.00  0.00     0.037 H 
BRANCH 157 160
ATOM    160  CG  LEU d   1     -12.768   8.966  15.620  0.00  0.00    -0.059 C 
ATOM    161  H   LEU d   1     -11.895   8.794  16.249  0.00  0.00     0.038 H 
BRANCH 160 162
ATOM    162  CD1 LEU d   1     -12.906  10.463  15.409  0.00  0.00    -0.073 C 
ATOM    163  H   LEU d   1     -11.995  10.850  14.951  0.00  0.00     0.028 H 
ATOM    164  H   LEU d   1     -13.755  10.660  14.754  0.00  0.00     0.028 H 
ATOM    165  H   LEU d   1     -13.066  10.951  16.370  0.00  0.00     0.028 H 
ENDBRANCH 160 162
BRANCH 160 166
ATOM    166  CD2 LEU d   1     -13.996   8.416  16.326  0.00  0.00    -0.073 C 
ATOM    167  H   LEU d   1     -14.871   8.554  15.691  0.00  0.00     0.028 H 
ATOM    168  H   LEU d   1     -13.854   7.354  16.525  0.00  0.00     0.028 H 
ATOM    169  H   LEU d   1     -14.141   8.947  17.267  0.00  0.00     0.028 H 
ENDBRANCH 160 166
ENDBRANCH 157 160
ENDBRANCH 103 157
ENDBRANCH 101 103
ENDBRANCH   4  99
TORSDOF 45
