REMARK  24 active torsions:
REMARK  status: ('A' for Active; 'I' for Inactive)
REMARK    1  A    between atoms: C11_1  and  C14_2 
REMARK    2  A    between atoms: C14_2  and  C17_3 
REMARK    3  A    between atoms: C17_3  and  C20_4 
REMARK    4  A    between atoms: C20_4  and  C23_5 
REMARK    5  A    between atoms: C23_5  and  C26_6 
REMARK    6  A    between atoms: C26_6  and  C29_7 
REMARK    7  A    between atoms: C29_7  and  C32_8 
REMARK    8  A    between atoms: C32_8  and  C35_9 
REMARK    9  A    between atoms: C35_9  and  C38_10 
REMARK   10  A    between atoms: C38_10  and  C41_11 
REMARK   11  A    between atoms: C43_12  and  C45_13 
REMARK   12  A    between atoms: C45_13  and  O47_14 
REMARK   13  A    between atoms: C45_13  and  C49_15 
REMARK   14  A    between atoms: C49_15  and  N51_16 
REMARK   15  A    between atoms: C49_15  and  C54_17 
REMARK   16  A    between atoms: C54_17  and  O57_18 
REMARK   17  A    between atoms: O57_18  and  P58_19 
REMARK   18  A    between atoms: P58_19  and  O61_22 
REMARK   19  A    between atoms: O61_22  and  C62_23 
REMARK   20  A    between atoms: C62_23  and  C65_24 
REMARK   21  A    between atoms: C65_24  and  N68_25 
REMARK   22  A    between atoms: N68_25  and  C70_26 
REMARK   23  A    between atoms: N68_25  and  C74_27 
REMARK   24  A    between atoms: N68_25  and  C78_28 
ROOT
ATOM      1  C45 SPU d   1     -20.567  17.446 -19.070  0.00  0.00     0.081 C 
ATOM      2  H   SPU d   1     -19.840  16.706 -18.736  0.00  0.00     0.092 H 
ENDROOT
BRANCH   1   3
ATOM      3  C43 SPU d   1     -21.926  16.816 -19.233  0.00  0.00    -0.077 C 
ATOM      4  C41 SPU d   1     -22.538  16.370 -18.142  0.00  0.00    -0.104 C 
ATOM      5  H   SPU d   1     -22.035  16.464 -17.180  0.00  0.00     0.076 H 
ATOM      6  H   SPU d   1     -22.392  16.729 -20.215  0.00  0.00     0.080 H 
BRANCH   4   7
ATOM      7  C38 SPU d   1     -23.893  15.744 -18.190  0.00  0.00    -0.050 C 
ATOM      8  H   SPU d   1     -24.384  15.988 -19.132  0.00  0.00     0.038 H 
ATOM      9  H   SPU d   1     -23.806  14.660 -18.119  0.00  0.00     0.038 H 
BRANCH   7  10
ATOM     10  C35 SPU d   1     -24.714  16.282 -17.017  0.00  0.00    -0.062 C 
ATOM     11  H   SPU d   1     -24.082  16.883 -16.363  0.00  0.00     0.033 H 
ATOM     12  H   SPU d   1     -25.524  16.912 -17.386  0.00  0.00     0.033 H 
BRANCH  10  13
ATOM     13  C32 SPU d   1     -25.278  15.108 -16.254  0.00  0.00    -0.065 C 
ATOM     14  H   SPU d   1     -24.464  14.439 -15.975  0.00  0.00     0.033 H 
ATOM     15  H   SPU d   1     -25.787  15.473 -15.362  0.00  0.00     0.033 H 
BRANCH  13  16
ATOM     16  C29 SPU d   1     -26.272  14.349 -17.119  0.00  0.00    -0.065 C 
ATOM     17  H   SPU d   1     -27.259  14.789 -16.977  0.00  0.00     0.033 H 
ATOM     18  H   SPU d   1     -25.949  14.418 -18.158  0.00  0.00     0.033 H 
BRANCH  16  19
ATOM     19  C26 SPU d   1     -26.338  12.897 -16.737  0.00  0.00    -0.065 C 
ATOM     20  H   SPU d   1     -25.319  12.539 -16.592  0.00  0.00     0.033 H 
ATOM     21  H   SPU d   1     -26.939  12.812 -15.831  0.00  0.00     0.033 H 
BRANCH  19  22
ATOM     22  C23 SPU d   1     -26.988  12.047 -17.815  0.00  0.00    -0.065 C 
ATOM     23  H   SPU d   1     -27.902  12.536 -18.152  0.00  0.00     0.033 H 
ATOM     24  H   SPU d   1     -26.293  11.934 -18.647  0.00  0.00     0.033 H 
BRANCH  22  25
ATOM     25  C20 SPU d   1     -27.333  10.669 -17.262  0.00  0.00    -0.065 C 
ATOM     26  H   SPU d   1     -26.416  10.079 -17.278  0.00  0.00     0.033 H 
ATOM     27  H   SPU d   1     -27.754  10.820 -16.268  0.00  0.00     0.033 H 
BRANCH  25  28
ATOM     28  C17 SPU d   1     -28.363   9.910 -18.070  0.00  0.00    -0.065 C 
ATOM     29  H   SPU d   1     -29.317   9.924 -17.542  0.00  0.00     0.033 H 
ATOM     30  H   SPU d   1     -28.474  10.382 -19.046  0.00  0.00     0.033 H 
BRANCH  28  31
ATOM     31  C14 SPU d   1     -27.911   8.466 -18.257  0.00  0.00    -0.069 C 
ATOM     32  H   SPU d   1     -28.054   8.202 -19.305  0.00  0.00     0.032 H 
ATOM     33  H   SPU d   1     -26.868   8.397 -17.948  0.00  0.00     0.032 H 
BRANCH  31  34
ATOM     34  C11 SPU d   1     -28.718   7.487 -17.410  0.00  0.00    -0.077 C 
ATOM     35  H   SPU d   1     -28.605   7.741 -16.356  0.00  0.00     0.027 H 
ATOM     36  H   SPU d   1     -29.770   7.549 -17.689  0.00  0.00     0.027 H 
ATOM     37  H   SPU d   1     -28.354   6.474 -17.582  0.00  0.00     0.027 H 
ENDBRANCH  31  34
ENDBRANCH  28  31
ENDBRANCH  25  28
ENDBRANCH  22  25
ENDBRANCH  19  22
ENDBRANCH  16  19
ENDBRANCH  13  16
ENDBRANCH  10  13
ENDBRANCH   7  10
ENDBRANCH   4   7
ENDBRANCH   1   3
BRANCH   1  38
ATOM     38  O47 SPU d   1     -20.236  18.008 -20.321  0.00  0.00    -0.390 OA
ATOM     39  H   SPU d   1     -19.372  18.424 -20.265  0.00  0.00     0.210 HD
ENDBRANCH   1  38
BRANCH   1  40
ATOM     40  C49 SPU d   1     -20.632  18.579 -18.050  0.00  0.00     0.148 C 
ATOM     41  H   SPU d   1     -19.982  19.348 -18.468  0.00  0.00     0.091 H 
BRANCH  40  42
ATOM     42  N51 SPU d   1     -22.017  19.006 -17.877  0.00  0.00    -0.070 N 
ATOM     43  H   SPU d   1     -22.055  19.763 -17.195  0.00  0.00     0.274 HD
ATOM     44  H   SPU d   1     -22.385  19.333 -18.770  0.00  0.00     0.274 HD
ATOM     45  H   SPU d   1     -22.575  18.219 -17.546  0.00  0.00     0.274 HD
ENDBRANCH  40  42
BRANCH  40  46
ATOM     46  C54 SPU d   1     -20.118  18.244 -16.664  0.00  0.00     0.060 C 
ATOM     47  H   SPU d   1     -19.061  18.483 -16.551  0.00  0.00     0.078 H 
ATOM     48  H   SPU d   1     -20.179  17.177 -16.452  0.00  0.00     0.078 H 
BRANCH  46  49
ATOM     49  O57 SPU d   1     -20.933  19.008 -15.790  0.00  0.00    -0.288 OA
BRANCH  49  50
ATOM     50  P58 SPU d   1     -20.797  18.817 -14.223  0.00  0.00     0.408 P 
ATOM     51  O59 SPU d   1     -21.683  17.632 -13.852  0.00  0.00    -0.624 OA
ATOM     52  O60 SPU d   1     -19.297  18.833 -13.963  0.00  0.00    -0.624 OA
BRANCH  50  53
ATOM     53  O61 SPU d   1     -21.453  20.131 -13.541  0.00  0.00    -0.288 OA
BRANCH  53  54
ATOM     54  C62 SPU d   1     -21.363  20.319 -12.121  0.00  0.00     0.054 C 
ATOM     55  H   SPU d   1     -20.458  19.833 -11.757  0.00  0.00     0.077 H 
ATOM     56  H   SPU d   1     -22.246  19.886 -11.651  0.00  0.00     0.077 H 
BRANCH  54  57
ATOM     57  C65 SPU d   1     -21.298  21.815 -11.776  0.00  0.00     0.104 C 
ATOM     58  H   SPU d   1     -21.721  21.940 -10.779  0.00  0.00     0.079 H 
ATOM     59  H   SPU d   1     -21.843  22.354 -12.551  0.00  0.00     0.079 H 
BRANCH  57  60
ATOM     60  N68 SPU d   1     -19.929  22.352 -11.745  0.00  0.00    -0.077 N 
BRANCH  60  61
ATOM     61  C70 SPU d   1     -19.186  21.843 -12.893  0.00  0.00     0.067 C 
ATOM     62  H   SPU d   1     -19.153  20.754 -12.849  0.00  0.00     0.068 H 
ATOM     63  H   SPU d   1     -19.681  22.156 -13.812  0.00  0.00     0.068 H 
ATOM     64  H   SPU d   1     -18.171  22.240 -12.872  0.00  0.00     0.068 H 
ENDBRANCH  60  61
BRANCH  60  65
ATOM     65  C74 SPU d   1     -19.938  23.834 -11.792  0.00  0.00     0.067 C 
ATOM     66  H   SPU d   1     -20.423  24.164 -12.711  0.00  0.00     0.068 H 
ATOM     67  H   SPU d   1     -20.485  24.220 -10.932  0.00  0.00     0.068 H 
ATOM     68  H   SPU d   1     -18.913  24.203 -11.768  0.00  0.00     0.068 H 
ENDBRANCH  60  65
BRANCH  60  69
ATOM     69  C78 SPU d   1     -19.216  21.876 -10.554  0.00  0.00     0.067 C 
ATOM     70  H   SPU d   1     -19.746  22.204  -9.660  0.00  0.00     0.068 H 
ATOM     71  H   SPU d   1     -19.169  20.787 -10.571  0.00  0.00     0.068 H 
ATOM     72  H   SPU d   1     -18.205  22.284 -10.550  0.00  0.00     0.068 H 
ENDBRANCH  60  69
ENDBRANCH  57  60
ENDBRANCH  54  57
ENDBRANCH  53  54
ENDBRANCH  50  53
ENDBRANCH  49  50
ENDBRANCH  46  49
ENDBRANCH  40  46
ENDBRANCH   1  40
TORSDOF 24
