REMARK  26 active torsions:
REMARK  status: ('A' for Active; 'I' for Inactive)
REMARK    1  A    between atoms: N_1  and  CA_2 
REMARK    2  A    between atoms: CA_2  and  C_3 
REMARK    3  A    between atoms: CA_2  and  CB_5 
REMARK       I    between atoms: C_3  and  N_6 
REMARK    4  A    between atoms: N_6  and  CA_7 
REMARK    5  A    between atoms: CA_7  and  C_8 
REMARK    6  A    between atoms: CA_7  and  CB_10 
REMARK       I    between atoms: C_8  and  N_15 
REMARK    7  A    between atoms: CB_10  and  CG_11 
REMARK    8  A    between atoms: CG_11  and  CD_12 
REMARK    9  A    between atoms: N_15  and  CA_16 
REMARK   10  A    between atoms: CA_16  and  C_17 
REMARK   11  A    between atoms: CA_16  and  CB_19 
REMARK       I    between atoms: C_17  and  N_26 
REMARK   12  A    between atoms: CB_19  and  CG_20 
REMARK   13  A    between atoms: N_26  and  CA_27 
REMARK   14  A    between atoms: CA_27  and  C_28 
REMARK   15  A    between atoms: CA_27  and  CB_30 
REMARK       I    between atoms: C_28  and  N_37 
REMARK   16  A    between atoms: CB_30  and  CG_31 
REMARK   17  A    between atoms: CG_31  and  CD_32 
REMARK   18  A    between atoms: CD_32  and  NE_33 
REMARK       I    between atoms: NE_33  and  CZ_34 
REMARK       I    between atoms: CZ_34  and  NH1_35 
REMARK   19  A    between atoms: N_37  and  CA_38 
REMARK   20  A    between atoms: CA_38  and  C_39 
REMARK   21  A    between atoms: CA_38  and  CB_41 
REMARK       I    between atoms: C_39  and  N_47 
REMARK   22  A    between atoms: CB_41  and  CG_42 
REMARK   23  A    between atoms: N_47  and  CA_48 
REMARK   24  A    between atoms: CA_48  and  C_49 
REMARK   25  A    between atoms: CA_48  and  CB_51 
REMARK   26  A    between atoms: CB_51  and  CG_52 
ROOT
ATOM      1  CA  ARG d   1     -23.870  25.155  11.623  0.00  0.00     0.089 C 
ATOM      2  H24 ARG d   1     -23.753  26.117  11.102  0.00  0.00     0.087 H 
ENDROOT
BRANCH   1   3
ATOM      3  N   ARG d   1     -22.571  24.750  12.140  0.00  0.00    -0.346 N 
ATOM      4  C   PHE d   1     -21.768  25.625  12.735  0.00  0.00     0.241 C 
ATOM      5  O   PHE d   1     -22.053  26.817  12.873  0.00  0.00    -0.271 OA
ATOM      6  H23 ARG d   1     -22.279  23.798  12.046  0.00  0.00     0.163 HD
BRANCH   4   7
ATOM      7  CA  PHE d   1     -20.448  25.090  13.232  0.00  0.00     0.093 C 
ATOM      8  H15 PHE d   1     -20.185  24.173  12.684  0.00  0.00     0.088 H 
BRANCH   7   9
ATOM      9  N   PHE d   1     -19.451  26.121  12.981  0.00  0.00    -0.346 N 
ATOM     10  C   GLU d   1     -19.071  26.443  11.748  0.00  0.00     0.241 C 
ATOM     11  O   GLU d   1     -19.444  25.841  10.741  0.00  0.00    -0.271 OA
ATOM     12  H14 PHE d   1     -19.041  26.600  13.757  0.00  0.00     0.163 HD
BRANCH  10  13
ATOM     13  CA  GLU d   1     -18.111  27.613  11.637  0.00  0.00     0.090 C 
ATOM     14  H9  GLU d   1     -17.529  27.673  12.568  0.00  0.00     0.087 H 
BRANCH  13  15
ATOM     15  N   GLU d   1     -17.178  27.438  10.531  0.00  0.00    -0.346 N 
ATOM     16  C   ALA d   1     -16.022  26.801  10.687  0.00  0.00     0.248 C 
ATOM     17  O   ALA d   1     -15.692  26.279  11.751  0.00  0.00    -0.271 OA
ATOM     18  H8  GLU d   1     -17.414  27.807   9.632  0.00  0.00     0.163 HD
BRANCH  16  19
ATOM     19  CA  ALA d   1     -15.105  26.742   9.456  0.00  0.00     0.172 C 
ATOM     20  H4  ALA d   1     -15.539  27.403   8.691  0.00  0.00     0.098 H 
BRANCH  19  21
ATOM     21  N   ALA d   1     -13.749  27.219   9.731  0.00  0.00    -0.067 N 
ATOM     22  H1  ALA d   1     -13.194  27.158   8.891  0.00  0.00     0.275 HD
ATOM     23  H2  ALA d   1     -13.332  26.650  10.451  0.00  0.00     0.275 HD
ATOM     24  H3  ALA d   1     -13.786  28.178  10.040  0.00  0.00     0.275 HD
ENDBRANCH  19  21
BRANCH  19  25
ATOM     25  CB  ALA d   1     -15.062  25.333   8.888  0.00  0.00    -0.042 C 
ATOM     26  H5  ALA d   1     -16.087  24.988   8.686  0.00  0.00     0.030 H 
ATOM     27  H6  ALA d   1     -14.584  24.659   9.614  0.00  0.00     0.030 H 
ATOM     28  H7  ALA d   1     -14.484  25.332   7.952  0.00  0.00     0.030 H 
ENDBRANCH  19  25
ENDBRANCH  16  19
ENDBRANCH  13  15
BRANCH  13  29
ATOM     29  CB  GLU d   1     -18.906  28.908  11.479  0.00  0.00    -0.029 C 
ATOM     30  H10 GLU d   1     -19.744  28.889  12.192  0.00  0.00     0.037 H 
ATOM     31  H11 GLU d   1     -19.299  28.950  10.452  0.00  0.00     0.037 H 
BRANCH  29  32
ATOM     32  CG  GLU d   1     -18.090  30.168  11.732  0.00  0.00     0.018 C 
ATOM     33  H12 GLU d   1     -17.413  30.328  10.880  0.00  0.00     0.049 H 
ATOM     34  H13 GLU d   1     -17.498  30.028  12.649  0.00  0.00     0.049 H 
BRANCH  32  35
ATOM     35  CD  GLU d   1     -18.963  31.393  11.898  0.00  0.00     0.172 C 
ATOM     36  OE1 GLU d   1     -19.905  31.560  11.094  0.00  0.00    -0.648 OA
ATOM     37  OE2 GLU d   1     -18.709  32.185  12.831  0.00  0.00    -0.648 OA
ENDBRANCH  32  35
ENDBRANCH  29  32
ENDBRANCH  13  29
ENDBRANCH  10  13
ENDBRANCH   7   9
BRANCH   7  38
ATOM     38  CB  PHE d   1     -20.527  24.778  14.729  0.00  0.00    -0.014 C 
ATOM     39  H16 PHE d   1     -20.980  25.642  15.236  0.00  0.00     0.043 H 
ATOM     40  H17 PHE d   1     -19.503  24.629  15.103  0.00  0.00     0.043 H 
BRANCH  38  41
ATOM     41  CG  PHE d   1     -21.342  23.545  15.074  0.00  0.00    -0.056 A 
ATOM     42  CD1 PHE d   1     -20.868  22.267  14.778  0.00  0.00    -0.077 A 
ATOM     43  CE1 PHE d   1     -21.610  21.131  15.119  0.00  0.00    -0.082 A 
ATOM     44  H18 PHE d   1     -19.913  22.153  14.278  0.00  0.00     0.084 H 
ATOM     45  CZ  PHE d   1     -22.837  21.261  15.783  0.00  0.00    -0.083 A 
ATOM     46  H20 PHE d   1     -21.234  20.146  14.868  0.00  0.00     0.083 H 
ATOM     47  CE2 PHE d   1     -23.318  22.536  16.093  0.00  0.00    -0.082 A 
ATOM     48  H22 PHE d   1     -23.408  20.380  16.054  0.00  0.00     0.083 H 
ATOM     49  CD2 PHE d   1     -22.562  23.666  15.738  0.00  0.00    -0.077 A 
ATOM     50  H21 PHE d   1     -24.267  22.652  16.604  0.00  0.00     0.083 H 
ATOM     51  H19 PHE d   1     -22.935  24.653  15.986  0.00  0.00     0.084 H 
ENDBRANCH  38  41
ENDBRANCH   7  38
ENDBRANCH   4   7
ENDBRANCH   1   3
BRANCH   1  52
ATOM     52  C   ARG d   1     -24.865  25.343  12.768  0.00  0.00     0.241 C 
ATOM     53  O   ARG d   1     -25.088  24.426  13.565  0.00  0.00    -0.271 OA
ATOM     54  N   HIS d   1     -25.475  26.523  12.836  0.00  0.00    -0.346 N 
ATOM     55  H36 HIS d   1     -25.270  27.218  12.146  0.00  0.00     0.163 HD
BRANCH  54  56
ATOM     56  CA  HIS d   1     -26.439  26.832  13.894  0.00  0.00     0.094 C 
ATOM     57  H37 HIS d   1     -26.587  25.913  14.480  0.00  0.00     0.088 H 
BRANCH  56  58
ATOM     58  C   HIS d   1     -27.815  27.271  13.375  0.00  0.00     0.241 C 
ATOM     59  O   HIS d   1     -28.719  27.576  14.161  0.00  0.00    -0.271 OA
ATOM     60  N   ASP d   1     -27.972  27.303  12.056  0.00  0.00    -0.344 N 
ATOM     61  H43 ASP d   1     -27.170  27.241  11.462  0.00  0.00     0.163 HD
BRANCH  60  62
ATOM     62  CA  ASP d   1     -29.302  27.428  11.461  0.00  0.00     0.105 C 
ATOM     63  H44 ASP d   1     -30.044  27.254  12.254  0.00  0.00     0.090 H 
BRANCH  62  64
ATOM     64  C   ASP d   1     -29.532  26.368  10.366  0.00  0.00     0.197 C 
ATOM     65  O   ASP d   1     -28.636  26.010   9.593  0.00  0.00    -0.646 OA
ATOM     66  OXT ASP d   1     -30.623  25.817  10.221  0.00  0.00    -0.646 OA
ENDBRANCH  62  64
BRANCH  62  67
ATOM     67  CB  ASP d   1     -29.513  28.844  10.923  0.00  0.00     0.044 C 
ATOM     68  H45 ASP d   1     -30.309  28.817  10.164  0.00  0.00     0.053 H 
ATOM     69  H46 ASP d   1     -28.576  29.188  10.460  0.00  0.00     0.053 H 
BRANCH  67  70
ATOM     70  CG  ASP d   1     -29.912  29.836  12.015  0.00  0.00     0.175 C 
ATOM     71  OD1 ASP d   1     -29.034  30.569  12.530  0.00  0.00    -0.648 OA
ATOM     72  OD2 ASP d   1     -31.112  29.881  12.356  0.00  0.00    -0.648 OA
ENDBRANCH  67  70
ENDBRANCH  62  67
ENDBRANCH  60  62
ENDBRANCH  56  58
BRANCH  56  73
ATOM     73  CB  HIS d   1     -25.880  27.898  14.820  0.00  0.00     0.004 C 
ATOM     74  H38 HIS d   1     -26.715  28.345  15.379  0.00  0.00     0.046 H 
ATOM     75  H39 HIS d   1     -25.394  28.671  14.206  0.00  0.00     0.046 H 
BRANCH  73  76
ATOM     76  CG  HIS d   1     -24.881  27.379  15.802  0.00  0.00     0.053 A 
ATOM     77  ND1 HIS d   1     -25.249  26.813  17.003  0.00  0.00    -0.247 NA
ATOM     78  CE1 HIS d   1     -24.165  26.459  17.670  0.00  0.00     0.064 A 
ATOM     79  NE2 HIS d   1     -23.106  26.785  16.948  0.00  0.00    -0.359 N 
ATOM     80  H41 HIS d   1     -24.147  25.980  18.648  0.00  0.00     0.143 H 
ATOM     81  CD2 HIS d   1     -23.528  27.360  15.773  0.00  0.00     0.002 A 
ATOM     82  H42 HIS d   1     -22.125  26.633  17.222  0.00  0.00     0.166 HD
ATOM     83  H40 HIS d   1     -22.893  27.731  14.970  0.00  0.00     0.114 H 
ENDBRANCH  73  76
ENDBRANCH  56  73
ENDBRANCH  54  56
ENDBRANCH   1  52
BRANCH   1  84
ATOM     84  CB  ARG d   1     -24.399  24.118  10.617  0.00  0.00    -0.036 C 
ATOM     85  H25 ARG d   1     -24.321  23.121  11.074  0.00  0.00     0.036 H 
ATOM     86  H26 ARG d   1     -23.770  24.158   9.715  0.00  0.00     0.036 H 
BRANCH  84  87
ATOM     87  CG  ARG d   1     -25.852  24.345  10.201  0.00  0.00    -0.048 C 
ATOM     88  H27 ARG d   1     -25.914  25.281   9.626  0.00  0.00     0.035 H 
ATOM     89  H28 ARG d   1     -26.471  24.429  11.106  0.00  0.00     0.035 H 
BRANCH  87  90
ATOM     90  CD  ARG d   1     -26.391  23.198   9.338  0.00  0.00     0.009 C 
ATOM     91  H29 ARG d   1     -26.170  22.243   9.838  0.00  0.00     0.064 H 
ATOM     92  H30 ARG d   1     -25.890  23.224   8.359  0.00  0.00     0.064 H 
BRANCH  90  93
ATOM     93  NE  ARG d   1     -27.834  23.300   9.132  0.00  0.00    -0.227 N 
ATOM     94  CZ  ARG d   1     -28.614  22.286   8.763  0.00  0.00     0.665 C 
ATOM     95  NH1 ARG d   1     -28.100  21.074   8.565  0.00  0.00    -0.235 N 
ATOM     96  NH2 ARG d   1     -29.914  22.480   8.617  0.00  0.00    -0.235 N 
ATOM     97  H32 ARG d   1     -28.711  20.296   8.280  0.00  0.00     0.174 HD
ATOM     98  H33 ARG d   1     -27.091  20.915   8.697  0.00  0.00     0.174 HD
ATOM     99  H34 ARG d   1     -30.315  23.416   8.769  0.00  0.00     0.174 HD
ATOM    100  H35 ARG d   1     -30.525  21.695   8.351  0.00  0.00     0.174 HD
ATOM    101  H31 ARG d   1     -28.277  24.218   9.282  0.00  0.00     0.177 HD
ENDBRANCH  90  93
ENDBRANCH  87  90
ENDBRANCH  84  87
ENDBRANCH   1  84
TORSDOF 26
