REMARK  26 active torsions:
REMARK  status: ('A' for Active; 'I' for Inactive)
REMARK    1  A    between atoms: N_1  and  CA_2 
REMARK    2  A    between atoms: CA_2  and  C_3 
REMARK    3  A    between atoms: CA_2  and  CB_5 
REMARK       I    between atoms: C_3  and  N_6 
REMARK    4  A    between atoms: N_6  and  CA_7 
REMARK    5  A    between atoms: CA_7  and  C_8 
REMARK    6  A    between atoms: CA_7  and  CB_10 
REMARK       I    between atoms: C_8  and  N_15 
REMARK    7  A    between atoms: CB_10  and  CG_11 
REMARK    8  A    between atoms: CG_11  and  CD_12 
REMARK    9  A    between atoms: N_15  and  CA_16 
REMARK   10  A    between atoms: CA_16  and  C_17 
REMARK   11  A    between atoms: CA_16  and  CB_19 
REMARK       I    between atoms: C_17  and  N_26 
REMARK   12  A    between atoms: CB_19  and  CG_20 
REMARK   13  A    between atoms: N_26  and  CA_27 
REMARK   14  A    between atoms: CA_27  and  C_28 
REMARK   15  A    between atoms: CA_27  and  CB_30 
REMARK       I    between atoms: C_28  and  N_37 
REMARK   16  A    between atoms: CB_30  and  CG_31 
REMARK   17  A    between atoms: CG_31  and  CD_32 
REMARK   18  A    between atoms: CD_32  and  NE_33 
REMARK       I    between atoms: NE_33  and  CZ_34 
REMARK       I    between atoms: CZ_34  and  NH1_35 
REMARK   19  A    between atoms: N_37  and  CA_38 
REMARK   20  A    between atoms: CA_38  and  C_39 
REMARK   21  A    between atoms: CA_38  and  CB_41 
REMARK       I    between atoms: C_39  and  N_47 
REMARK   22  A    between atoms: CB_41  and  CG_42 
REMARK   23  A    between atoms: N_47  and  CA_48 
REMARK   24  A    between atoms: CA_48  and  C_49 
REMARK   25  A    between atoms: CA_48  and  CB_51 
REMARK   26  A    between atoms: CB_51  and  CG_52 
ROOT
ATOM      1  CA  ARG d   1      74.165 -14.679  43.957  0.00  0.00     0.089 C 
ATOM      2  H   ARG d   1      73.842 -15.216  44.849  0.00  0.00     0.087 H 
ENDROOT
BRANCH   1   3
ATOM      3  N   ARG d   1      73.519 -13.370  43.966  0.00  0.00    -0.346 N 
ATOM      4  C   PHE d   1      73.496 -12.654  45.084  0.00  0.00     0.241 C 
ATOM      5  O   PHE d   1      74.017 -13.056  46.129  0.00  0.00    -0.271 OA
ATOM      6  H   ARG d   1      73.087 -13.007  43.117  0.00  0.00     0.163 HD
BRANCH   4   7
ATOM      7  CA  PHE d   1      72.771 -11.305  45.045  0.00  0.00     0.093 C 
ATOM      8  H   PHE d   1      72.122 -11.271  44.170  0.00  0.00     0.088 H 
BRANCH   7   9
ATOM      9  N   PHE d   1      72.011 -11.173  46.275  0.00  0.00    -0.346 N 
ATOM     10  C   GLU d   1      70.923 -11.887  46.526  0.00  0.00     0.241 C 
ATOM     11  O   GLU d   1      70.385 -12.620  45.700  0.00  0.00    -0.271 OA
ATOM     12  H   PHE d   1      72.328 -10.503  46.975  0.00  0.00     0.163 HD
BRANCH  10  13
ATOM     13  CA  GLU d   1      70.376 -11.756  47.928  0.00  0.00     0.090 C 
ATOM     14  H   GLU d   1      70.453 -10.723  48.269  0.00  0.00     0.087 H 
BRANCH  13  15
ATOM     15  N   GLU d   1      68.967 -12.115  47.970  0.00  0.00    -0.346 N 
ATOM     16  C   ALA d   1      68.006 -11.252  47.658  0.00  0.00     0.248 C 
ATOM     17  O   ALA d   1      68.227 -10.086  47.306  0.00  0.00    -0.271 OA
ATOM     18  H   GLU d   1      68.708 -13.061  48.248  0.00  0.00     0.163 HD
BRANCH  16  19
ATOM     19  CA  ALA d   1      66.584 -11.803  47.770  0.00  0.00     0.172 C 
ATOM     20  H   ALA d   1      66.416 -12.037  48.821  0.00  0.00     0.098 H 
BRANCH  19  21
ATOM     21  N   ALA d   1      65.558 -10.829  47.407  0.00  0.00    -0.067 N 
ATOM     22  H   ALA d   1      65.672  -9.989  47.974  0.00  0.00     0.275 HD
ATOM     23  H   ALA d   1      65.653 -10.589  46.420  0.00  0.00     0.275 HD
ATOM     24  H   ALA d   1      64.635 -11.231  47.574  0.00  0.00     0.275 HD
ENDBRANCH  19  21
BRANCH  19  25
ATOM     25  CB  ALA d   1      66.447 -13.084  46.937  0.00  0.00    -0.042 C 
ATOM     26  H   ALA d   1      66.663 -12.861  45.892  0.00  0.00     0.030 H 
ATOM     27  H   ALA d   1      67.150 -13.831  47.304  0.00  0.00     0.030 H 
ATOM     28  H   ALA d   1      65.430 -13.466  47.025  0.00  0.00     0.030 H 
ENDBRANCH  19  25
ENDBRANCH  16  19
ENDBRANCH  13  15
BRANCH  13  29
ATOM     29  CB  GLU d   1      71.193 -12.672  48.826  0.00  0.00    -0.029 C 
ATOM     30  H   GLU d   1      72.226 -12.602  48.485  0.00  0.00     0.037 H 
ATOM     31  H   GLU d   1      70.743 -13.662  48.753  0.00  0.00     0.037 H 
BRANCH  29  32
ATOM     32  CG  GLU d   1      71.197 -12.308  50.285  0.00  0.00     0.018 C 
ATOM     33  H   GLU d   1      70.174 -12.092  50.594  0.00  0.00     0.049 H 
ATOM     34  H   GLU d   1      71.840 -11.440  50.426  0.00  0.00     0.049 H 
BRANCH  32  35
ATOM     35  CD  GLU d   1      71.730 -13.451  51.132  0.00  0.00     0.172 C 
ATOM     36  OE1 GLU d   1      72.035 -14.530  50.557  0.00  0.00    -0.648 OA
ATOM     37  OE2 GLU d   1      71.827 -13.272  52.368  0.00  0.00    -0.648 OA
ENDBRANCH  32  35
ENDBRANCH  29  32
ENDBRANCH  13  29
ENDBRANCH  10  13
ENDBRANCH   7   9
BRANCH   7  38
ATOM     38  CB  PHE d   1      73.765 -10.143  44.943  0.00  0.00    -0.014 C 
ATOM     39  H   PHE d   1      74.471 -10.248  45.767  0.00  0.00     0.043 H 
ATOM     40  H   PHE d   1      73.187  -9.219  44.969  0.00  0.00     0.043 H 
BRANCH  38  41
ATOM     41  CG  PHE d   1      74.556 -10.133  43.683  0.00  0.00    -0.056 A 
ATOM     42  CD1 PHE d   1      74.080  -9.491  42.559  0.00  0.00    -0.077 A 
ATOM     43  CE1 PHE d   1      74.814  -9.482  41.398  0.00  0.00    -0.082 A 
ATOM     44  H   PHE d   1      73.114  -8.987  42.592  0.00  0.00     0.084 H 
ATOM     45  CZ  PHE d   1      76.031 -10.117  41.352  0.00  0.00    -0.083 A 
ATOM     46  H   PHE d   1      74.431  -8.972  40.514  0.00  0.00     0.083 H 
ATOM     47  CE2 PHE d   1      76.517 -10.758  42.469  0.00  0.00    -0.082 A 
ATOM     48  H   PHE d   1      76.612 -10.113  40.430  0.00  0.00     0.083 H 
ATOM     49  CD2 PHE d   1      75.784 -10.762  43.623  0.00  0.00    -0.077 A 
ATOM     50  H   PHE d   1      77.483 -11.261  42.434  0.00  0.00     0.083 H 
ATOM     51  H   PHE d   1      76.174 -11.268  44.507  0.00  0.00     0.084 H 
ENDBRANCH  38  41
ENDBRANCH   7  38
ENDBRANCH   4   7
ENDBRANCH   1   3
BRANCH   1  52
ATOM     52  C   ARG d   1      75.689 -14.550  44.017  0.00  0.00     0.241 C 
ATOM     53  O   ARG d   1      76.289 -13.847  43.213  0.00  0.00    -0.271 OA
ATOM     54  N   HIS d   1      76.310 -15.228  44.976  0.00  0.00    -0.346 N 
ATOM     55  H   HIS d   1      75.764 -15.802  45.619  0.00  0.00     0.163 HD
BRANCH  54  56
ATOM     56  CA  HIS d   1      77.759 -15.165  45.124  0.00  0.00     0.094 C 
ATOM     57  H   HIS d   1      78.119 -14.538  44.308  0.00  0.00     0.088 H 
BRANCH  56  58
ATOM     58  C   HIS d   1      78.446 -16.521  44.960  0.00  0.00     0.241 C 
ATOM     59  O   HIS d   1      79.669 -16.604  44.928  0.00  0.00    -0.271 OA
ATOM     60  N   ASP d   1      77.661 -17.589  44.865  0.00  0.00    -0.344 N 
ATOM     61  H   ASP d   1      76.659 -17.487  45.029  0.00  0.00     0.163 HD
BRANCH  60  62
ATOM     62  CA  ASP d   1      78.201 -18.915  44.529  0.00  0.00     0.105 C 
ATOM     63  H   ASP d   1      78.897 -18.719  43.714  0.00  0.00     0.090 H 
BRANCH  62  64
ATOM     64  C   ASP d   1      77.154 -19.897  43.989  0.00  0.00     0.197 C 
ATOM     65  O   ASP d   1      76.208 -19.505  43.291  0.00  0.00    -0.646 OA
ATOM     66  OXT ASP d   1      77.245 -21.111  44.223  0.00  0.00    -0.646 OA
ENDBRANCH  62  64
BRANCH  62  67
ATOM     67  CB  ASP d   1      78.988 -19.549  45.687  0.00  0.00     0.044 C 
ATOM     68  H   ASP d   1      80.043 -19.538  45.412  0.00  0.00     0.053 H 
ATOM     69  H   ASP d   1      78.592 -20.552  45.843  0.00  0.00     0.053 H 
BRANCH  67  70
ATOM     70  CG  ASP d   1      78.848 -18.792  46.997  0.00  0.00     0.175 C 
ATOM     71  OD1 ASP d   1      77.698 -18.468  47.411  0.00  0.00    -0.648 OA
ATOM     72  OD2 ASP d   1      79.909 -18.545  47.621  0.00  0.00    -0.648 OA
ENDBRANCH  67  70
ENDBRANCH  62  67
ENDBRANCH  60  62
ENDBRANCH  56  58
BRANCH  56  73
ATOM     73  CB  HIS d   1      78.146 -14.519  46.458  0.00  0.00     0.004 C 
ATOM     74  H   HIS d   1      79.175 -14.807  46.672  0.00  0.00     0.046 H 
ATOM     75  H   HIS d   1      77.429 -14.861  47.205  0.00  0.00     0.046 H 
BRANCH  73  76
ATOM     76  CG  HIS d   1      78.095 -13.021  46.442  0.00  0.00     0.053 A 
ATOM     77  ND1 HIS d   1      79.017 -12.251  45.768  0.00  0.00    -0.247 NA
ATOM     78  CE1 HIS d   1      78.729 -10.973  45.930  0.00  0.00     0.064 A 
ATOM     79  NE2 HIS d   1      77.652 -10.885  46.685  0.00  0.00    -0.359 N 
ATOM     80  H   HIS d   1      79.286 -10.135  45.511  0.00  0.00     0.143 H 
ATOM     81  CD2 HIS d   1      77.237 -12.150  47.021  0.00  0.00     0.002 A 
ATOM     82  H   HIS d   1      77.200 -10.017  46.973  0.00  0.00     0.166 HD
ATOM     83  H   HIS d   1      76.376 -12.405  47.639  0.00  0.00     0.114 H 
ENDBRANCH  73  76
ENDBRANCH  56  73
ENDBRANCH  54  56
ENDBRANCH   1  52
BRANCH   1  84
ATOM     84  CB  ARG d   1      73.742 -15.477  42.729  0.00  0.00    -0.036 C 
ATOM     85  H   ARG d   1      73.894 -14.835  41.862  0.00  0.00     0.036 H 
ATOM     86  H   ARG d   1      72.708 -15.783  42.886  0.00  0.00     0.036 H 
BRANCH  84  87
ATOM     87  CG  ARG d   1      74.543 -16.730  42.497  0.00  0.00    -0.048 C 
ATOM     88  H   ARG d   1      74.513 -17.346  43.396  0.00  0.00     0.035 H 
ATOM     89  H   ARG d   1      75.573 -16.459  42.264  0.00  0.00     0.035 H 
BRANCH  87  90
ATOM     90  CD  ARG d   1      73.964 -17.505  41.347  0.00  0.00     0.009 C 
ATOM     91  H   ARG d   1      73.829 -16.809  40.519  0.00  0.00     0.064 H 
ATOM     92  H   ARG d   1      73.034 -17.957  41.692  0.00  0.00     0.064 H 
BRANCH  90  93
ATOM     93  NE  ARG d   1      74.828 -18.584  40.877  0.00  0.00    -0.227 N 
ATOM     94  CZ  ARG d   1      75.277 -18.685  39.628  0.00  0.00     0.665 C 
ATOM     95  NH1 ARG d   1      74.944 -17.770  38.724  0.00  0.00    -0.235 N 
ATOM     96  NH2 ARG d   1      76.050 -19.701  39.279  0.00  0.00    -0.235 N 
ATOM     97  H   ARG d   1      74.343 -16.989  38.987  0.00  0.00     0.174 HD
ATOM     98  H   ARG d   1      75.289 -17.849  37.767  0.00  0.00     0.174 HD
ATOM     99  H   ARG d   1      76.303 -20.409  39.968  0.00  0.00     0.174 HD
ATOM    100  H   ARG d   1      76.392 -19.776  38.321  0.00  0.00     0.174 HD
ATOM    101  H   ARG d   1      75.104 -19.303  41.545  0.00  0.00     0.177 HD
ENDBRANCH  90  93
ENDBRANCH  87  90
ENDBRANCH  84  87
ENDBRANCH   1  84
TORSDOF 26
