REMARK  4 active torsions:
REMARK  status: ('A' for Active; 'I' for Inactive)
REMARK    1  A    between atoms: C4_6  and  C42_12 
REMARK    2  A    between atoms: C7_9  and  O7_10 
REMARK    3  A    between atoms: C42_12  and  C41_11 
REMARK    4  A    between atoms: C42_12  and  C43_13 
ROOT
ATOM      1  C1  JTH d   1      11.380  19.483  12.682  0.00  0.00     0.217 A 
ATOM      2  O1  JTH d   1      10.800  18.882  11.717  0.00  0.00    -0.287 OA
ATOM      3  C2  JTH d   1      10.846  20.852  13.020  0.00  0.00     0.156 A 
ATOM      4  O2  JTH d   1       9.856  21.160  12.217  0.00  0.00    -0.188 OA
ATOM      5  C3  JTH d   1      11.199  21.752  13.961  0.00  0.00    -0.037 A 
ATOM      6  C4  JTH d   1      12.227  21.760  14.999  0.00  0.00    -0.052 A 
ATOM      7  C5  JTH d   1      13.118  20.728  15.236  0.00  0.00    -0.077 A 
ATOM      8  C6  JTH d   1      13.239  19.425  14.528  0.00  0.00    -0.068 A 
ATOM      9  C7  JTH d   1      12.544  18.857  13.461  0.00  0.00     0.116 A 
ATOM     10  H   JTH d   1      10.594  22.658  13.943  0.00  0.00     0.088 H 
ATOM     11  H   JTH d   1      13.825  20.891  16.049  0.00  0.00     0.084 H 
ATOM     12  H   JTH d   1      14.029  18.787  14.922  0.00  0.00     0.081 H 
ATOM     13  H   JTH d   1      12.689  19.681  14.160  0.00  0.00     0.102 H 
ENDROOT
BRANCH   6  14
ATOM     14  C42 JTH d   1      12.230  23.063  15.847  0.00  0.00    -0.035 C 
ATOM     15  H   JTH d   1      13.143  22.997  16.439  0.00  0.00     0.046 H 
BRANCH  14  16
ATOM     16  C41 JTH d   1      12.309  24.403  15.000  0.00  0.00    -0.069 C 
ATOM     17  H   JTH d   1      11.410  24.500  14.392  0.00  0.00     0.028 H 
ATOM     18  H   JTH d   1      12.386  25.255  15.676  0.00  0.00     0.028 H 
ATOM     19  H   JTH d   1      13.185  24.371  14.352  0.00  0.00     0.028 H 
ENDBRANCH  14  16
BRANCH  14  20
ATOM     20  C43 JTH d   1      10.947  23.141  16.777  0.00  0.00    -0.069 C 
ATOM     21  H   JTH d   1      11.033  24.001  17.441  0.00  0.00     0.028 H 
ATOM     22  H   JTH d   1      10.056  23.247  16.157  0.00  0.00     0.028 H 
ATOM     23  H   JTH d   1      10.873  22.229  17.369  0.00  0.00     0.028 H 
ENDBRANCH  14  20
ENDBRANCH   6  14
BRANCH   9  24
ATOM     24  O7  JTH d   1      12.878  17.611  12.999  0.00  0.00    -0.384 OA
ATOM     25  H   JTH d   1      12.302  17.377  12.267  0.00  0.00     0.211 HD
ENDBRANCH   9  24
TORSDOF 4
