REMARK  15 active torsions:
REMARK  status: ('A' for Active; 'I' for Inactive)
REMARK    1  A    between atoms: C2_2  and  N1_1 
REMARK    2  A    between atoms: C7_7  and  C2_2 
REMARK    3  A    between atoms: C3_3  and  C9_9 
REMARK    4  A    between atoms: C11_11  and  O15_15 
REMARK    5  A    between atoms: O15_15  and  C17_17 
REMARK    6  A    between atoms: C19_19  and  N23_23 
REMARK    7  A    between atoms: C21_21  and  O25_25 
REMARK    8  A    between atoms: O25_25  and  C26_26 
REMARK    9  A    between atoms: C28_28  and  N29_29 
REMARK   10  A    between atoms: N29_29  and  C36_36 
REMARK   11  A    between atoms: N29_29  and  C37_37 
REMARK   12  A    between atoms: C32_32  and  C33_33 
REMARK   13  A    between atoms: C39_39  and  N42_42 
REMARK   14  A    between atoms: N42_42  and  C43_43 
REMARK   15  A    between atoms: N42_42  and  C44_44 
ROOT
ATOM      1  N16 438 d   1      19.380  -3.996   4.040  0.00  0.00    -0.194 NA
ATOM      2  C17 438 d   1      19.034  -2.873   4.730  0.00  0.00     0.214 A 
ATOM      3  C18 438 d   1      19.972  -1.820   4.878  0.00  0.00     0.199 A 
ATOM      4  C19 438 d   1      21.280  -1.943   4.302  0.00  0.00     0.117 A 
ATOM      5  C20 438 d   1      21.587  -3.151   3.587  0.00  0.00     0.199 A 
ATOM      6  C21 438 d   1      20.618  -4.156   3.467  0.00  0.00     0.214 A 
ATOM      7  F22 438 d   1      19.591  -0.702   5.518  0.00  0.00    -0.199 F 
ATOM      8  F24 438 d   1      22.783  -3.339   2.998  0.00  0.00    -0.199 F 
ENDROOT
BRANCH   2   9
ATOM      9  O15 438 d   1      17.735  -2.736   5.212  0.00  0.00    -0.289 OA
BRANCH   9  10
ATOM     10  C11 438 d   1      16.881  -1.923   4.454  0.00  0.00     0.078 A 
ATOM     11  C10 438 d   1      17.031  -1.750   3.028  0.00  0.00    -0.040 A 
ATOM     12  C9  438 d   1      16.203  -0.828   2.306  0.00  0.00    -0.023 A 
ATOM     13  H10 438 d   1      17.780  -2.325   2.496  0.00  0.00     0.089 H 
ATOM     14  C14 438 d   1      15.213  -0.088   3.037  0.00  0.00    -0.072 A 
ATOM     15  C13 438 d   1      15.056  -0.264   4.439  0.00  0.00    -0.080 A 
ATOM     16  H13 438 d   1      14.576   0.615   2.512  0.00  0.00     0.084 H 
ATOM     17  C12 438 d   1      15.885  -1.176   5.143  0.00  0.00    -0.050 A 
ATOM     18  H12 438 d   1      14.300   0.301   4.973  0.00  0.00     0.083 H 
ATOM     19  H11 438 d   1      15.759  -1.304   6.212  0.00  0.00     0.087 H 
BRANCH  12  20
ATOM     20  C3  438 d   1      16.348  -0.664   0.886  0.00  0.00    -0.025 A 
ATOM     21  C4  438 d   1      16.736  -1.767   0.051  0.00  0.00    -0.072 A 
ATOM     22  C5  438 d   1      16.900  -1.595  -1.352  0.00  0.00    -0.082 A 
ATOM     23  H6  438 d   1      16.906  -2.741   0.495  0.00  0.00     0.084 H 
ATOM     24  C6  438 d   1      16.682  -0.322  -1.945  0.00  0.00    -0.075 A 
ATOM     25  H7  438 d   1      17.192  -2.437  -1.970  0.00  0.00     0.083 H 
ATOM     26  C7  438 d   1      16.301   0.782  -1.137  0.00  0.00    -0.032 A 
ATOM     27  H8  438 d   1      16.806  -0.194  -3.014  0.00  0.00     0.084 H 
ATOM     28  C8  438 d   1      16.135   0.615   0.270  0.00  0.00    -0.065 A 
ATOM     29  H9  438 d   1      15.845   1.463   0.880  0.00  0.00     0.085 H 
BRANCH  26  30
ATOM     30  C2  438 d   1      16.080   2.157  -1.779  0.00  0.00     0.103 C 
ATOM     31  H4  438 d   1      16.698   2.906  -1.262  0.00  0.00     0.082 H 
ATOM     32  H5  438 d   1      16.365   2.115  -2.841  0.00  0.00     0.082 H 
BRANCH  30  33
ATOM     33  N1  438 d   1      14.663   2.531  -1.667  0.00  0.00    -0.075 N 
ATOM     34  H1  438 d   1      14.520   3.435  -2.090  0.00  0.00     0.274 HD
ATOM     35  H2  438 d   1      14.402   2.570  -0.694  0.00  0.00     0.274 HD
ATOM     36  H3  438 d   1      14.096   1.845  -2.140  0.00  0.00     0.274 HD
ENDBRANCH  30  33
ENDBRANCH  26  30
ENDBRANCH  12  20
ENDBRANCH   9  10
ENDBRANCH   2   9
BRANCH   6  37
ATOM     37  O25 438 d   1      20.901  -5.243   2.663  0.00  0.00    -0.288 OA
BRANCH  37  38
ATOM     38  C26 438 d   1      20.053  -6.331   2.749  0.00  0.00     0.097 A 
ATOM     39  C27 438 d   1      20.491  -7.498   3.431  0.00  0.00    -0.024 A 
ATOM     40  C28 438 d   1      19.714  -8.703   3.406  0.00  0.00     0.032 A 
ATOM     41  H14 438 d   1      21.426  -7.477   3.978  0.00  0.00     0.091 H 
ATOM     42  C30 438 d   1      18.467  -8.693   2.689  0.00  0.00    -0.056 A 
ATOM     43  C31 438 d   1      18.023  -7.535   2.012  0.00  0.00    -0.061 A 
ATOM     44  H15 438 d   1      17.858  -9.589   2.668  0.00  0.00     0.086 H 
ATOM     45  C32 438 d   1      18.803  -6.350   2.024  0.00  0.00     0.074 A 
ATOM     46  H16 438 d   1      17.079  -7.552   1.479  0.00  0.00     0.085 H 
BRANCH  40  47
ATOM     47  N29 438 d   1      20.170  -9.859   4.021  0.00  0.00    -0.389 N 
BRANCH  47  48
ATOM     48  C36 438 d   1      19.386 -11.122   3.979  0.00  0.00    -0.019 C 
ATOM     49  H17 438 d   1      19.927 -11.908   4.526  0.00  0.00     0.056 H 
ATOM     50  H18 438 d   1      19.247 -11.433   2.933  0.00  0.00     0.056 H 
ATOM     51  H19 438 d   1      18.404 -10.960   4.447  0.00  0.00     0.056 H 
ENDBRANCH  47  48
BRANCH  47  52
ATOM     52  C37 438 d   1      21.494  -9.911   4.695  0.00  0.00    -0.019 C 
ATOM     53  H20 438 d   1      21.965  -8.918   4.655  0.00  0.00     0.056 H 
ATOM     54  H21 438 d   1      22.137 -10.642   4.184  0.00  0.00     0.056 H 
ATOM     55  H22 438 d   1      21.360 -10.211   5.745  0.00  0.00     0.056 H 
ENDBRANCH  47  52
ENDBRANCH  40  47
BRANCH  45  56
ATOM     56  C33 438 d   1      18.329  -5.123   1.196  0.00  0.00     0.212 C 
ATOM     57  O34 438 d   1      17.117  -5.053   0.879  0.00  0.00    -0.644 OA
ATOM     58  O35 438 d   1      19.185  -4.272   0.855  0.00  0.00    -0.644 OA
ENDBRANCH  45  56
ENDBRANCH  37  38
ENDBRANCH   6  37
BRANCH   4  59
ATOM     59  N23 438 d   1      22.195  -0.910   4.366  0.00  0.00    -0.374 N 
ATOM     60  C38 438 d   1      23.227  -0.611   3.329  0.00  0.00     0.022 C 
ATOM     61  C39 438 d   1      23.952   0.638   3.886  0.00  0.00     0.119 C 
ATOM     62  H23 438 d   1      22.757  -0.392   2.359  0.00  0.00     0.067 H 
ATOM     63  H24 438 d   1      23.926  -1.453   3.216  0.00  0.00     0.067 H 
ATOM     64  C40 438 d   1      23.795   0.474   5.398  0.00  0.00    -0.022 C 
ATOM     65  H25 438 d   1      23.425   1.545   3.555  0.00  0.00     0.087 H 
ATOM     66  C41 438 d   1      22.324   0.085   5.478  0.00  0.00    -0.003 C 
ATOM     67  H26 438 d   1      23.997   1.414   5.933  0.00  0.00     0.038 H 
ATOM     68  H27 438 d   1      24.448  -0.319   5.791  0.00  0.00     0.038 H 
ATOM     69  H28 438 d   1      22.085  -0.371   6.450  0.00  0.00     0.064 H 
ATOM     70  H29 438 d   1      21.672   0.955   5.311  0.00  0.00     0.064 H 
BRANCH  61  71
ATOM     71  N42 438 d   1      25.403   0.768   3.445  0.00  0.00    -0.073 N 
ATOM     72  H30 438 d   1      25.782   1.567   3.928  0.00  0.00     0.279 HD
BRANCH  71  73
ATOM     73  C43 438 d   1      26.263  -0.410   3.787  0.00  0.00     0.066 C 
ATOM     74  H31 438 d   1      27.289  -0.230   3.433  0.00  0.00     0.068 H 
ATOM     75  H32 438 d   1      25.860  -1.311   3.302  0.00  0.00     0.068 H 
ATOM     76  H33 438 d   1      26.271  -0.554   4.878  0.00  0.00     0.068 H 
ENDBRANCH  71  73
BRANCH  71  77
ATOM     77  C44 438 d   1      25.515   1.022   1.988  0.00  0.00     0.066 C 
ATOM     78  H34 438 d   1      24.889   1.885   1.717  0.00  0.00     0.068 H 
ATOM     79  H35 438 d   1      25.175   0.135   1.434  0.00  0.00     0.068 H 
ATOM     80  H36 438 d   1      26.564   1.235   1.732  0.00  0.00     0.068 H 
ENDBRANCH  71  77
ENDBRANCH  61  71
ENDBRANCH   4  59
TORSDOF 15
