REMARK  3 active torsions:
REMARK  status: ('A' for Active; 'I' for Inactive)
REMARK    1  A    between atoms: C4_7  and  C7_11 
REMARK    2  A    between atoms: C12_16  and  N4_8 
REMARK    3  A    between atoms: C7_11  and  C13_17 
ROOT
ATOM      1  N1  454 d   1      14.176  -6.100  18.639  0.00  0.00    -0.273 NA
ATOM      2  N2  454 d   1      15.364  -5.308  16.713  0.00  0.00    -0.168 N 
ATOM      3  N3  454 d   1      14.841  -6.816  15.137  0.00  0.00    -0.201 N 
ATOM      4  C7  454 d   1      14.243  -7.339  16.447  0.00  0.00     0.163 C 
ATOM      5  C8  454 d   1      14.670  -6.229  17.451  0.00  0.00     0.155 C 
ATOM      6  C9  454 d   1      14.539  -4.850  19.342  0.00  0.00     0.018 C 
ATOM      7  C10 454 d   1      15.813  -4.193  18.783  0.00  0.00    -0.032 C 
ATOM      8  C11 454 d   1      15.660  -4.006  17.278  0.00  0.00     0.020 C 
ATOM      9  C12 454 d   1      15.533  -5.740  15.424  0.00  0.00     0.676 C 
ATOM     10  H4  454 d   1      14.721  -7.233  14.203  0.00  0.00     0.179 HD
ATOM     11  H9  454 d   1      14.701  -5.080  20.405  0.00  0.00     0.067 H 
ATOM     12  H10 454 d   1      13.706  -4.138  19.244  0.00  0.00     0.067 H 
ATOM     13  H11 454 d   1      16.680  -4.838  18.988  0.00  0.00     0.037 H 
ATOM     14  H12 454 d   1      15.963  -3.214  19.262  0.00  0.00     0.037 H 
ATOM     15  H13 454 d   1      14.837  -3.307  17.067  0.00  0.00     0.066 H 
ATOM     16  H14 454 d   1      16.594  -3.613  16.850  0.00  0.00     0.066 H 
ENDROOT
BRANCH   4  17
ATOM     17  C4  454 d   1      12.717  -7.455  16.286  0.00  0.00    -0.017 A 
ATOM     18  C3  454 d   1      12.027  -8.466  16.991  0.00  0.00    -0.074 A 
ATOM     19  C2  454 d   1      10.640  -8.609  16.885  0.00  0.00    -0.082 A 
ATOM     20  H3  454 d   1      12.584  -9.145  17.627  0.00  0.00     0.084 H 
ATOM     21  C1  454 d   1       9.910  -7.744  16.074  0.00  0.00    -0.083 A 
ATOM     22  H2  454 d   1      10.133  -9.394  17.434  0.00  0.00     0.083 H 
ATOM     23  C6  454 d   1      10.572  -6.742  15.372  0.00  0.00    -0.082 A 
ATOM     24  H1  454 d   1       8.835  -7.851  15.990  0.00  0.00     0.083 H 
ATOM     25  C5  454 d   1      11.957  -6.595  15.475  0.00  0.00    -0.074 A 
ATOM     26  H8  454 d   1      10.007  -6.068  14.738  0.00  0.00     0.083 H 
ATOM     27  H7  454 d   1      12.453  -5.806  14.921  0.00  0.00     0.084 H 
ENDBRANCH   4  17
BRANCH   4  28
ATOM     28  C13 454 d   1      14.928  -8.675  16.779  0.00  0.00    -0.017 A 
ATOM     29  C14 454 d   1      14.862  -9.742  15.868  0.00  0.00    -0.074 A 
ATOM     30  C15 454 d   1      15.477 -10.965  16.136  0.00  0.00    -0.082 A 
ATOM     31  H15 454 d   1      14.322  -9.612  14.937  0.00  0.00     0.084 H 
ATOM     32  C16 454 d   1      16.165 -11.141  17.331  0.00  0.00    -0.083 A 
ATOM     33  H16 454 d   1      15.419 -11.774  15.416  0.00  0.00     0.083 H 
ATOM     34  C17 454 d   1      16.247 -10.095  18.244  0.00  0.00    -0.082 A 
ATOM     35  H17 454 d   1      16.637 -12.092  17.551  0.00  0.00     0.083 H 
ATOM     36  C18 454 d   1      15.630  -8.872  17.973  0.00  0.00    -0.074 A 
ATOM     37  H18 454 d   1      16.793 -10.230  19.171  0.00  0.00     0.083 H 
ATOM     38  H19 454 d   1      15.696  -8.067  18.695  0.00  0.00     0.084 H 
ENDBRANCH   4  28
BRANCH   9  39
ATOM     39  N4  454 d   1      16.362  -5.082  14.568  0.00  0.00    -0.234 N 
ATOM     40  H5  454 d   1      16.867  -4.241  14.884  0.00  0.00     0.174 HD
ATOM     41  H6  454 d   1      16.485  -5.425  13.604  0.00  0.00     0.174 HD
ENDBRANCH   9  39
TORSDOF 3
