REMARK  7 active torsions:
REMARK  status: ('A' for Active; 'I' for Inactive)
REMARK    1  A    between atoms: N1_2  and  C1_1 
REMARK    2  A    between atoms: C7_13  and  O1_3 
REMARK    3  A    between atoms: N3_8  and  C6_12 
REMARK       I    between atoms: C8_14  and  N3_8 
REMARK    4  A    between atoms: C15_21  and  O3_9 
REMARK    5  A    between atoms: O3_9  and  C16_22 
REMARK    6  A    between atoms: C9_15  and  C8_14 
REMARK    7  A    between atoms: C10_16  and  C9_15 
ROOT
ATOM      1  O2  EFQ d   1       2.433  28.299   8.535  0.00  0.00    -0.273 OA
ATOM      2  N3  EFQ d   1       2.996  30.058   7.175  0.00  0.00    -0.310 N 
ATOM      3  C8  EFQ d   1       3.229  28.895   7.815  0.00  0.00     0.227 C 
ATOM      4  H5  EFQ d   1       3.651  30.385   6.494  0.00  0.00     0.170 HD
ENDROOT
BRANCH   2   5
ATOM      5  C6  EFQ d   1       1.795  30.852   7.463  0.00  0.00     0.147 A 
ATOM      6  C2  EFQ d   1       0.621  30.510   8.167  0.00  0.00     0.025 A 
ATOM      7  N1  EFQ d   1      -0.160  31.610   8.141  0.00  0.00    -0.343 N 
ATOM      8  H3  EFQ d   1       0.392  29.554   8.636  0.00  0.00     0.117 H 
ATOM      9  C3  EFQ d   1       0.501  32.574   7.475  0.00  0.00     0.068 A 
ATOM     10  N2  EFQ d   1       1.681  32.137   7.049  0.00  0.00    -0.225 NA
ATOM     11  H4  EFQ d   1       0.119  33.580   7.307  0.00  0.00     0.143 H 
BRANCH   7  12
ATOM     12  C1  EFQ d   1      -1.453  31.892   8.689  0.00  0.00     0.022 C 
ATOM     13  C4  EFQ d   1      -2.483  30.735   8.741  0.00  0.00    -0.022 C 
ATOM     14  C7  EFQ d   1      -2.916  31.277  10.123  0.00  0.00     0.039 C 
ATOM     15  H6  EFQ d   1      -2.042  29.728   8.761  0.00  0.00     0.039 H 
ATOM     16  H7  EFQ d   1      -3.262  30.779   7.966  0.00  0.00     0.039 H 
ATOM     17  C5  EFQ d   1      -1.459  31.827  10.265  0.00  0.00    -0.022 C 
ATOM     18  H10 EFQ d   1      -3.724  32.023  10.093  0.00  0.00     0.083 H 
ATOM     19  H8  EFQ d   1      -1.377  32.800  10.771  0.00  0.00     0.039 H 
ATOM     20  H9  EFQ d   1      -0.737  31.123  10.704  0.00  0.00     0.039 H 
ATOM     21  H1  EFQ d   1      -1.841  32.823   8.250  0.00  0.00     0.073 H 
BRANCH  14  22
ATOM     22  O1  EFQ d   1      -3.160  30.313  11.149  0.00  0.00    -0.395 OA
ATOM     23  H2  EFQ d   1      -3.418  30.760  11.947  0.00  0.00     0.210 HD
ENDBRANCH  14  22
ENDBRANCH   7  12
ENDBRANCH   2   5
BRANCH   3  24
ATOM     24  C9  EFQ d   1       4.633  28.398   7.570  0.00  0.00     0.033 C 
ATOM     25  H11 EFQ d   1       5.007  27.879   8.465  0.00  0.00     0.054 H 
ATOM     26  H12 EFQ d   1       5.293  29.246   7.335  0.00  0.00     0.054 H 
BRANCH  24  27
ATOM     27  C10 EFQ d   1       4.595  27.450   6.414  0.00  0.00    -0.049 A 
ATOM     28  C11 EFQ d   1       4.385  26.102   6.627  0.00  0.00    -0.074 A 
ATOM     29  C13 EFQ d   1       4.369  25.189   5.589  0.00  0.00    -0.050 A 
ATOM     30  H13 EFQ d   1       4.228  25.749   7.640  0.00  0.00     0.084 H 
ATOM     31  C15 EFQ d   1       4.526  25.638   4.289  0.00  0.00     0.068 A 
ATOM     32  H15 EFQ d   1       4.235  24.133   5.791  0.00  0.00     0.087 H 
ATOM     33  C14 EFQ d   1       4.762  26.993   4.072  0.00  0.00    -0.050 A 
ATOM     34  C12 EFQ d   1       4.777  27.914   5.107  0.00  0.00    -0.074 A 
ATOM     35  H16 EFQ d   1       4.940  27.339   3.060  0.00  0.00     0.087 H 
ATOM     36  H14 EFQ d   1       4.926  28.969   4.909  0.00  0.00     0.084 H 
BRANCH  31  37
ATOM     37  O3  EFQ d   1       4.481  24.673   3.272  0.00  0.00    -0.356 OA
BRANCH  37  38
ATOM     38  C16 EFQ d   1       5.658  24.740   2.461  0.00  0.00     0.010 C 
ATOM     39  H17 EFQ d   1       5.603  23.977   1.671  0.00  0.00     0.066 H 
ATOM     40  H18 EFQ d   1       6.545  24.558   3.086  0.00  0.00     0.066 H 
ATOM     41  H19 EFQ d   1       5.731  25.737   2.003  0.00  0.00     0.066 H 
ENDBRANCH  37  38
ENDBRANCH  31  37
ENDBRANCH  24  27
ENDBRANCH   3  24
TORSDOF 7
