REMARK  9 active torsions:
REMARK  status: ('A' for Active; 'I' for Inactive)
REMARK    1  A    between atoms: S35_2  and  C20_4 
REMARK    2  A    between atoms: S35_2  and  N26_5 
REMARK    3  A    between atoms: N26_5  and  C10_6 
REMARK    4  A    between atoms: C15_17  and  C13_18 
REMARK    5  A    between atoms: C14_19  and  O32_20 
REMARK    6  A    between atoms: C18_22  and  C22_23 
REMARK    7  A    between atoms: C22_23  and  C19_24 
REMARK    8  A    between atoms: N25_27  and  C21_28 
REMARK    9  A    between atoms: C21_28  and  C8_29 
ROOT
ATOM      1  C13 B80 d   1      95.998   8.486  54.492  0.00  0.00     0.107 C 
ATOM      2  C14 B80 d   1      96.256   7.504  53.615  0.00  0.00     0.064 C 
ATOM      3  C17 B80 d   1      95.968   7.690  52.141  0.00  0.00    -0.001 C 
ATOM      4  C18 B80 d   1      96.207   9.130  51.676  0.00  0.00     0.020 C 
ATOM      5  C16 B80 d   1      95.563   9.802  53.987  0.00  0.00     0.260 C 
ATOM      6  O27 B80 d   1      95.196  10.676  54.759  0.00  0.00    -0.267 OA
ATOM      7  N25 B80 d   1      95.564  10.019  52.662  0.00  0.00    -0.339 N 
ATOM      8  H10 B80 d   1      94.917   7.427  51.951  0.00  0.00     0.046 H 
ATOM      9  H11 B80 d   1      96.624   7.020  51.566  0.00  0.00     0.046 H 
ATOM     10  H12 B80 d   1      95.770   9.283  50.678  0.00  0.00     0.073 H 
ENDROOT
BRANCH   1  11
ATOM     11  C15 B80 d   1      96.143   8.250  55.979  0.00  0.00     0.159 C 
ATOM     12  N23 B80 d   1      95.485   9.069  56.844  0.00  0.00    -0.338 N 
ATOM     13  C9  B80 d   1      95.717   9.120  58.177  0.00  0.00     0.057 A 
ATOM     14  H8  B80 d   1      94.761   9.692  56.459  0.00  0.00     0.167 HD
ATOM     15  C3  B80 d   1      95.219  10.206  58.894  0.00  0.00    -0.053 A 
ATOM     16  C12 B80 d   1      96.427   8.109  58.835  0.00  0.00     0.110 A 
ATOM     17  C4  B80 d   1      95.433  10.298  60.267  0.00  0.00    -0.054 A 
ATOM     18  H6  B80 d   1      94.663  10.982  58.381  0.00  0.00     0.087 H 
ATOM     19  C10 B80 d   1      96.138   9.304  60.944  0.00  0.00     0.043 A 
ATOM     20  H5  B80 d   1      95.048  11.151  60.815  0.00  0.00     0.087 H 
ATOM     21  C7  B80 d   1      96.637   8.210  60.217  0.00  0.00    -0.032 A 
ATOM     22  H7  B80 d   1      97.192   7.434  60.732  0.00  0.00     0.089 H 
ATOM     23  S34 B80 d   1      96.986   6.861  57.990  0.00  0.00     0.287 S 
ATOM     24  O28 B80 d   1      98.388   6.572  58.347  0.00  0.00    -0.198 OA
ATOM     25  O29 B80 d   1      96.170   5.667  58.264  0.00  0.00    -0.198 OA
ATOM     26  N24 B80 d   1      96.913   7.227  56.432  0.00  0.00    -0.141 NA
BRANCH  19  27
ATOM     27  N26 B80 d   1      96.310   9.462  62.294  0.00  0.00    -0.285 N 
ATOM     28  H4  B80 d   1      96.202  10.389  62.652  0.00  0.00     0.178 HD
BRANCH  27  29
ATOM     29  S35 B80 d   1      96.650   8.369  63.316  0.00  0.00     0.227 S 
ATOM     30  O31 B80 d   1      96.013   7.070  62.981  0.00  0.00    -0.206 OA
ATOM     31  O30 B80 d   1      96.182   8.789  64.657  0.00  0.00    -0.206 OA
BRANCH  29  32
ATOM     32  C20 B80 d   1      98.304   8.208  63.388  0.00  0.00     0.033 C 
ATOM     33  H1  B80 d   1      98.685   7.896  62.404  0.00  0.00     0.051 H 
ATOM     34  H2  B80 d   1      98.566   7.450  64.140  0.00  0.00     0.051 H 
ATOM     35  H3  B80 d   1      98.754   9.172  63.667  0.00  0.00     0.051 H 
ENDBRANCH  29  32
ENDBRANCH  27  29
ENDBRANCH  19  27
ENDBRANCH   1  11
BRANCH   2  36
ATOM     36  O32 B80 d   1      96.762   6.343  54.018  0.00  0.00    -0.364 OA
ATOM     37  H9  B80 d   1      97.602   6.493  54.437  0.00  0.00     0.217 HD
ENDBRANCH   2  36
BRANCH   7  38
ATOM     38  C21 B80 d   1      94.907  11.152  52.022  0.00  0.00     0.022 C 
ATOM     39  H18 B80 d   1      95.502  11.481  51.158  0.00  0.00     0.071 H 
ATOM     40  H19 B80 d   1      94.818  11.979  52.742  0.00  0.00     0.071 H 
BRANCH  38  41
ATOM     41  C8  B80 d   1      93.530  10.739  51.557  0.00  0.00    -0.040 A 
ATOM     42  C1  B80 d   1      93.218  10.813  50.199  0.00  0.00    -0.072 A 
ATOM     43  C5  B80 d   1      91.959  10.430  49.753  0.00  0.00    -0.045 A 
ATOM     44  H20 B80 d   1      93.958  11.169  49.492  0.00  0.00     0.084 H 
ATOM     45  C11 B80 d   1      91.016   9.973  50.673  0.00  0.00     0.116 A 
ATOM     46  H21 B80 d   1      91.712  10.486  48.699  0.00  0.00     0.088 H 
ATOM     47  C6  B80 d   1      91.327   9.898  52.030  0.00  0.00    -0.045 A 
ATOM     48  F33 B80 d   1      89.797   9.606  50.246  0.00  0.00    -0.206 F 
ATOM     49  C2  B80 d   1      92.586  10.283  52.475  0.00  0.00    -0.072 A 
ATOM     50  H23 B80 d   1      90.588   9.540  52.737  0.00  0.00     0.088 H 
ATOM     51  H22 B80 d   1      92.832  10.229  53.529  0.00  0.00     0.084 H 
ENDBRANCH  38  41
ENDBRANCH   7  38
BRANCH   4  52
ATOM     52  C22 B80 d   1      97.707   9.437  51.638  0.00  0.00    -0.049 C 
ATOM     53  H13 B80 d   1      98.218   8.825  52.396  0.00  0.00     0.035 H 
ATOM     54  H14 B80 d   1      97.861  10.503  51.863  0.00  0.00     0.035 H 
BRANCH  52  55
ATOM     55  C19 B80 d   1      98.296   9.130  50.277  0.00  0.00    -0.075 C 
ATOM     56  H15 B80 d   1      99.372   9.361  50.282  0.00  0.00     0.027 H 
ATOM     57  H16 B80 d   1      97.794   9.742  49.514  0.00  0.00     0.027 H 
ATOM     58  H17 B80 d   1      98.151   8.064  50.046  0.00  0.00     0.027 H 
ENDBRANCH  52  55
ENDBRANCH   4  52
TORSDOF 9
