REMARK  22 active torsions:
REMARK  status: ('A' for Active; 'I' for Inactive)
REMARK    1  A    between atoms: C9_8  and  O4_49 
REMARK    2  A    between atoms: C10_9  and  O6_51 
REMARK    3  A    between atoms: C11_10  and  C35_34 
REMARK    4  A    between atoms: C13_12  and  O7_52 
REMARK    5  A    between atoms: C15_14  and  O8_53 
REMARK    6  A    between atoms: C17_16  and  C36_35 
REMARK    7  A    between atoms: C19_18  and  C37_36 
REMARK    8  A    between atoms: C21_20  and  C38_37 
REMARK    9  A    between atoms: C22_21  and  O9_54 
REMARK   10  A    between atoms: C24_23  and  O10_55 
REMARK   11  A    between atoms: C25_24  and  C41_40 
REMARK   12  A    between atoms: C26_25  and  C27_26 
REMARK   13  A    between atoms: C27_26  and  C28_27 
REMARK   14  A    between atoms: C27_26  and  C42_41 
REMARK   15  A    between atoms: C28_27  and  C29_28 
REMARK   16  A    between atoms: C31_30  and  O11_56 
REMARK   17  A    between atoms: C32_31  and  O12_57 
REMARK   18  A    between atoms: C38_37  and  C39_38 
REMARK   19  A    between atoms: C39_38  and  C40_39 
REMARK   20  A    between atoms: O7_52  and  C43_42 
REMARK   21  A    between atoms: O8_53  and  C44_43 
REMARK   22  A    between atoms: O11_56  and  C45_44 
ROOT
ATOM      1  C1  FK5 d   1      -6.879  -7.967 -27.352  0.00  0.00     0.280 C 
ATOM      2  C2  FK5 d   1      -6.248  -8.156 -26.012  0.00  0.00     0.076 C 
ATOM      3  C3  FK5 d   1      -6.774  -7.078 -25.039  0.00  0.00    -0.041 C 
ATOM      4  C4  FK5 d   1      -6.132  -5.693 -25.210  0.00  0.00    -0.062 C 
ATOM      5  C5  FK5 d   1      -4.607  -5.833 -25.274  0.00  0.00    -0.050 C 
ATOM      6  C6  FK5 d   1      -4.117  -6.806 -26.357  0.00  0.00    -0.003 C 
ATOM      7  C8  FK5 d   1      -4.081  -9.208 -25.873  0.00  0.00     0.188 C 
ATOM      8  C9  FK5 d   1      -2.697  -9.312 -25.892  0.00  0.00     0.153 C 
ATOM      9  C10 FK5 d   1      -1.937  -9.560 -27.167  0.00  0.00     0.199 C 
ATOM     10  C11 FK5 d   1      -2.639 -10.532 -28.095  0.00  0.00     0.002 C 
ATOM     11  C12 FK5 d   1      -1.980 -10.462 -29.473  0.00  0.00    -0.030 C 
ATOM     12  C13 FK5 d   1      -1.915  -9.034 -30.005  0.00  0.00     0.066 C 
ATOM     13  C14 FK5 d   1      -1.148  -8.198 -28.981  0.00  0.00     0.092 C 
ATOM     14  C15 FK5 d   1      -1.001  -6.706 -29.337  0.00  0.00     0.066 C 
ATOM     15  C16 FK5 d   1      -2.265  -6.027 -29.841  0.00  0.00    -0.035 C 
ATOM     16  C17 FK5 d   1      -2.214  -4.482 -29.883  0.00  0.00    -0.052 C 
ATOM     17  C18 FK5 d   1      -1.671  -4.007 -31.234  0.00  0.00    -0.042 C 
ATOM     18  C19 FK5 d   1      -2.762  -4.101 -32.278  0.00  0.00    -0.087 C 
ATOM     19  C20 FK5 d   1      -2.781  -5.227 -33.213  0.00  0.00    -0.095 C 
ATOM     20  C21 FK5 d   1      -3.888  -5.428 -34.193  0.00  0.00    -0.013 C 
ATOM     21  C22 FK5 d   1      -4.933  -6.232 -33.503  0.00  0.00     0.044 C 
ATOM     22  C23 FK5 d   1      -6.105  -5.565 -32.841  0.00  0.00    -0.016 C 
ATOM     23  C24 FK5 d   1      -6.884  -6.483 -31.908  0.00  0.00     0.043 C 
ATOM     24  C25 FK5 d   1      -6.209  -6.746 -30.540  0.00  0.00    -0.004 C 
ATOM     25  C26 FK5 d   1      -6.966  -7.741 -29.640  0.00  0.00     0.069 C 
ATOM     26  N7  FK5 d   1      -4.788  -8.103 -26.114  0.00  0.00    -0.350 N 
ATOM     27  O1  FK5 d   1      -6.224  -7.910 -28.426  0.00  0.00    -0.337 OA
ATOM     28  O2  FK5 d   1      -8.243  -7.805 -27.376  0.00  0.00    -0.189 OA
ATOM     29  O3  FK5 d   1      -4.739 -10.343 -25.521  0.00  0.00    -0.174 OA
ATOM     30  O5  FK5 d   1      -1.854  -8.294 -27.753  0.00  0.00    -0.342 OA
ATOM     31  H1  FK5 d   1      -6.532  -9.146 -25.626  0.00  0.00     0.081 H 
ATOM     32  H2  FK5 d   1      -6.582  -7.420 -24.011  0.00  0.00     0.036 H 
ATOM     33  H3  FK5 d   1      -7.858  -6.975 -25.195  0.00  0.00     0.036 H 
ATOM     34  H4  FK5 d   1      -6.405  -5.056 -24.356  0.00  0.00     0.033 H 
ATOM     35  H5  FK5 d   1      -6.496  -5.234 -26.141  0.00  0.00     0.033 H 
ATOM     36  H6  FK5 d   1      -4.251  -6.193 -24.298  0.00  0.00     0.035 H 
ATOM     37  H7  FK5 d   1      -4.176  -4.842 -25.478  0.00  0.00     0.035 H 
ATOM     38  H8  FK5 d   1      -3.026  -6.927 -26.289  0.00  0.00     0.064 H 
ATOM     39  H9  FK5 d   1      -4.382  -6.425 -27.354  0.00  0.00     0.064 H 
ATOM     40  H10 FK5 d   1      -2.599  -8.225 -26.028  0.00  0.00     0.104 H 
ATOM     41  H11 FK5 d   1      -3.688 -10.214 -28.192  0.00  0.00     0.048 H 
ATOM     42  H12 FK5 d   1      -2.562 -11.076 -30.176  0.00  0.00     0.037 H 
ATOM     43  H13 FK5 d   1      -0.957 -10.860 -29.398  0.00  0.00     0.037 H 
ATOM     44  H14 FK5 d   1      -2.935  -8.637 -30.116  0.00  0.00     0.087 H 
ATOM     45  H15 FK5 d   1      -0.141  -8.625 -28.867  0.00  0.00     0.091 H 
ATOM     46  H16 FK5 d   1      -0.710  -6.191 -28.410  0.00  0.00     0.087 H 
ATOM     47  H17 FK5 d   1      -3.095  -6.322 -29.182  0.00  0.00     0.037 H 
ATOM     48  H18 FK5 d   1      -2.461  -6.388 -30.861  0.00  0.00     0.037 H 
ATOM     49  H19 FK5 d   1      -3.244  -4.116 -29.762  0.00  0.00     0.040 H 
ATOM     50  H20 FK5 d   1      -0.823  -4.641 -31.532  0.00  0.00     0.040 H 
ATOM     51  H21 FK5 d   1      -1.335  -2.963 -31.148  0.00  0.00     0.040 H 
ATOM     52  H22 FK5 d   1      -1.960  -5.942 -33.193  0.00  0.00     0.077 H 
ATOM     53  H23 FK5 d   1      -4.302  -4.464 -34.524  0.00  0.00     0.050 H 
ATOM     54  H24 FK5 d   1      -5.508  -6.315 -34.437  0.00  0.00     0.084 H 
ATOM     55  H25 FK5 d   1      -6.788  -5.205 -33.624  0.00  0.00     0.040 H 
ATOM     56  H26 FK5 d   1      -5.734  -4.710 -32.257  0.00  0.00     0.040 H 
ATOM     57  H27 FK5 d   1      -7.012  -7.452 -32.413  0.00  0.00     0.083 H 
ATOM     58  H28 FK5 d   1      -5.220  -7.179 -30.749  0.00  0.00     0.047 H 
ATOM     59  H29 FK5 d   1      -7.986  -7.380 -29.440  0.00  0.00     0.091 H 
ENDROOT
BRANCH  25  60
ATOM     60  C27 FK5 d   1      -6.989  -9.103 -30.287  0.00  0.00    -0.058 C 
BRANCH  60  61
ATOM     61  C28 FK5 d   1      -8.300  -9.655 -30.676  0.00  0.00    -0.095 C 
ATOM     62  H30 FK5 d   1      -9.194  -9.066 -30.475  0.00  0.00     0.077 H 
BRANCH  61  63
ATOM     63  C29 FK5 d   1      -8.457 -11.003 -31.341  0.00  0.00    -0.035 C 
ATOM     64  C30 FK5 d   1      -9.730 -11.678 -30.784  0.00  0.00    -0.032 C 
ATOM     65  C31 FK5 d   1      -9.948 -13.013 -31.459  0.00  0.00     0.063 C 
ATOM     66  H32 FK5 d   1     -10.598 -11.029 -30.972  0.00  0.00     0.037 H 
ATOM     67  H33 FK5 d   1      -9.616 -11.832 -29.701  0.00  0.00     0.037 H 
ATOM     68  C32 FK5 d   1     -10.084 -12.835 -32.970  0.00  0.00     0.060 C 
ATOM     69  H34 FK5 d   1      -9.105 -13.682 -31.231  0.00  0.00     0.087 H 
ATOM     70  C33 FK5 d   1      -8.839 -12.165 -33.525  0.00  0.00    -0.038 C 
ATOM     71  H35 FK5 d   1     -10.962 -12.209 -33.190  0.00  0.00     0.086 H 
ATOM     72  C34 FK5 d   1      -8.649 -10.803 -32.857  0.00  0.00    -0.056 C 
ATOM     73  H36 FK5 d   1      -8.950 -12.028 -34.611  0.00  0.00     0.036 H 
ATOM     74  H37 FK5 d   1      -7.962 -12.797 -33.323  0.00  0.00     0.036 H 
ATOM     75  H38 FK5 d   1      -7.761 -10.308 -33.278  0.00  0.00     0.034 H 
ATOM     76  H39 FK5 d   1      -9.537 -10.179 -33.036  0.00  0.00     0.034 H 
ATOM     77  H31 FK5 d   1      -7.573 -11.628 -31.147  0.00  0.00     0.046 H 
BRANCH  65  78
ATOM     78  O11 FK5 d   1     -11.165 -13.583 -31.006  0.00  0.00    -0.388 OA
BRANCH  78  79
ATOM     79  C45 FK5 d   1     -11.074 -13.999 -29.643  0.00  0.00     0.005 C 
ATOM     80  H68 FK5 d   1     -12.034 -14.435 -29.328  0.00  0.00     0.066 H 
ATOM     81  H69 FK5 d   1     -10.840 -13.131 -29.009  0.00  0.00     0.066 H 
ATOM     82  H70 FK5 d   1     -10.279 -14.752 -29.542  0.00  0.00     0.066 H 
ENDBRANCH  78  79
ENDBRANCH  65  78
BRANCH  68  83
ATOM     83  O12 FK5 d   1     -10.254 -14.123 -33.565  0.00  0.00    -0.393 OA
ATOM     84  H75 FK5 d   1      -9.496 -14.662 -33.372  0.00  0.00     0.210 HD
ENDBRANCH  68  83
ENDBRANCH  61  63
ENDBRANCH  60  61
BRANCH  60  85
ATOM     85  C42 FK5 d   1      -5.703  -9.877 -30.549  0.00  0.00    -0.052 C 
ATOM     86  H59 FK5 d   1      -5.944 -10.839 -31.024  0.00  0.00     0.033 H 
ATOM     87  H60 FK5 d   1      -5.184 -10.059 -29.596  0.00  0.00     0.033 H 
ATOM     88  H61 FK5 d   1      -5.052  -9.292 -31.215  0.00  0.00     0.033 H 
ENDBRANCH  60  85
ENDBRANCH  25  60
BRANCH  24  89
ATOM     89  C41 FK5 d   1      -5.999  -5.431 -29.761  0.00  0.00    -0.068 C 
ATOM     90  H56 FK5 d   1      -5.459  -4.712 -30.394  0.00  0.00     0.028 H 
ATOM     91  H57 FK5 d   1      -5.412  -5.633 -28.853  0.00  0.00     0.028 H 
ATOM     92  H58 FK5 d   1      -6.976  -5.011 -29.481  0.00  0.00     0.028 H 
ENDBRANCH  24  89
BRANCH  23  93
ATOM     93  O10 FK5 d   1      -8.149  -5.905 -31.685  0.00  0.00    -0.395 OA
ATOM     94  H74 FK5 d   1      -8.043  -5.087 -31.214  0.00  0.00     0.210 HD
ENDBRANCH  23  93
BRANCH  21  95
ATOM     95  O9  FK5 d   1      -4.767  -7.591 -33.466  0.00  0.00    -0.395 OA
ATOM     96  H73 FK5 d   1      -5.515  -8.011 -33.874  0.00  0.00     0.210 HD
ENDBRANCH  21  95
BRANCH  20  97
ATOM     97  C38 FK5 d   1      -3.317  -6.194 -35.383  0.00  0.00    -0.057 C 
ATOM     98  H49 FK5 d   1      -4.128  -6.488 -36.065  0.00  0.00     0.034 H 
ATOM     99  H50 FK5 d   1      -2.788  -7.093 -35.033  0.00  0.00     0.034 H 
BRANCH  97 100
ATOM    100  C39 FK5 d   1      -2.344  -5.264 -36.102  0.00  0.00    -0.068 C 
ATOM    101  H51 FK5 d   1      -1.333  -5.587 -35.811  0.00  0.00     0.032 H 
ATOM    102  H52 FK5 d   1      -2.533  -4.254 -35.710  0.00  0.00     0.032 H 
BRANCH 100 103
ATOM    103  C40 FK5 d   1      -2.336  -5.145 -37.574  0.00  0.00    -0.076 C 
ATOM    104  H53 FK5 d   1      -1.562  -4.426 -37.880  0.00  0.00     0.027 H 
ATOM    105  H54 FK5 d   1      -3.320  -4.794 -37.919  0.00  0.00     0.027 H 
ATOM    106  H55 FK5 d   1      -2.120  -6.127 -38.020  0.00  0.00     0.027 H 
ENDBRANCH 100 103
ENDBRANCH  97 100
ENDBRANCH  20  97
BRANCH   8 107
ATOM    107  O4  FK5 d   1      -2.023  -9.259 -24.704  0.00  0.00    -0.382 OA
ATOM    108  H71 FK5 d   1      -1.580 -10.086 -24.555  0.00  0.00     0.210 HD
ENDBRANCH   8 107
BRANCH  18 109
ATOM    109  C37 FK5 d   1      -3.813  -3.033 -32.345  0.00  0.00    -0.055 C 
ATOM    110  H46 FK5 d   1      -4.518  -3.263 -33.157  0.00  0.00     0.033 H 
ATOM    111  H47 FK5 d   1      -3.336  -2.061 -32.538  0.00  0.00     0.033 H 
ATOM    112  H48 FK5 d   1      -4.356  -2.992 -31.389  0.00  0.00     0.033 H 
ENDBRANCH  18 109
BRANCH   9 113
ATOM    113  O6  FK5 d   1      -0.640 -10.088 -26.839  0.00  0.00    -0.363 OA
ATOM    114  H72 FK5 d   1      -0.208  -9.505 -26.226  0.00  0.00     0.213 HD
ENDBRANCH   9 113
BRANCH  10 115
ATOM    115  C35 FK5 d   1      -2.635 -11.978 -27.566  0.00  0.00    -0.068 C 
ATOM    116  H40 FK5 d   1      -3.112 -12.007 -26.576  0.00  0.00     0.028 H 
ATOM    117  H41 FK5 d   1      -1.598 -12.335 -27.484  0.00  0.00     0.028 H 
ATOM    118  H42 FK5 d   1      -3.192 -12.624 -28.261  0.00  0.00     0.028 H 
ENDBRANCH  10 115
BRANCH  16 119
ATOM    119  C36 FK5 d   1      -1.347  -3.826 -28.799  0.00  0.00    -0.073 C 
ATOM    120  H43 FK5 d   1      -1.702  -4.140 -27.806  0.00  0.00     0.028 H 
ATOM    121  H44 FK5 d   1      -1.418  -2.732 -28.885  0.00  0.00     0.028 H 
ATOM    122  H45 FK5 d   1      -0.300  -4.137 -28.929  0.00  0.00     0.028 H 
ENDBRANCH  16 119
BRANCH  12 123
ATOM    123  O7  FK5 d   1      -1.264  -8.989 -31.266  0.00  0.00    -0.388 OA
BRANCH 123 124
ATOM    124  C43 FK5 d   1      -2.054  -9.571 -32.292  0.00  0.00     0.005 C 
ATOM    125  H62 FK5 d   1      -1.513  -9.515 -33.248  0.00  0.00     0.066 H 
ATOM    126  H63 FK5 d   1      -3.005  -9.025 -32.377  0.00  0.00     0.066 H 
ATOM    127  H64 FK5 d   1      -2.256 -10.624 -32.047  0.00  0.00     0.066 H 
ENDBRANCH 123 124
ENDBRANCH  12 123
BRANCH  14 128
ATOM    128  O8  FK5 d   1       0.036  -6.513 -30.283  0.00  0.00    -0.388 OA
BRANCH 128 129
ATOM    129  C44 FK5 d   1       1.310  -6.607 -29.648  0.00  0.00     0.005 C 
ATOM    130  H65 FK5 d   1       2.104  -6.455 -30.394  0.00  0.00     0.066 H 
ATOM    131  H66 FK5 d   1       1.420  -7.602 -29.193  0.00  0.00     0.066 H 
ATOM    132  H67 FK5 d   1       1.388  -5.836 -28.867  0.00  0.00     0.066 H 
ENDBRANCH 128 129
ENDBRANCH  14 128
TORSDOF 22
