REMARK  9 active torsions:
REMARK  status: ('A' for Active; 'I' for Inactive)
REMARK    1  A    between atoms: N1_3  and  C1_1 
REMARK    2  A    between atoms: N1_3  and  C2_5 
REMARK    3  A    between atoms: C3_8  and  N1_3 
REMARK    4  A    between atoms: C4_11  and  C3_8 
REMARK    5  A    between atoms: N5_14  and  C20_29 
REMARK       I    between atoms: C22_31  and  N5_14 
REMARK    6  A    between atoms: C10_19  and  C7_16 
REMARK    7  A    between atoms: C16_25  and  C15_24 
REMARK    8  A    between atoms: C23_32  and  C22_31 
REMARK    9  A    between atoms: C27_36  and  C29_38 
ROOT
ATOM      1  N2  831 d   1      -8.691  16.842   9.840  0.00  0.00    -0.177 NA
ATOM      2  N3  831 d   1      -9.898  17.398  10.121  0.00  0.00    -0.214 N 
ATOM      3  N4  831 d   1     -12.140  16.789  10.754  0.00  0.00    -0.241 NA
ATOM      4  C10 831 d   1     -10.206  15.192  10.345  0.00  0.00     0.041 A 
ATOM      5  C11 831 d   1      -8.893  15.540   9.980  0.00  0.00     0.037 A 
ATOM      6  C12 831 d   1     -10.859  16.420  10.438  0.00  0.00     0.163 A 
ATOM      7  C13 831 d   1     -12.400  18.063  10.738  0.00  0.00     0.007 A 
ATOM      8  C14 831 d   1     -11.456  19.160  10.416  0.00  0.00    -0.037 A 
ATOM      9  C15 831 d   1     -10.204  18.770  10.108  0.00  0.00     0.072 A 
ATOM     10  H15 831 d   1      -8.108  14.801   9.825  0.00  0.00     0.118 H 
ATOM     11  H16 831 d   1     -13.419  18.355  10.988  0.00  0.00     0.114 H 
ATOM     12  H17 831 d   1     -11.754  20.207  10.428  0.00  0.00     0.089 H 
ENDROOT
BRANCH   9  13
ATOM     13  C16 831 d   1      -9.171  19.789   9.823  0.00  0.00    -0.005 A 
ATOM     14  C17 831 d   1      -8.787  20.551  10.934  0.00  0.00    -0.071 A 
ATOM     15  C18 831 d   1      -7.827  21.551  10.846  0.00  0.00    -0.080 A 
ATOM     16  H18 831 d   1      -9.254  20.354  11.892  0.00  0.00     0.084 H 
ATOM     17  C19 831 d   1      -7.221  21.813   9.625  0.00  0.00    -0.057 A 
ATOM     18  H19 831 d   1      -7.553  22.123  11.725  0.00  0.00     0.083 H 
ATOM     19  C20 831 d   1      -7.573  21.074   8.493  0.00  0.00     0.035 A 
ATOM     20  H20 831 d   1      -6.472  22.593   9.550  0.00  0.00     0.086 H 
ATOM     21  C21 831 d   1      -8.555  20.053   8.583  0.00  0.00    -0.045 A 
ATOM     22  H21 831 d   1      -8.829  19.480   7.704  0.00  0.00     0.088 H 
BRANCH  19  23
ATOM     23  N5  831 d   1      -6.964  21.376   7.252  0.00  0.00    -0.323 N 
ATOM     24  C22 831 d   1      -7.521  21.250   5.998  0.00  0.00     0.256 C 
ATOM     25  O1  831 d   1      -8.630  20.826   5.714  0.00  0.00    -0.267 OA
ATOM     26  H11 831 d   1      -6.025  21.719   7.289  0.00  0.00     0.169 HD
BRANCH  24  27
ATOM     27  C23 831 d   1      -6.674  21.718   4.885  0.00  0.00     0.033 A 
ATOM     28  C24 831 d   1      -5.289  21.872   4.964  0.00  0.00    -0.068 A 
ATOM     29  C25 831 d   1      -4.594  22.328   3.843  0.00  0.00    -0.081 A 
ATOM     30  H22 831 d   1      -4.761  21.641   5.882  0.00  0.00     0.085 H 
ATOM     31  C26 831 d   1      -5.273  22.629   2.659  0.00  0.00    -0.068 A 
ATOM     32  H23 831 d   1      -3.518  22.450   3.891  0.00  0.00     0.083 H 
ATOM     33  C27 831 d   1      -6.661  22.477   2.584  0.00  0.00     0.048 A 
ATOM     34  H24 831 d   1      -4.721  22.982   1.795  0.00  0.00     0.084 H 
ATOM     35  C28 831 d   1      -7.353  22.022   3.704  0.00  0.00    -0.053 A 
ATOM     36  H25 831 d   1      -8.429  21.903   3.658  0.00  0.00     0.086 H 
BRANCH  33  37
ATOM     37  C29 831 d   1      -7.438  22.782   1.340  0.00  0.00     0.417 C 
ATOM     38  F1  831 d   1      -8.559  22.015   1.254  0.00  0.00    -0.166 F 
ATOM     39  F2  831 d   1      -6.738  22.570   0.195  0.00  0.00    -0.166 F 
ATOM     40  F3  831 d   1      -7.868  24.067   1.258  0.00  0.00    -0.166 F 
ENDBRANCH  33  37
ENDBRANCH  24  27
ENDBRANCH  19  23
ENDBRANCH   9  13
BRANCH   4  41
ATOM     41  C7  831 d   1     -10.705  13.837  10.569  0.00  0.00    -0.021 A 
ATOM     42  C6  831 d   1     -11.836  13.584  11.362  0.00  0.00    -0.071 A 
ATOM     43  C5  831 d   1     -12.267  12.267  11.586  0.00  0.00    -0.074 A 
ATOM     44  H12 831 d   1     -12.380  14.411  11.804  0.00  0.00     0.084 H 
ATOM     45  C4  831 d   1     -11.588  11.168  11.027  0.00  0.00    -0.033 A 
ATOM     46  H10 831 d   1     -13.141  12.093  12.203  0.00  0.00     0.084 H 
ATOM     47  C9  831 d   1     -10.455  11.427  10.242  0.00  0.00    -0.074 A 
ATOM     48  C8  831 d   1     -10.025  12.740  10.019  0.00  0.00    -0.071 A 
ATOM     49  H14 831 d   1      -9.906  10.601   9.803  0.00  0.00     0.084 H 
ATOM     50  H13 831 d   1      -9.147  12.913   9.408  0.00  0.00     0.084 H 
BRANCH  45  51
ATOM     51  C3  831 d   1     -12.050   9.743  11.266  0.00  0.00     0.106 C 
ATOM     52  H8  831 d   1     -11.149   9.148  11.479  0.00  0.00     0.083 H 
ATOM     53  H9  831 d   1     -12.695   9.763  12.156  0.00  0.00     0.083 H 
BRANCH  51  54
ATOM     54  N1  831 d   1     -12.822   9.000  10.178  0.00  0.00    -0.075 N 
ATOM     55  H4  831 d   1     -13.128   8.149  10.624  0.00  0.00     0.279 HD
BRANCH  54  56
ATOM     56  C1  831 d   1     -11.955   8.542   9.029  0.00  0.00     0.066 C 
ATOM     57  H1  831 d   1     -12.576   8.017   8.288  0.00  0.00     0.068 H 
ATOM     58  H2  831 d   1     -11.178   7.860   9.405  0.00  0.00     0.068 H 
ATOM     59  H3  831 d   1     -11.480   9.415   8.557  0.00  0.00     0.068 H 
ENDBRANCH  54  56
BRANCH  54  60
ATOM     60  C2  831 d   1     -14.096   9.670   9.731  0.00  0.00     0.066 C 
ATOM     61  H5  831 d   1     -14.678   9.977  10.613  0.00  0.00     0.068 H 
ATOM     62  H6  831 d   1     -14.688   8.966   9.128  0.00  0.00     0.068 H 
ATOM     63  H7  831 d   1     -13.852  10.556   9.126  0.00  0.00     0.068 H 
ENDBRANCH  54  60
ENDBRANCH  51  54
ENDBRANCH  45  51
ENDBRANCH   4  41
TORSDOF 9
