REMARK  5 active torsions:
REMARK  status: ('A' for Active; 'I' for Inactive)
REMARK    1  A    between atoms: C4_5  and  C12_12 
REMARK       I    between atoms: C12_12  and  N13_13 
REMARK    2  A    between atoms: N13_13  and  C14_14 
REMARK    3  A    between atoms: C16_16  and  N26_21 
REMARK       I    between atoms: N26_21  and  C27_22 
REMARK    4  A    between atoms: C27_22  and  C28_23 
REMARK    5  A    between atoms: N35_30  and  C37_32 
ROOT
ATOM      1  C14 D14 d   1       4.595   8.543  22.798  0.00  0.00     0.032 C 
ATOM      2  C16 D14 d   1       4.016   7.108  22.810  0.00  0.00     0.032 C 
ATOM      3  C17 D14 d   1       2.594   7.135  22.215  0.00  0.00    -0.044 C 
ATOM      4  C18 D14 d   1       2.624   7.682  20.762  0.00  0.00    -0.063 C 
ATOM      5  C19 D14 d   1       3.172   9.133  20.734  0.00  0.00    -0.063 C 
ATOM      6  C20 D14 d   1       4.565   9.213  21.397  0.00  0.00    -0.044 C 
ATOM      7  H   D14 d   1       3.966   9.166  23.433  0.00  0.00     0.075 H 
ATOM      8  H   D14 d   1       3.945   6.728  23.829  0.00  0.00     0.075 H 
ATOM      9  H   D14 d   1       1.966   7.784  22.825  0.00  0.00     0.036 H 
ATOM     10  H   D14 d   1       2.195   6.121  22.204  0.00  0.00     0.036 H 
ATOM     11  H   D14 d   1       1.609   7.681  20.364  0.00  0.00     0.033 H 
ATOM     12  H   D14 d   1       3.275   7.048  20.160  0.00  0.00     0.033 H 
ATOM     13  H   D14 d   1       2.486   9.776  21.285  0.00  0.00     0.033 H 
ATOM     14  H   D14 d   1       3.260   9.453  19.696  0.00  0.00     0.033 H 
ATOM     15  H   D14 d   1       5.273   8.687  20.757  0.00  0.00     0.036 H 
ATOM     16  H   D14 d   1       4.819  10.266  21.522  0.00  0.00     0.036 H 
ENDROOT
BRANCH   1  17
ATOM     17  N13 D14 d   1       5.957   8.481  23.299  0.00  0.00    -0.349 N 
ATOM     18  C12 D14 d   1       6.286   8.831  24.535  0.00  0.00     0.270 C 
ATOM     19  O15 D14 d   1       5.450   9.167  25.367  0.00  0.00    -0.266 OA
ATOM     20  H   D14 d   1       6.693   8.154  22.673  0.00  0.00     0.163 HD
BRANCH  18  21
ATOM     21  C4  D14 d   1       7.760   8.706  24.780  0.00  0.00     0.124 A 
ATOM     22  C3  D14 d   1       8.206   8.084  25.970  0.00  0.00    -0.039 A 
ATOM     23  C2  D14 d   1       9.576   7.947  26.165  0.00  0.00    -0.022 A 
ATOM     24  H   D14 d   1       7.495   7.722  26.713  0.00  0.00     0.088 H 
ATOM     25  C1  D14 d   1      10.452   8.449  25.153  0.00  0.00    -0.007 A 
ATOM     26  C7  D14 d   1      10.079   7.345  27.328  0.00  0.00    -0.070 A 
ATOM     27  C6  D14 d   1       9.913   9.043  24.008  0.00  0.00     0.014 A 
ATOM     28  C10 D14 d   1      11.828   8.319  25.306  0.00  0.00    -0.050 A 
ATOM     29  N5  D14 d   1       8.592   9.172  23.804  0.00  0.00    -0.255 NA
ATOM     30  H   D14 d   1      10.596   9.418  23.246  0.00  0.00     0.116 H 
ATOM     31  C9  D14 d   1      12.315   7.718  26.476  0.00  0.00     0.035 A 
ATOM     32  H   D14 d   1      12.511   8.675  24.535  0.00  0.00     0.087 H 
ATOM     33 CL1  D14 d   1      14.018   7.568  26.604  0.00  0.00    -0.084 Cl
ATOM     34  C8  D14 d   1      11.472   7.221  27.502  0.00  0.00    -0.061 A 
ATOM     35  H   D14 d   1      11.888   6.758  28.397  0.00  0.00     0.086 H 
ATOM     36  H   D14 d   1       9.396   6.975  28.093  0.00  0.00     0.084 H 
ENDBRANCH  18  21
ENDBRANCH   1  17
BRANCH   2  37
ATOM     37  N26 D14 d   1       4.909   6.217  22.071  0.00  0.00    -0.349 N 
ATOM     38  C27 D14 d   1       4.927   4.896  22.187  0.00  0.00     0.277 C 
ATOM     39  O29 D14 d   1       4.264   4.283  23.026  0.00  0.00    -0.265 OA
ATOM     40  H   D14 d   1       5.567   6.643  21.418  0.00  0.00     0.163 HD
BRANCH  38  41
ATOM     41  C28 D14 d   1       5.819   4.230  21.204  0.00  0.00     0.166 A 
ATOM     42  N30 D14 d   1       6.659   4.848  20.350  0.00  0.00    -0.237 NA
ATOM     43  C31 D14 d   1       7.415   3.885  19.679  0.00  0.00     0.079 A 
ATOM     44  C32 D14 d   1       7.170   2.610  19.997  0.00  0.00     0.039 A 
ATOM     45  C36 D14 d   1       8.465   3.902  18.634  0.00  0.00     0.153 C 
ATOM     46  S33 D14 d   1       5.952   2.444  21.193  0.00  0.00    -0.066 SA
ATOM     47  C34 D14 d   1       8.004   1.663  19.231  0.00  0.00     0.145 C 
ATOM     48  N35 D14 d   1       8.487   2.521  18.126  0.00  0.00     0.094 N 
ATOM     49  H   D14 d   1       7.462   0.780  18.892  0.00  0.00     0.088 H 
ATOM     50  H   D14 d   1       8.806   1.215  19.818  0.00  0.00     0.088 H 
ATOM     51  H   D14 d   1       9.433   4.212  19.027  0.00  0.00     0.089 H 
ATOM     52  H   D14 d   1       8.253   4.627  17.848  0.00  0.00     0.089 H 
BRANCH  48  53
ATOM     53  C37 D14 d   1       9.760   2.064  17.611  0.00  0.00     0.096 C 
ATOM     54  H   D14 d   1      10.501   2.082  18.410  0.00  0.00     0.071 H 
ATOM     55  H   D14 d   1       9.654   1.046  17.235  0.00  0.00     0.071 H 
ATOM     56  H   D14 d   1      10.080   2.720  16.802  0.00  0.00     0.071 H 
ENDBRANCH  48  53
ENDBRANCH  38  41
ENDBRANCH   2  37
TORSDOF 5
