REMARK  26 active torsions:
REMARK  status: ('A' for Active; 'I' for Inactive)
REMARK    1  A    between atoms: N_1  and  CA_2 
REMARK    2  A    between atoms: CA_2  and  C_3 
REMARK    3  A    between atoms: CA_2  and  CB_5 
REMARK       I    between atoms: C_3  and  N_6 
REMARK    4  A    between atoms: N_6  and  CA_7 
REMARK    5  A    between atoms: CA_7  and  C_8 
REMARK    6  A    between atoms: CA_7  and  CB_10 
REMARK       I    between atoms: C_8  and  N_17 
REMARK    7  A    between atoms: CB_10  and  CG_11 
REMARK    8  A    between atoms: CG_11  and  CD_12 
REMARK    9  A    between atoms: CD_12  and  NE_13 
REMARK       I    between atoms: NE_13  and  CZ_14 
REMARK       I    between atoms: CZ_14  and  NH1_15 
REMARK   10  A    between atoms: N_17  and  CA_18 
REMARK   11  A    between atoms: CA_18  and  CB_19 
REMARK   12  A    between atoms: CA_18  and  C_24 
REMARK   13  A    between atoms: CB_19  and  CG_20 
REMARK   14  A    between atoms: CG_20  and  CD_21 
REMARK   15  A    between atoms: CD_21  and  CE_22 
REMARK   16  A    between atoms: CE_22  and  NZ_23 
REMARK   17  A    between atoms: NZ_23  and  CM1_26 
REMARK   18  A    between atoms: NZ_23  and  CM2_27 
REMARK   19  A    between atoms: NZ_23  and  CM3_28 
REMARK       I    between atoms: C_24  and  N_29 
REMARK   20  A    between atoms: N_29  and  CA_30 
REMARK   21  A    between atoms: CA_30  and  C_31 
REMARK   22  A    between atoms: CA_30  and  CB_33 
REMARK       I    between atoms: C_31  and  N_35 
REMARK   23  A    between atoms: CB_33  and  OG_34 
REMARK   24  A    between atoms: N_35  and  CA_36 
REMARK   25  A    between atoms: CA_36  and  C_37 
REMARK   26  A    between atoms: CA_36  and  CB_39 
ROOT
ATOM      1  CA  M3L d   1     -17.303 -29.500  27.243  0.00  0.00     0.089 C 
ATOM      2  H22 M3L d   1     -16.617 -30.042  26.576  0.00  0.00     0.087 H 
ENDROOT
BRANCH   1   3
ATOM      3  N   M3L d   1     -18.412 -30.407  27.536  0.00  0.00    -0.346 N 
ATOM      4  C   ARG d   1     -18.200 -31.713  27.679  0.00  0.00     0.241 C 
ATOM      5  O   ARG d   1     -17.108 -32.230  27.493  0.00  0.00    -0.271 OA
ATOM      6  H21 M3L d   1     -19.338 -30.042  27.630  0.00  0.00     0.163 HD
BRANCH   4   7
ATOM      7  CA  ARG d   1     -19.390 -32.572  28.127  0.00  0.00     0.089 C 
ATOM      8  H9  ARG d   1     -20.325 -32.102  27.788  0.00  0.00     0.087 H 
BRANCH   7   9
ATOM      9  N   ARG d   1     -19.287 -33.906  27.551  0.00  0.00    -0.346 N 
ATOM     10  C   ALA d   1     -19.987 -34.253  26.481  0.00  0.00     0.248 C 
ATOM     11  O   ALA d   1     -20.785 -33.497  25.946  0.00  0.00    -0.271 OA
ATOM     12  H8  ARG d   1     -18.674 -34.575  27.973  0.00  0.00     0.163 HD
BRANCH  10  13
ATOM     13  CA  ALA d   1     -19.802 -35.673  25.967  0.00  0.00     0.172 C 
ATOM     14  H4  ALA d   1     -19.261 -36.261  26.724  0.00  0.00     0.098 H 
BRANCH  13  15
ATOM     15  N   ALA d   1     -21.136 -36.294  25.730  0.00  0.00    -0.067 N 
ATOM     16  H1  ALA d   1     -21.013 -37.235  25.390  0.00  0.00     0.275 HD
ATOM     17  H2  ALA d   1     -21.642 -35.753  25.047  0.00  0.00     0.275 HD
ATOM     18  H3  ALA d   1     -21.655 -36.315  26.594  0.00  0.00     0.275 HD
ENDBRANCH  13  15
BRANCH  13  19
ATOM     19  CB  ALA d   1     -18.996 -35.666  24.681  0.00  0.00    -0.042 C 
ATOM     20  H5  ALA d   1     -18.014 -35.206  24.866  0.00  0.00     0.030 H 
ATOM     21  H6  ALA d   1     -19.533 -35.088  23.915  0.00  0.00     0.030 H 
ATOM     22  H7  ALA d   1     -18.857 -36.699  24.330  0.00  0.00     0.030 H 
ENDBRANCH  13  19
ENDBRANCH  10  13
ENDBRANCH   7   9
BRANCH   7  23
ATOM     23  CB  ARG d   1     -19.400 -32.675  29.647  0.00  0.00    -0.036 C 
ATOM     24  H10 ARG d   1     -18.401 -32.995  29.979  0.00  0.00     0.036 H 
ATOM     25  H11 ARG d   1     -20.143 -33.432  29.938  0.00  0.00     0.036 H 
BRANCH  23  26
ATOM     26  CG  ARG d   1     -19.746 -31.361  30.354  0.00  0.00    -0.048 C 
ATOM     27  H12 ARG d   1     -18.940 -30.638  30.160  0.00  0.00     0.035 H 
ATOM     28  H13 ARG d   1     -19.814 -31.554  31.435  0.00  0.00     0.035 H 
BRANCH  26  29
ATOM     29  CD  ARG d   1     -21.070 -30.750  29.885  0.00  0.00     0.009 C 
ATOM     30  H14 ARG d   1     -21.838 -30.928  30.652  0.00  0.00     0.064 H 
ATOM     31  H15 ARG d   1     -21.373 -31.232  28.944  0.00  0.00     0.064 H 
BRANCH  29  32
ATOM     32  NE  ARG d   1     -20.943 -29.308  29.663  0.00  0.00    -0.227 N 
ATOM     33  CZ  ARG d   1     -21.037 -28.715  28.476  0.00  0.00     0.665 C 
ATOM     34  NH1 ARG d   1     -21.297 -29.421  27.380  0.00  0.00    -0.235 N 
ATOM     35  NH2 ARG d   1     -20.887 -27.398  28.392  0.00  0.00    -0.235 N 
ATOM     36  H17 ARG d   1     -21.367 -28.948  26.468  0.00  0.00     0.174 HD
ATOM     37  H18 ARG d   1     -21.428 -30.441  27.443  0.00  0.00     0.174 HD
ATOM     38  H19 ARG d   1     -20.686 -26.848  29.239  0.00  0.00     0.174 HD
ATOM     39  H20 ARG d   1     -20.972 -26.927  27.480  0.00  0.00     0.174 HD
ATOM     40  H16 ARG d   1     -20.769 -28.711  30.484  0.00  0.00     0.177 HD
ENDBRANCH  29  32
ENDBRANCH  26  29
ENDBRANCH  23  26
ENDBRANCH   7  23
ENDBRANCH   4   7
ENDBRANCH   1   3
BRANCH   1  41
ATOM     41  CB  M3L d   1     -17.830 -28.302  26.452  0.00  0.00    -0.038 C 
ATOM     42  H23 M3L d   1     -18.464 -27.688  27.109  0.00  0.00     0.036 H 
ATOM     43  H24 M3L d   1     -18.427 -28.667  25.603  0.00  0.00     0.036 H 
BRANCH  41  44
ATOM     44  CG  M3L d   1     -16.677 -27.440  25.920  0.00  0.00    -0.061 C 
ATOM     45  H25 M3L d   1     -16.099 -28.015  25.181  0.00  0.00     0.033 H 
ATOM     46  H26 M3L d   1     -16.021 -27.149  26.753  0.00  0.00     0.033 H 
BRANCH  44  47
ATOM     47  CD  M3L d   1     -17.249 -26.184  25.257  0.00  0.00    -0.042 C 
ATOM     48  H27 M3L d   1     -17.746 -25.572  26.024  0.00  0.00     0.035 H 
ATOM     49  H28 M3L d   1     -17.984 -26.487  24.496  0.00  0.00     0.035 H 
BRANCH  47  50
ATOM     50  CE  M3L d   1     -16.153 -25.341  24.582  0.00  0.00     0.084 C 
ATOM     51  H29 M3L d   1     -15.620 -25.991  23.873  0.00  0.00     0.076 H 
ATOM     52  H30 M3L d   1     -15.458 -25.006  25.366  0.00  0.00     0.076 H 
BRANCH  50  53
ATOM     53  NZ  M3L d   1     -16.607 -24.139  23.838  0.00  0.00    -0.079 N 
BRANCH  53  54
ATOM     54  CM1 M3L d   1     -15.411 -23.400  23.400  0.00  0.00     0.067 C 
ATOM     55  H31 M3L d   1     -15.718 -22.502  22.844  0.00  0.00     0.068 H 
ATOM     56  H32 M3L d   1     -14.801 -24.043  22.749  0.00  0.00     0.068 H 
ATOM     57  H33 M3L d   1     -14.821 -23.103  24.279  0.00  0.00     0.068 H 
ENDBRANCH  53  54
BRANCH  53  58
ATOM     58  CM2 M3L d   1     -17.427 -23.237  24.673  0.00  0.00     0.067 C 
ATOM     59  H34 M3L d   1     -18.328 -23.769  25.012  0.00  0.00     0.068 H 
ATOM     60  H35 M3L d   1     -17.722 -22.357  24.082  0.00  0.00     0.068 H 
ATOM     61  H36 M3L d   1     -16.842 -22.913  25.546  0.00  0.00     0.068 H 
ENDBRANCH  53  58
BRANCH  53  62
ATOM     62  CM3 M3L d   1     -17.380 -24.493  22.634  0.00  0.00     0.067 C 
ATOM     63  H37 M3L d   1     -16.784 -25.165  22.000  0.00  0.00     0.068 H 
ATOM     64  H38 M3L d   1     -17.623 -23.579  22.072  0.00  0.00     0.068 H 
ATOM     65  H39 M3L d   1     -18.310 -24.999  22.931  0.00  0.00     0.068 H 
ENDBRANCH  53  62
ENDBRANCH  50  53
ENDBRANCH  47  50
ENDBRANCH  44  47
ENDBRANCH  41  44
ENDBRANCH   1  41
BRANCH   1  66
ATOM     66  C   M3L d   1     -16.488 -29.127  28.455  0.00  0.00     0.241 C 
ATOM     67  O   M3L d   1     -15.303 -28.845  28.333  0.00  0.00    -0.271 OA
ATOM     68  N   SER d   1     -17.072 -29.160  29.653  0.00  0.00    -0.344 N 
ATOM     69  H40 SER d   1     -18.052 -29.345  29.732  0.00  0.00     0.163 HD
BRANCH  68  70
ATOM     70  CA  SER d   1     -16.262 -28.921  30.859  0.00  0.00     0.109 C 
ATOM     71  H41 SER d   1     -15.210 -28.930  30.538  0.00  0.00     0.090 H 
BRANCH  70  72
ATOM     72  C   SER d   1     -16.401 -29.988  31.950  0.00  0.00     0.243 C 
ATOM     73  O   SER d   1     -17.444 -30.620  32.056  0.00  0.00    -0.271 OA
ATOM     74  N   ALA d   1     -15.377 -30.137  32.791  0.00  0.00    -0.345 N 
ATOM     75  H45 ALA d   1     -14.530 -29.636  32.614  0.00  0.00     0.163 HD
BRANCH  74  76
ATOM     76  CA  ALA d   1     -15.452 -31.014  33.970  0.00  0.00     0.093 C 
ATOM     77  H46 ALA d   1     -16.038 -31.904  33.696  0.00  0.00     0.089 H 
BRANCH  76  78
ATOM     78  C   ALA d   1     -16.158 -30.315  35.126  0.00  0.00     0.196 C 
ATOM     79  O   ALA d   1     -17.341 -30.560  35.382  0.00  0.00    -0.646 OA
ATOM     80  H47 ALA d   1     -15.614 -29.592  35.732  0.00  0.00    -0.646 OA
ENDBRANCH  76  78
BRANCH  76  81
ATOM     81  CB  ALA d   1     -14.056 -31.474  34.404  0.00  0.00    -0.048 C 
ATOM     82  H48 ALA d   1     -14.143 -32.127  35.285  0.00  0.00     0.030 H 
ATOM     83  H49 ALA d   1     -13.443 -30.596  34.657  0.00  0.00     0.030 H 
ATOM     84  H50 ALA d   1     -13.581 -32.029  33.582  0.00  0.00     0.030 H 
ENDBRANCH  76  81
ENDBRANCH  74  76
ENDBRANCH  70  72
BRANCH  70  85
ATOM     85  CB  SER d   1     -16.554 -27.541  31.441  0.00  0.00     0.044 C 
ATOM     86  H42 SER d   1     -16.128 -26.773  30.779  0.00  0.00     0.077 H 
ATOM     87  H43 SER d   1     -16.093 -27.464  32.437  0.00  0.00     0.077 H 
BRANCH  85  88
ATOM     88  OG  SER d   1     -17.948 -27.332  31.557  0.00  0.00    -0.398 OA
ATOM     89  H44 SER d   1     -18.108 -26.469  31.921  0.00  0.00     0.209 HD
ENDBRANCH  85  88
ENDBRANCH  70  85
ENDBRANCH  68  70
ENDBRANCH   1  66
TORSDOF 26
