REMARK WARNING: 32 MAX_TORS EXCEEDED!!!
REMARK  34 active torsions:
REMARK  status: ('A' for Active; 'I' for Inactive)
REMARK    1  A    between atoms: N_1  and  CA_2 
REMARK    2  A    between atoms: CA_2  and  C_3 
REMARK    3  A    between atoms: CA_2  and  CB_5 
REMARK       I    between atoms: C_3  and  N_6 
REMARK    4  A    between atoms: N_6  and  CA_7 
REMARK    5  A    between atoms: CA_7  and  C_8 
REMARK    6  A    between atoms: CA_7  and  CB_10 
REMARK       I    between atoms: C_8  and  N_17 
REMARK    7  A    between atoms: CB_10  and  CG_11 
REMARK    8  A    between atoms: CG_11  and  CD_12 
REMARK    9  A    between atoms: CD_12  and  NE_13 
REMARK       I    between atoms: NE_13  and  CZ_14 
REMARK       I    between atoms: CZ_14  and  NH1_15 
REMARK   10  A    between atoms: N_17  and  CA_18 
REMARK   11  A    between atoms: CA_18  and  CB_19 
REMARK   12  A    between atoms: CA_18  and  C_24 
REMARK   13  A    between atoms: CB_19  and  CG_20 
REMARK   14  A    between atoms: CG_20  and  CD_21 
REMARK   15  A    between atoms: CD_21  and  CE_22 
REMARK   16  A    between atoms: CE_22  and  NZ_23 
REMARK   17  A    between atoms: NZ_23  and  CM1_26 
REMARK   18  A    between atoms: NZ_23  and  CM2_27 
REMARK   19  A    between atoms: NZ_23  and  CM3_28 
REMARK       I    between atoms: C_24  and  N_29 
REMARK   20  A    between atoms: N_29  and  CA_30 
REMARK   21  A    between atoms: CA_30  and  C_31 
REMARK   22  A    between atoms: CA_30  and  CB_33 
REMARK       I    between atoms: C_31  and  N_35 
REMARK   23  A    between atoms: CB_33  and  OG_34 
REMARK   24  A    between atoms: N_35  and  CA_36 
REMARK   25  A    between atoms: CA_36  and  C_37 
REMARK   26  A    between atoms: CA_36  and  CB_39 
REMARK       I    between atoms: C_37  and  N_40 
REMARK   27  A    between atoms: N_40  and  CA_41 
REMARK   28  A    between atoms: CA_41  and  C_42 
REMARK       I    between atoms: C_42  and  N_44 
REMARK   29  A    between atoms: N_44  and  CA_45 
REMARK   30  A    between atoms: CA_45  and  C_46 
REMARK   31  A    between atoms: CA_45  and  CB_48 
REMARK       I    between atoms: C_46  and  N_49 
REMARK   32  A    between atoms: N_49  and  CA_50 
REMARK   33  A    between atoms: CA_50  and  C_51 
REMARK   34  A    between atoms: CA_50  and  CB_53 
ROOT
ATOM      1  CA  M3L d   1      17.344  13.090  18.233  0.00  0.00     0.089 C 
ATOM      2  H22 M3L d   1      16.719  12.652  19.025  0.00  0.00     0.087 H 
ENDROOT
BRANCH   1   3
ATOM      3  N   M3L d   1      18.445  12.158  17.971  0.00  0.00    -0.346 N 
ATOM      4  C   ARG d   1      18.244  10.847  17.865  0.00  0.00     0.241 C 
ATOM      5  O   ARG d   1      17.141  10.324  18.032  0.00  0.00    -0.271 OA
ATOM      6  H21 M3L d   1      19.373  12.518  17.869  0.00  0.00     0.163 HD
BRANCH   4   7
ATOM      7  CA  ARG d   1      19.466   9.987  17.538  0.00  0.00     0.089 C 
ATOM      8  H9  ARG d   1      20.341  10.440  18.027  0.00  0.00     0.087 H 
BRANCH   7   9
ATOM      9  N   ARG d   1      19.327   8.617  18.033  0.00  0.00    -0.346 N 
ATOM     10  C   ALA d   1      19.999   8.149  19.081  0.00  0.00     0.248 C 
ATOM     11  O   ALA d   1      20.759   8.834  19.750  0.00  0.00    -0.271 OA
ATOM     12  H8  ARG d   1      18.696   8.002  17.560  0.00  0.00     0.163 HD
BRANCH  10  13
ATOM     13  CA  ALA d   1      19.775   6.683  19.421  0.00  0.00     0.172 C 
ATOM     14  H4  ALA d   1      18.920   6.319  18.833  0.00  0.00     0.098 H 
BRANCH  13  15
ATOM     15  N   ALA d   1      20.973   5.870  19.055  0.00  0.00    -0.067 N 
ATOM     16  H1  ALA d   1      20.807   4.903  19.287  0.00  0.00     0.275 HD
ATOM     17  H2  ALA d   1      21.775   6.205  19.566  0.00  0.00     0.275 HD
ATOM     18  H3  ALA d   1      21.146   5.953  18.065  0.00  0.00     0.275 HD
ENDBRANCH  13  15
BRANCH  13  19
ATOM     19  CB  ALA d   1      19.440   6.522  20.897  0.00  0.00    -0.042 C 
ATOM     20  H5  ALA d   1      18.556   7.129  21.141  0.00  0.00     0.030 H 
ATOM     21  H6  ALA d   1      20.293   6.856  21.505  0.00  0.00     0.030 H 
ATOM     22  H7  ALA d   1      19.229   5.464  21.112  0.00  0.00     0.030 H 
ENDBRANCH  13  19
ENDBRANCH  10  13
ENDBRANCH   7   9
BRANCH   7  23
ATOM     23  CB  ARG d   1      19.711   9.967  16.028  0.00  0.00    -0.036 C 
ATOM     24  H10 ARG d   1      19.902  10.997  15.693  0.00  0.00     0.036 H 
ATOM     25  H11 ARG d   1      18.806   9.583  15.534  0.00  0.00     0.036 H 
BRANCH  23  26
ATOM     26  CG  ARG d   1      20.895   9.096  15.610  0.00  0.00    -0.048 C 
ATOM     27  H12 ARG d   1      20.891   8.993  14.515  0.00  0.00     0.035 H 
ATOM     28  H13 ARG d   1      20.787   8.104  16.072  0.00  0.00     0.035 H 
BRANCH  26  29
ATOM     29  CD  ARG d   1      22.242   9.705  16.048  0.00  0.00     0.009 C 
ATOM     30  H14 ARG d   1      22.055  10.443  16.842  0.00  0.00     0.064 H 
ATOM     31  H15 ARG d   1      22.702  10.206  15.183  0.00  0.00     0.064 H 
BRANCH  29  32
ATOM     32  NE  ARG d   1      23.172   8.693  16.555  0.00  0.00    -0.227 N 
ATOM     33  CZ  ARG d   1      23.913   7.886  15.794  0.00  0.00     0.665 C 
ATOM     34  NH1 ARG d   1      23.848   7.945  14.464  0.00  0.00    -0.235 N 
ATOM     35  NH2 ARG d   1      24.720   7.007  16.368  0.00  0.00    -0.235 N 
ATOM     36  H17 ARG d   1      24.427   7.314  13.892  0.00  0.00     0.174 HD
ATOM     37  H18 ARG d   1      23.218   8.621  14.009  0.00  0.00     0.174 HD
ATOM     38  H19 ARG d   1      24.777   6.954  17.395  0.00  0.00     0.174 HD
ATOM     39  H20 ARG d   1      25.291   6.376  15.787  0.00  0.00     0.174 HD
ATOM     40  H16 ARG d   1      23.260   8.597  17.577  0.00  0.00     0.177 HD
ENDBRANCH  29  32
ENDBRANCH  26  29
ENDBRANCH  23  26
ENDBRANCH   7  23
ENDBRANCH   4   7
ENDBRANCH   1   3
BRANCH   1  41
ATOM     41  CB  M3L d   1      17.854  14.438  18.742  0.00  0.00    -0.038 C 
ATOM     42  H23 M3L d   1      18.048  15.096  17.882  0.00  0.00     0.036 H 
ATOM     43  H24 M3L d   1      18.788  14.280  19.300  0.00  0.00     0.036 H 
BRANCH  41  44
ATOM     44  CG  M3L d   1      16.834  15.106  19.659  0.00  0.00    -0.061 C 
ATOM     45  H25 M3L d   1      16.571  14.406  20.465  0.00  0.00     0.033 H 
ATOM     46  H26 M3L d   1      15.934  15.345  19.073  0.00  0.00     0.033 H 
BRANCH  44  47
ATOM     47  CD  M3L d   1      17.370  16.389  20.280  0.00  0.00    -0.042 C 
ATOM     48  H27 M3L d   1      17.632  17.092  19.476  0.00  0.00     0.035 H 
ATOM     49  H28 M3L d   1      18.269  16.152  20.868  0.00  0.00     0.035 H 
BRANCH  47  50
ATOM     50  CE  M3L d   1      16.335  17.047  21.198  0.00  0.00     0.084 C 
ATOM     51  H29 M3L d   1      16.161  16.375  22.051  0.00  0.00     0.076 H 
ATOM     52  H30 M3L d   1      15.402  17.165  20.628  0.00  0.00     0.076 H 
BRANCH  50  53
ATOM     53  NZ  M3L d   1      16.718  18.378  21.733  0.00  0.00    -0.079 N 
BRANCH  53  54
ATOM     54  CM1 M3L d   1      15.498  19.134  22.014  0.00  0.00     0.067 C 
ATOM     55  H31 M3L d   1      15.764  20.125  22.412  0.00  0.00     0.068 H 
ATOM     56  H32 M3L d   1      14.893  18.591  22.755  0.00  0.00     0.068 H 
ATOM     57  H33 M3L d   1      14.920  19.255  21.086  0.00  0.00     0.068 H 
ENDBRANCH  53  54
BRANCH  53  58
ATOM     58  CM2 M3L d   1      17.507  19.156  20.773  0.00  0.00     0.067 C 
ATOM     59  H34 M3L d   1      18.436  18.615  20.538  0.00  0.00     0.068 H 
ATOM     60  H35 M3L d   1      17.753  20.135  21.209  0.00  0.00     0.068 H 
ATOM     61  H36 M3L d   1      16.924  19.301  19.852  0.00  0.00     0.068 H 
ENDBRANCH  53  58
BRANCH  53  62
ATOM     62  CM3 M3L d   1      17.470  18.254  22.992  0.00  0.00     0.067 C 
ATOM     63  H37 M3L d   1      16.881  17.671  23.715  0.00  0.00     0.068 H 
ATOM     64  H38 M3L d   1      17.666  19.256  23.402  0.00  0.00     0.068 H 
ATOM     65  H39 M3L d   1      18.425  17.743  22.800  0.00  0.00     0.068 H 
ENDBRANCH  53  62
ENDBRANCH  50  53
ENDBRANCH  47  50
ENDBRANCH  44  47
ENDBRANCH  41  44
ENDBRANCH   1  41
BRANCH   1  66
ATOM     66  C   M3L d   1      16.482  13.257  17.010  0.00  0.00     0.241 C 
ATOM     67  O   M3L d   1      15.278  13.506  17.125  0.00  0.00    -0.271 OA
ATOM     68  N   SER d   1      17.107  13.120  15.835  0.00  0.00    -0.344 N 
ATOM     69  H40 SER d   1      18.100  13.004  15.847  0.00  0.00     0.163 HD
BRANCH  68  70
ATOM     70  CA  SER d   1      16.432  13.128  14.524  0.00  0.00     0.109 C 
ATOM     71  H41 SER d   1      15.433  12.686  14.655  0.00  0.00     0.090 H 
BRANCH  70  72
ATOM     72  C   SER d   1      17.195  12.285  13.490  0.00  0.00     0.243 C 
ATOM     73  O   SER d   1      18.336  11.877  13.732  0.00  0.00    -0.271 OA
ATOM     74  N   ALA d   1      16.557  12.046  12.342  0.00  0.00    -0.346 N 
ATOM     75  H45 ALA d   1      15.651  12.450  12.217  0.00  0.00     0.163 HD
BRANCH  74  76
ATOM     76  CA  ALA d   1      17.104  11.222  11.244  0.00  0.00     0.086 C 
ATOM     77  H46 ALA d   1      16.970  10.171  11.541  0.00  0.00     0.086 H 
BRANCH  76  78
ATOM     78  C   ALA d   1      18.605  11.414  10.975  0.00  0.00     0.240 C 
ATOM     79  O   ALA d   1      19.002  12.375  10.299  0.00  0.00    -0.271 OA
ATOM     80  N   GLY d   1      19.423  10.493  11.498  0.00  0.00    -0.351 N 
ATOM     81  H50 GLY d   1      19.020   9.718  11.985  0.00  0.00     0.163 HD
BRANCH  80  82
ATOM     82  CA  GLY d   1      20.889  10.570  11.388  0.00  0.00     0.069 C 
ATOM     83  H51 GLY d   1      21.160  10.521  10.323  0.00  0.00     0.078 H 
ATOM     84  H52 GLY d   1      21.323   9.709  11.917  0.00  0.00     0.078 H 
BRANCH  82  85
ATOM     85  C   GLY d   1      21.482  11.847  11.979  0.00  0.00     0.236 C 
ATOM     86  O   GLY d   1      21.769  12.800  11.250  0.00  0.00    -0.272 OA
ATOM     87  N   ALA d   1      21.663  11.872  13.299  0.00  0.00    -0.347 N 
ATOM     88  H53 ALA d   1      21.457  11.054  13.836  0.00  0.00     0.163 HD
BRANCH  87  89
ATOM     89  CA  ALA d   1      22.159  13.074  13.985  0.00  0.00     0.086 C 
ATOM     90  H54 ALA d   1      22.224  13.871  13.230  0.00  0.00     0.086 H 
BRANCH  89  91
ATOM     91  C   ALA d   1      23.579  12.883  14.554  0.00  0.00     0.240 C 
ATOM     92  O   ALA d   1      24.543  12.808  13.784  0.00  0.00    -0.271 OA
ATOM     93  N   ALA d   1      23.707  12.812  15.883  0.00  0.00    -0.349 N 
ATOM     94  H58 ALA d   1      22.884  12.884  16.447  0.00  0.00     0.163 HD
BRANCH  93  95
ATOM     95  CA  ALA d   1      25.005  12.632  16.554  0.00  0.00     0.059 C 
ATOM     96  H59 ALA d   1      25.561  11.855  16.008  0.00  0.00     0.083 H 
BRANCH  95  97
ATOM     97  C   ALA d   1      24.829  12.156  17.997  0.00  0.00     0.109 C 
ATOM     98  O   ALA d   1      24.062  12.742  18.769  0.00  0.00    -0.305 OA
ATOM     99  H60 ALA d   1      25.387  11.289  18.349  0.00  0.00     0.146 H 
ENDBRANCH  95  97
BRANCH  95 100
ATOM    100  CB  ALA d   1      25.834  13.930  16.509  0.00  0.00    -0.051 C 
ATOM    101  H61 ALA d   1      26.797  13.768  17.016  0.00  0.00     0.030 H 
ATOM    102  H62 ALA d   1      25.283  14.735  17.017  0.00  0.00     0.030 H 
ATOM    103  H63 ALA d   1      26.015  14.214  15.462  0.00  0.00     0.030 H 
ENDBRANCH  95 100
ENDBRANCH  93  95
ENDBRANCH  89  91
BRANCH  89 104
ATOM    104  CB  ALA d   1      21.156  13.553  15.064  0.00  0.00    -0.049 C 
ATOM    105  H55 ALA d   1      21.552  14.451  15.560  0.00  0.00     0.030 H 
ATOM    106  H56 ALA d   1      21.011  12.757  15.809  0.00  0.00     0.030 H 
ATOM    107  H57 ALA d   1      20.193  13.791  14.589  0.00  0.00     0.030 H 
ENDBRANCH  89 104
ENDBRANCH  87  89
ENDBRANCH  82  85
ENDBRANCH  80  82
ENDBRANCH  76  78
BRANCH  76 108
ATOM    108  CB  ALA d   1      16.290  11.447   9.949  0.00  0.00    -0.049 C 
ATOM    109  H47 ALA d   1      16.708  10.828   9.141  0.00  0.00     0.030 H 
ATOM    110  H48 ALA d   1      16.342  12.508   9.663  0.00  0.00     0.030 H 
ATOM    111  H49 ALA d   1      15.241  11.165  10.122  0.00  0.00     0.030 H 
ENDBRANCH  76 108
ENDBRANCH  74  76
ENDBRANCH  70  72
BRANCH  70 112
ATOM    112  CB  SER d   1      16.258  14.561  14.003  0.00  0.00     0.044 C 
ATOM    113  H42 SER d   1      15.579  15.108  14.674  0.00  0.00     0.077 H 
ATOM    114  H43 SER d   1      15.825  14.527  12.992  0.00  0.00     0.077 H 
BRANCH 112 115
ATOM    115  OG  SER d   1      17.501  15.234  13.952  0.00  0.00    -0.398 OA
ATOM    116  H44 SER d   1      17.369  16.117  13.627  0.00  0.00     0.209 HD
ENDBRANCH 112 115
ENDBRANCH  70 112
ENDBRANCH  68  70
ENDBRANCH   1  66
TORSDOF 34
