REMARK  28 active torsions:
REMARK  status: ('A' for Active; 'I' for Inactive)
REMARK    1  A    between atoms: N_1  and  CA_2 
REMARK    2  A    between atoms: CA_2  and  C_3 
REMARK    3  A    between atoms: CA_2  and  CB_5 
REMARK       I    between atoms: C_3  and  N_6 
REMARK    4  A    between atoms: N_6  and  CA_7 
REMARK    5  A    between atoms: CA_7  and  C_8 
REMARK    6  A    between atoms: CA_7  and  CB_10 
REMARK       I    between atoms: C_8  and  N_17 
REMARK    7  A    between atoms: CB_10  and  CG_11 
REMARK    8  A    between atoms: CG_11  and  CD_12 
REMARK    9  A    between atoms: CD_12  and  NE_13 
REMARK       I    between atoms: NE_13  and  CZ_14 
REMARK       I    between atoms: CZ_14  and  NH1_15 
REMARK   10  A    between atoms: N_17  and  CA_18 
REMARK   11  A    between atoms: CA_18  and  CB_19 
REMARK   12  A    between atoms: CA_18  and  C_24 
REMARK   13  A    between atoms: CB_19  and  CG_20 
REMARK   14  A    between atoms: CG_20  and  CD_21 
REMARK   15  A    between atoms: CD_21  and  CE_22 
REMARK   16  A    between atoms: CE_22  and  NZ_23 
REMARK   17  A    between atoms: NZ_23  and  CM1_26 
REMARK   18  A    between atoms: NZ_23  and  CM2_27 
REMARK   19  A    between atoms: NZ_23  and  CM3_28 
REMARK       I    between atoms: C_24  and  N_29 
REMARK   20  A    between atoms: N_29  and  CA_30 
REMARK   21  A    between atoms: CA_30  and  C_31 
REMARK   22  A    between atoms: CA_30  and  CB_33 
REMARK       I    between atoms: C_31  and  N_35 
REMARK   23  A    between atoms: CB_33  and  OG_34 
REMARK   24  A    between atoms: N_35  and  CA_36 
REMARK   25  A    between atoms: CA_36  and  C_37 
REMARK   26  A    between atoms: CA_36  and  CB_39 
REMARK   27  A    between atoms: CB_39  and  OG1_40 
REMARK   28  A    between atoms: CB_39  and  CG2_41 
ROOT
ATOM      1  CA  M3L d   1      17.383  12.998  18.174  0.00  0.00     0.089 C 
ATOM      2  H22 M3L d   1      16.784  12.516  18.960  0.00  0.00     0.087 H 
ENDROOT
BRANCH   1   3
ATOM      3  N   M3L d   1      18.443  12.050  17.815  0.00  0.00    -0.346 N 
ATOM      4  C   ARG d   1      18.237  10.731  17.769  0.00  0.00     0.241 C 
ATOM      5  O   ARG d   1      17.174  10.195  18.111  0.00  0.00    -0.271 OA
ATOM      6  H21 M3L d   1      19.352  12.404  17.597  0.00  0.00     0.163 HD
BRANCH   4   7
ATOM      7  CA  ARG d   1      19.403   9.878  17.251  0.00  0.00     0.089 C 
ATOM      8  H9  ARG d   1      20.350  10.374  17.509  0.00  0.00     0.087 H 
BRANCH   7   9
ATOM      9  N   ARG d   1      19.390   8.548  17.864  0.00  0.00    -0.346 N 
ATOM     10  C   ALA d   1      20.040   8.256  18.988  0.00  0.00     0.248 C 
ATOM     11  O   ALA d   1      20.707   9.075  19.609  0.00  0.00    -0.271 OA
ATOM     12  H8  ARG d   1      18.867   7.823  17.416  0.00  0.00     0.163 HD
BRANCH  10  13
ATOM     13  CA  ALA d   1      19.911   6.819  19.489  0.00  0.00     0.172 C 
ATOM     14  H4  ALA d   1      19.412   6.232  18.704  0.00  0.00     0.098 H 
BRANCH  13  15
ATOM     15  N   ALA d   1      21.242   6.198  19.746  0.00  0.00    -0.067 N 
ATOM     16  H1  ALA d   1      21.114   5.253  20.074  0.00  0.00     0.275 HD
ATOM     17  H2  ALA d   1      21.733   6.733  20.445  0.00  0.00     0.275 HD
ATOM     18  H3  ALA d   1      21.778   6.188  18.893  0.00  0.00     0.275 HD
ENDBRANCH  13  15
BRANCH  13  19
ATOM     19  CB  ALA d   1      19.040   6.767  20.745  0.00  0.00    -0.042 C 
ATOM     20  H5  ALA d   1      18.064   7.229  20.534  0.00  0.00     0.030 H 
ATOM     21  H6  ALA d   1      19.537   7.315  21.559  0.00  0.00     0.030 H 
ATOM     22  H7  ALA d   1      18.892   5.719  21.045  0.00  0.00     0.030 H 
ENDBRANCH  13  19
ENDBRANCH  10  13
ENDBRANCH   7   9
BRANCH   7  23
ATOM     23  CB  ARG d   1      19.297   9.766  15.718  0.00  0.00    -0.036 C 
ATOM     24  H10 ARG d   1      19.030  10.758  15.325  0.00  0.00     0.036 H 
ATOM     25  H11 ARG d   1      18.493   9.052  15.487  0.00  0.00     0.036 H 
BRANCH  23  26
ATOM     26  CG  ARG d   1      20.567   9.297  14.988  0.00  0.00    -0.048 C 
ATOM     27  H12 ARG d   1      20.883   8.332  15.411  0.00  0.00     0.035 H 
ATOM     28  H13 ARG d   1      21.361  10.043  15.142  0.00  0.00     0.035 H 
BRANCH  26  29
ATOM     29  CD  ARG d   1      20.331   9.122  13.454  0.00  0.00     0.009 C 
ATOM     30  H14 ARG d   1      19.584   8.328  13.307  0.00  0.00     0.064 H 
ATOM     31  H15 ARG d   1      21.282   8.822  12.990  0.00  0.00     0.064 H 
BRANCH  29  32
ATOM     32  NE  ARG d   1      19.850  10.341  12.779  0.00  0.00    -0.227 N 
ATOM     33  CZ  ARG d   1      20.626  11.340  12.339  0.00  0.00     0.665 C 
ATOM     34  NH1 ARG d   1      20.068  12.392  11.745  0.00  0.00    -0.235 N 
ATOM     35  NH2 ARG d   1      21.950  11.304  12.487  0.00  0.00    -0.235 N 
ATOM     36  H17 ARG d   1      20.658  13.164  11.404  0.00  0.00     0.174 HD
ATOM     37  H18 ARG d   1      19.046  12.434  11.626  0.00  0.00     0.174 HD
ATOM     38  H19 ARG d   1      22.395  10.496  12.945  0.00  0.00     0.174 HD
ATOM     39  H20 ARG d   1      22.528  12.084  12.143  0.00  0.00     0.174 HD
ATOM     40  H16 ARG d   1      18.834  10.432  12.634  0.00  0.00     0.177 HD
ENDBRANCH  29  32
ENDBRANCH  26  29
ENDBRANCH  23  26
ENDBRANCH   7  23
ENDBRANCH   4   7
ENDBRANCH   1   3
BRANCH   1  41
ATOM     41  CB  M3L d   1      17.918  14.310  18.778  0.00  0.00    -0.038 C 
ATOM     42  H23 M3L d   1      18.132  15.015  17.962  0.00  0.00     0.036 H 
ATOM     43  H24 M3L d   1      18.845  14.095  19.329  0.00  0.00     0.036 H 
BRANCH  41  44
ATOM     44  CG  M3L d   1      16.914  14.952  19.734  0.00  0.00    -0.061 C 
ATOM     45  H25 M3L d   1      16.915  14.380  20.674  0.00  0.00     0.033 H 
ATOM     46  H26 M3L d   1      15.916  14.902  19.275  0.00  0.00     0.033 H 
BRANCH  44  47
ATOM     47  CD  M3L d   1      17.222  16.411  20.058  0.00  0.00    -0.042 C 
ATOM     48  H27 M3L d   1      17.110  17.007  19.140  0.00  0.00     0.035 H 
ATOM     49  H28 M3L d   1      18.260  16.481  20.416  0.00  0.00     0.035 H 
BRANCH  47  50
ATOM     50  CE  M3L d   1      16.287  16.990  21.139  0.00  0.00     0.084 C 
ATOM     51  H29 M3L d   1      16.185  16.233  21.931  0.00  0.00     0.076 H 
ATOM     52  H30 M3L d   1      15.307  17.166  20.672  0.00  0.00     0.076 H 
BRANCH  50  53
ATOM     53  NZ  M3L d   1      16.714  18.264  21.785  0.00  0.00    -0.079 N 
BRANCH  53  54
ATOM     54  CM1 M3L d   1      15.506  18.937  22.275  0.00  0.00     0.067 C 
ATOM     55  H31 M3L d   1      15.785  19.884  22.759  0.00  0.00     0.068 H 
ATOM     56  H32 M3L d   1      14.995  18.290  23.003  0.00  0.00     0.068 H 
ATOM     57  H33 M3L d   1      14.832  19.142  21.430  0.00  0.00     0.068 H 
ENDBRANCH  53  54
BRANCH  53  58
ATOM     58  CM2 M3L d   1      17.417  19.180  20.865  0.00  0.00     0.067 C 
ATOM     59  H34 M3L d   1      18.327  18.692  20.486  0.00  0.00     0.068 H 
ATOM     60  H35 M3L d   1      17.691  20.100  21.402  0.00  0.00     0.068 H 
ATOM     61  H36 M3L d   1      16.757  19.430  20.021  0.00  0.00     0.068 H 
ENDBRANCH  53  58
BRANCH  53  62
ATOM     62  CM3 M3L d   1      17.600  18.009  22.940  0.00  0.00     0.067 C 
ATOM     63  H37 M3L d   1      17.099  17.327  23.643  0.00  0.00     0.068 H 
ATOM     64  H38 M3L d   1      17.824  18.959  23.447  0.00  0.00     0.068 H 
ATOM     65  H39 M3L d   1      18.537  17.551  22.590  0.00  0.00     0.068 H 
ENDBRANCH  53  62
ENDBRANCH  50  53
ENDBRANCH  47  50
ENDBRANCH  44  47
ENDBRANCH  41  44
ENDBRANCH   1  41
BRANCH   1  66
ATOM     66  C   M3L d   1      16.454  13.243  17.003  0.00  0.00     0.241 C 
ATOM     67  O   M3L d   1      15.269  13.550  17.205  0.00  0.00    -0.271 OA
ATOM     68  N   SER d   1      16.982  13.109  15.779  0.00  0.00    -0.344 N 
ATOM     69  H40 SER d   1      17.964  12.939  15.701  0.00  0.00     0.163 HD
BRANCH  68  70
ATOM     70  CA  SER d   1      16.182  13.200  14.535  0.00  0.00     0.109 C 
ATOM     71  H41 SER d   1      15.153  12.896  14.776  0.00  0.00     0.090 H 
BRANCH  70  72
ATOM     72  C   SER d   1      16.706  12.274  13.437  0.00  0.00     0.243 C 
ATOM     73  O   SER d   1      17.850  11.827  13.494  0.00  0.00    -0.271 OA
ATOM     74  N   THR d   1      15.873  12.012  12.428  0.00  0.00    -0.342 N 
ATOM     75  H45 THR d   1      14.945  12.384  12.463  0.00  0.00     0.163 HD
BRANCH  74  76
ATOM     76  CA  THR d   1      16.266  11.195  11.262  0.00  0.00     0.120 C 
ATOM     77  H46 THR d   1      16.790  10.309  11.649  0.00  0.00     0.093 H 
BRANCH  76  78
ATOM     78  C   THR d   1      17.220  11.919  10.309  0.00  0.00     0.199 C 
ATOM     79  O   THR d   1      17.190  13.174  10.196  0.00  0.00    -0.646 OA
ATOM     80  O47 THR d   1      18.045  11.252   9.629  0.00  0.00    -0.646 OA
ENDBRANCH  76  78
BRANCH  76  81
ATOM     81  CB  THR d   1      15.033  10.711  10.464  0.00  0.00     0.061 C 
ATOM     82  H47 THR d   1      15.274  10.729   9.391  0.00  0.00     0.086 H 
BRANCH  81  83
ATOM     83  OG1 THR d   1      13.919  11.586  10.711  0.00  0.00    -0.393 OA
ATOM     84  H48 THR d   1      13.165  11.284  10.218  0.00  0.00     0.210 HD
ENDBRANCH  81  83
BRANCH  81  85
ATOM     85  CG2 THR d   1      14.660   9.280  10.865  0.00  0.00    -0.050 C 
ATOM     86  H49 THR d   1      13.782   8.954  10.287  0.00  0.00     0.031 H 
ATOM     87  H50 THR d   1      14.424   9.250  11.939  0.00  0.00     0.031 H 
ATOM     88  H51 THR d   1      15.506   8.608  10.656  0.00  0.00     0.031 H 
ENDBRANCH  81  85
ENDBRANCH  76  81
ENDBRANCH  74  76
ENDBRANCH  70  72
BRANCH  70  89
ATOM     89  CB  SER d   1      16.148  14.639  14.003  0.00  0.00     0.044 C 
ATOM     90  H42 SER d   1      15.766  15.306  14.790  0.00  0.00     0.077 H 
ATOM     91  H43 SER d   1      15.483  14.685  13.128  0.00  0.00     0.077 H 
BRANCH  89  92
ATOM     92  OG  SER d   1      17.443  15.062  13.624  0.00  0.00    -0.398 OA
ATOM     93  H44 SER d   1      17.401  15.953  13.298  0.00  0.00     0.209 HD
ENDBRANCH  89  92
ENDBRANCH  70  89
ENDBRANCH  68  70
ENDBRANCH   1  66
TORSDOF 28
