REMARK WARNING: 32 MAX_TORS EXCEEDED!!!
REMARK  43 active torsions:
REMARK  status: ('A' for Active; 'I' for Inactive)
REMARK    1  A    between atoms: N_1  and  CA_2 
REMARK    2  A    between atoms: CA_2  and  C_3 
REMARK    3  A    between atoms: CA_2  and  CB_5 
REMARK       I    between atoms: C_3  and  N_12 
REMARK    4  A    between atoms: CB_5  and  CG_6 
REMARK    5  A    between atoms: CG_6  and  CD_7 
REMARK    6  A    between atoms: CD_7  and  NE_8 
REMARK       I    between atoms: NE_8  and  CZ_9 
REMARK       I    between atoms: CZ_9  and  NH1_10 
REMARK       I    between atoms: CZ_9  and  NH2_11 
REMARK    7  A    between atoms: N_12  and  CA_13 
REMARK    8  A    between atoms: CA_13  and  C_14 
REMARK    9  A    between atoms: CA_13  and  CB_16 
REMARK       I    between atoms: C_14  and  N_22 
REMARK   10  A    between atoms: CB_16  and  CG_17 
REMARK   11  A    between atoms: N_22  and  CA_23 
REMARK   12  A    between atoms: CA_23  and  C_24 
REMARK   13  A    between atoms: CA_23  and  CB_26 
REMARK       I    between atoms: C_24  and  N_33 
REMARK   14  A    between atoms: CB_26  and  CG_27 
REMARK   15  A    between atoms: CG_27  and  CD_28 
REMARK   16  A    between atoms: CD_28  and  NE_29 
REMARK       I    between atoms: NE_29  and  CZ_30 
REMARK       I    between atoms: CZ_30  and  NH1_31 
REMARK       I    between atoms: CZ_30  and  NH2_32 
REMARK   17  A    between atoms: N_33  and  CA_34 
REMARK   18  A    between atoms: CA_34  and  CB_35 
REMARK   19  A    between atoms: CA_34  and  C_40 
REMARK   20  A    between atoms: CB_35  and  CG_36 
REMARK   21  A    between atoms: CG_36  and  CD_37 
REMARK   22  A    between atoms: CD_37  and  CE_38 
REMARK   23  A    between atoms: CE_38  and  NZ_39 
REMARK   24  A    between atoms: NZ_39  and  CM1_42 
REMARK   25  A    between atoms: NZ_39  and  CM2_43 
REMARK   26  A    between atoms: NZ_39  and  CM3_44 
REMARK       I    between atoms: C_40  and  N_45 
REMARK   27  A    between atoms: N_45  and  CA_46 
REMARK   28  A    between atoms: CA_46  and  C_47 
REMARK   29  A    between atoms: CA_46  and  CB_49 
REMARK       I    between atoms: C_47  and  N_52 
REMARK   30  A    between atoms: CB_49  and  CG1_50 
REMARK   31  A    between atoms: CB_49  and  CG2_51 
REMARK   32  A    between atoms: N_52  and  CA_53 
REMARK   33  A    between atoms: CA_53  and  C_54 
REMARK   34  A    between atoms: CA_53  and  CB_56 
REMARK       I    between atoms: C_54  and  N_60 
REMARK   35  A    between atoms: CB_56  and  CG_57 
REMARK   36  A    between atoms: CG_57  and  CD1_58 
REMARK   37  A    between atoms: CG_57  and  CD2_59 
REMARK   38  A    between atoms: N_60  and  CA_61 
REMARK   39  A    between atoms: CA_61  and  C_62 
REMARK   40  A    between atoms: CA_61  and  CB_64 
REMARK   41  A    between atoms: CB_64  and  CG_65 
REMARK   42  A    between atoms: CG_65  and  CD_66 
REMARK   43  A    between atoms: CD_66  and  NE_67 
REMARK       I    between atoms: NE_67  and  CZ_68 
REMARK       I    between atoms: CZ_68  and  NH1_69 
ROOT
ATOM      1  CA  M3L d   1      17.242  13.239  18.167  0.00  0.00     0.089 C 
ATOM      2  H37 M3L d   1      16.627  12.701  18.904  0.00  0.00     0.087 H 
ENDROOT
BRANCH   1   3
ATOM      3  N   M3L d   1      18.310  12.335  17.728  0.00  0.00    -0.346 N 
ATOM      4  C   ARG d   1      18.112  11.034  17.524  0.00  0.00     0.241 C 
ATOM      5  O   ARG d   1      17.057  10.463  17.795  0.00  0.00    -0.271 OA
ATOM      6  H36 M3L d   1      19.224  12.711  17.576  0.00  0.00     0.163 HD
BRANCH   4   7
ATOM      7  CA  ARG d   1      19.282  10.259  16.914  0.00  0.00     0.089 C 
ATOM      8  H24 ARG d   1      20.212  10.805  17.129  0.00  0.00     0.087 H 
BRANCH   7   9
ATOM      9  N   ARG d   1      19.408   8.910  17.469  0.00  0.00    -0.346 N 
ATOM     10  C   HIS d   1      20.072   8.658  18.594  0.00  0.00     0.241 C 
ATOM     11  O   HIS d   1      20.566   9.541  19.292  0.00  0.00    -0.271 OA
ATOM     12  H23 ARG d   1      18.978   8.149  16.984  0.00  0.00     0.163 HD
BRANCH  10  13
ATOM     13  CA  HIS d   1      20.177   7.188  19.010  0.00  0.00     0.094 C 
ATOM     14  H17 HIS d   1      19.464   6.623  18.391  0.00  0.00     0.088 H 
BRANCH  13  15
ATOM     15  N   HIS d   1      21.506   6.598  18.787  0.00  0.00    -0.346 N 
ATOM     16  C   ARG d   1      21.776   5.764  17.785  0.00  0.00     0.249 C 
ATOM     17  O   ARG d   1      21.003   5.565  16.846  0.00  0.00    -0.271 OA
ATOM     18  H16 HIS d   1      22.243   6.835  19.419  0.00  0.00     0.163 HD
BRANCH  16  19
ATOM     19  CA  ARG d   1      23.131   5.039  17.844  0.00  0.00     0.176 C 
ATOM     20  H4  ARG d   1      23.204   4.402  16.950  0.00  0.00     0.099 H 
BRANCH  19  21
ATOM     21  N   ARG d   1      24.293   5.976  17.821  0.00  0.00    -0.067 N 
ATOM     22  H1  ARG d   1      25.151   5.448  17.862  0.00  0.00     0.275 HD
ATOM     23  H2  ARG d   1      24.241   6.595  18.615  0.00  0.00     0.275 HD
ATOM     24  H3  ARG d   1      24.271   6.517  16.971  0.00  0.00     0.275 HD
ENDBRANCH  19  21
BRANCH  19  25
ATOM     25  CB  ARG d   1      23.193   4.129  19.081  0.00  0.00    -0.029 C 
ATOM     26  H5  ARG d   1      23.195   4.764  19.980  0.00  0.00     0.036 H 
ATOM     27  H6  ARG d   1      24.127   3.549  19.040  0.00  0.00     0.036 H 
BRANCH  25  28
ATOM     28  CG  ARG d   1      22.019   3.149  19.183  0.00  0.00    -0.047 C 
ATOM     29  H7  ARG d   1      22.255   2.254  18.588  0.00  0.00     0.035 H 
ATOM     30  H8  ARG d   1      21.120   3.634  18.775  0.00  0.00     0.035 H 
BRANCH  28  31
ATOM     31  CD  ARG d   1      21.733   2.719  20.616  0.00  0.00     0.009 C 
ATOM     32  H9  ARG d   1      20.753   2.221  20.648  0.00  0.00     0.064 H 
ATOM     33  H10 ARG d   1      21.711   3.613  21.256  0.00  0.00     0.064 H 
BRANCH  31  34
ATOM     34  NE  ARG d   1      22.745   1.798  21.128  0.00  0.00    -0.227 N 
ATOM     35  CZ  ARG d   1      22.662   1.151  22.289  0.00  0.00     0.665 C 
ATOM     36  NH1 ARG d   1      21.604   1.310  23.082  0.00  0.00    -0.235 N 
ATOM     37  NH2 ARG d   1      23.643   0.338  22.659  0.00  0.00    -0.235 N 
ATOM     38  H12 ARG d   1      21.551   0.804  23.978  0.00  0.00     0.174 HD
ATOM     39  H13 ARG d   1      20.839   1.939  22.800  0.00  0.00     0.174 HD
ATOM     40  H14 ARG d   1      24.464   0.211  22.050  0.00  0.00     0.174 HD
ATOM     41  H15 ARG d   1      23.584  -0.166  23.555  0.00  0.00     0.174 HD
ATOM     42  H11 ARG d   1      23.582   1.638  20.550  0.00  0.00     0.177 HD
ENDBRANCH  31  34
ENDBRANCH  28  31
ENDBRANCH  25  28
ENDBRANCH  19  25
ENDBRANCH  16  19
ENDBRANCH  13  15
BRANCH  13  43
ATOM     43  CB  HIS d   1      19.757   7.024  20.483  0.00  0.00     0.004 C 
ATOM     44  H18 HIS d   1      18.966   6.261  20.534  0.00  0.00     0.046 H 
ATOM     45  H19 HIS d   1      19.361   7.987  20.839  0.00  0.00     0.046 H 
BRANCH  43  46
ATOM     46  CG  HIS d   1      20.873   6.608  21.395  0.00  0.00     0.053 A 
ATOM     47  ND1 HIS d   1      20.743   5.580  22.304  0.00  0.00    -0.247 NA
ATOM     48  CE1 HIS d   1      21.881   5.423  22.958  0.00  0.00     0.064 A 
ATOM     49  NE2 HIS d   1      22.749   6.309  22.501  0.00  0.00    -0.359 N 
ATOM     50  H21 HIS d   1      22.071   4.689  23.740  0.00  0.00     0.143 H 
ATOM     51  CD2 HIS d   1      22.145   7.062  21.523  0.00  0.00     0.002 A 
ATOM     52  H22 HIS d   1      23.721   6.417  22.825  0.00  0.00     0.166 HD
ATOM     53  H20 HIS d   1      22.602   7.872  20.956  0.00  0.00     0.114 H 
ENDBRANCH  43  46
ENDBRANCH  13  43
ENDBRANCH  10  13
ENDBRANCH   7   9
BRANCH   7  54
ATOM     54  CB  ARG d   1      19.082  10.199  15.400  0.00  0.00    -0.036 C 
ATOM     55  H25 ARG d   1      19.130  11.227  15.012  0.00  0.00     0.036 H 
ATOM     56  H26 ARG d   1      18.083   9.781  15.208  0.00  0.00     0.036 H 
BRANCH  54  57
ATOM     57  CG  ARG d   1      20.096   9.360  14.627  0.00  0.00    -0.048 C 
ATOM     58  H27 ARG d   1      20.002   8.306  14.929  0.00  0.00     0.035 H 
ATOM     59  H28 ARG d   1      21.111   9.717  14.854  0.00  0.00     0.035 H 
BRANCH  57  60
ATOM     60  CD  ARG d   1      19.843   9.479  13.124  0.00  0.00     0.009 C 
ATOM     61  H29 ARG d   1      18.847   9.073  12.893  0.00  0.00     0.064 H 
ATOM     62  H30 ARG d   1      20.608   8.902  12.583  0.00  0.00     0.064 H 
BRANCH  60  63
ATOM     63  NE  ARG d   1      19.903  10.879  12.692  0.00  0.00    -0.227 N 
ATOM     64  CZ  ARG d   1      21.018  11.516  12.333  0.00  0.00     0.665 C 
ATOM     65  NH1 ARG d   1      22.187  10.879  12.328  0.00  0.00    -0.235 N 
ATOM     66  NH2 ARG d   1      20.962  12.794  11.969  0.00  0.00    -0.235 N 
ATOM     67  H32 ARG d   1      23.044  11.378  12.050  0.00  0.00     0.174 HD
ATOM     68  H33 ARG d   1      22.234   9.887  12.603  0.00  0.00     0.174 HD
ATOM     69  H34 ARG d   1      20.060  13.291  11.971  0.00  0.00     0.174 HD
ATOM     70  H35 ARG d   1      21.821  13.287  11.685  0.00  0.00     0.174 HD
ATOM     71  H31 ARG d   1      19.020  11.409  12.664  0.00  0.00     0.177 HD
ENDBRANCH  60  63
ENDBRANCH  57  60
ENDBRANCH  54  57
ENDBRANCH   7  54
ENDBRANCH   4   7
ENDBRANCH   1   3
BRANCH   1  72
ATOM     72  CB  M3L d   1      17.803  14.493  18.845  0.00  0.00    -0.038 C 
ATOM     73  H38 M3L d   1      18.171  15.184  18.072  0.00  0.00     0.036 H 
ATOM     74  H39 M3L d   1      18.635  14.202  19.503  0.00  0.00     0.036 H 
BRANCH  72  75
ATOM     75  CG  M3L d   1      16.735  15.201  19.677  0.00  0.00    -0.061 C 
ATOM     76  H40 M3L d   1      16.447  14.551  20.516  0.00  0.00     0.033 H 
ATOM     77  H41 M3L d   1      15.857  15.392  19.043  0.00  0.00     0.033 H 
BRANCH  75  78
ATOM     78  CD  M3L d   1      17.243  16.528  20.231  0.00  0.00    -0.042 C 
ATOM     79  H42 M3L d   1      17.692  17.108  19.411  0.00  0.00     0.035 H 
ATOM     80  H43 M3L d   1      18.006  16.326  20.998  0.00  0.00     0.035 H 
BRANCH  78  81
ATOM     81  CE  M3L d   1      16.110  17.351  20.861  0.00  0.00     0.084 C 
ATOM     82  H44 M3L d   1      15.535  16.689  21.525  0.00  0.00     0.076 H 
ATOM     83  H45 M3L d   1      15.459  17.713  20.051  0.00  0.00     0.076 H 
BRANCH  81  84
ATOM     84  NZ  M3L d   1      16.558  18.525  21.654  0.00  0.00    -0.079 N 
BRANCH  84  85
ATOM     85  CM1 M3L d   1      15.371  19.259  22.118  0.00  0.00     0.067 C 
ATOM     86  H46 M3L d   1      15.687  20.132  22.707  0.00  0.00     0.068 H 
ATOM     87  H47 M3L d   1      14.753  18.599  22.744  0.00  0.00     0.068 H 
ATOM     88  H48 M3L d   1      14.785  19.595  21.250  0.00  0.00     0.068 H 
ENDBRANCH  84  85
BRANCH  84  89
ATOM     89  CM2 M3L d   1      17.389  19.437  20.847  0.00  0.00     0.067 C 
ATOM     90  H49 M3L d   1      18.282  18.902  20.492  0.00  0.00     0.068 H 
ATOM     91  H50 M3L d   1      17.696  20.295  21.463  0.00  0.00     0.068 H 
ATOM     92  H51 M3L d   1      16.809  19.795  19.984  0.00  0.00     0.068 H 
ENDBRANCH  84  89
BRANCH  84  93
ATOM     93  CM3 M3L d   1      17.325  18.103  22.841  0.00  0.00     0.067 C 
ATOM     94  H52 M3L d   1      16.713  17.422  23.450  0.00  0.00     0.068 H 
ATOM     95  H53 M3L d   1      17.593  18.987  23.438  0.00  0.00     0.068 H 
ATOM     96  H54 M3L d   1      18.241  17.585  22.521  0.00  0.00     0.068 H 
ENDBRANCH  84  93
ENDBRANCH  81  84
ENDBRANCH  78  81
ENDBRANCH  75  78
ENDBRANCH  72  75
ENDBRANCH   1  72
BRANCH   1  97
ATOM     97  C   M3L d   1      16.359  13.624  17.011  0.00  0.00     0.241 C 
ATOM     98  O   M3L d   1      15.141  13.716  17.154  0.00  0.00    -0.271 OA
ATOM     99  N   VAL d   1      16.979  13.845  15.853  0.00  0.00    -0.346 N 
ATOM    100  H55 VAL d   1      17.975  13.763  15.820  0.00  0.00     0.163 HD
BRANCH  99 101
ATOM    101  CA  VAL d   1      16.265  14.202  14.627  0.00  0.00     0.092 C 
ATOM    102  H56 VAL d   1      15.190  14.196  14.858  0.00  0.00     0.088 H 
BRANCH 101 103
ATOM    103  C   VAL d   1      16.509  13.176  13.516  0.00  0.00     0.241 C 
ATOM    104  O   VAL d   1      17.553  12.514  13.482  0.00  0.00    -0.271 OA
ATOM    105  N   LEU d   1      15.543  13.054  12.609  0.00  0.00    -0.346 N 
ATOM    106  H64 LEU d   1      14.718  13.612  12.702  0.00  0.00     0.163 HD
BRANCH 105 107
ATOM    107  CA  LEU d   1      15.649  12.132  11.483  0.00  0.00     0.089 C 
ATOM    108  H65 LEU d   1      15.918  11.143  11.883  0.00  0.00     0.087 H 
BRANCH 107 109
ATOM    109  C   LEU d   1      16.737  12.551  10.496  0.00  0.00     0.241 C 
ATOM    110  O   LEU d   1      16.859  13.727  10.147  0.00  0.00    -0.271 OA
ATOM    111  N   ARG d   1      17.515  11.569  10.048  0.00  0.00    -0.349 N 
ATOM    112  H75 ARG d   1      17.306  10.630  10.322  0.00  0.00     0.163 HD
BRANCH 111 113
ATOM    113  CA  ARG d   1      18.663  11.804   9.172  0.00  0.00     0.062 C 
ATOM    114  H76 ARG d   1      19.241  12.641   9.591  0.00  0.00     0.083 H 
BRANCH 113 115
ATOM    115  C   ARG d   1      18.247  12.193   7.749  0.00  0.00     0.109 C 
ATOM    116  O   ARG d   1      17.060  12.177   7.401  0.00  0.00    -0.305 OA
ATOM    117  H77 ARG d   1      19.011  12.489   7.031  0.00  0.00     0.146 H 
ENDBRANCH 113 115
BRANCH 113 118
ATOM    118  CB  ARG d   1      19.564  10.563   9.152  0.00  0.00    -0.039 C 
ATOM    119  H78 ARG d   1      19.130   9.836   8.450  0.00  0.00     0.036 H 
ATOM    120  H79 ARG d   1      19.577  10.133  10.164  0.00  0.00     0.036 H 
BRANCH 118 121
ATOM    121  CG  ARG d   1      21.005  10.828   8.730  0.00  0.00    -0.048 C 
ATOM    122  H80 ARG d   1      21.458  11.553   9.422  0.00  0.00     0.035 H 
ATOM    123  H81 ARG d   1      21.014  11.240   7.710  0.00  0.00     0.035 H 
BRANCH 121 124
ATOM    124  CD  ARG d   1      21.815   9.536   8.756  0.00  0.00     0.009 C 
ATOM    125  H82 ARG d   1      21.205   8.728   8.326  0.00  0.00     0.064 H 
ATOM    126  H83 ARG d   1      22.060   9.294   9.801  0.00  0.00     0.064 H 
BRANCH 124 127
ATOM    127  NE  ARG d   1      23.061   9.640   7.993  0.00  0.00    -0.227 N 
ATOM    128  CZ  ARG d   1      24.224  10.066   8.486  0.00  0.00     0.665 C 
ATOM    129  NH1 ARG d   1      24.328  10.440   9.758  0.00  0.00    -0.235 N 
ATOM    130  NH2 ARG d   1      25.294  10.117   7.699  0.00  0.00    -0.235 N 
ATOM    131  H85 ARG d   1      25.233  10.767  10.126  0.00  0.00     0.174 HD
ATOM    132  H86 ARG d   1      23.504  10.402  10.375  0.00  0.00     0.174 HD
ATOM    133  H87 ARG d   1      25.222   9.829   6.713  0.00  0.00     0.174 HD
ATOM    134  H88 ARG d   1      26.195  10.444   8.075  0.00  0.00     0.174 HD
ATOM    135  H84 ARG d   1      23.037   9.363   7.001  0.00  0.00     0.177 HD
ENDBRANCH 124 127
ENDBRANCH 121 124
ENDBRANCH 118 121
ENDBRANCH 113 118
ENDBRANCH 111 113
ENDBRANCH 107 109
BRANCH 107 136
ATOM    136  CB  LEU d   1      14.306  12.006  10.762  0.00  0.00    -0.035 C 
ATOM    137  H66 LEU d   1      14.514  11.637   9.747  0.00  0.00     0.037 H 
ATOM    138  H67 LEU d   1      13.872  13.015  10.703  0.00  0.00     0.037 H 
BRANCH 136 139
ATOM    139  CG  LEU d   1      13.242  11.089  11.368  0.00  0.00    -0.059 C 
ATOM    140  H68 LEU d   1      13.178  11.298  12.446  0.00  0.00     0.038 H 
BRANCH 139 141
ATOM    141  CD1 LEU d   1      11.895  11.392  10.739  0.00  0.00    -0.073 C 
ATOM    142  H69 LEU d   1      11.130  10.732  11.175  0.00  0.00     0.028 H 
ATOM    143  H70 LEU d   1      11.950  11.222   9.654  0.00  0.00     0.028 H 
ATOM    144  H71 LEU d   1      11.628  12.441  10.932  0.00  0.00     0.028 H 
ENDBRANCH 139 141
BRANCH 139 145
ATOM    145  CD2 LEU d   1      13.608   9.617  11.191  0.00  0.00    -0.073 C 
ATOM    146  H72 LEU d   1      14.587   9.424  11.655  0.00  0.00     0.028 H 
ATOM    147  H73 LEU d   1      13.657   9.378  10.118  0.00  0.00     0.028 H 
ATOM    148  H74 LEU d   1      12.844   8.989  11.672  0.00  0.00     0.028 H 
ENDBRANCH 139 145
ENDBRANCH 136 139
ENDBRANCH 107 136
ENDBRANCH 105 107
ENDBRANCH 101 103
BRANCH 101 149
ATOM    149  CB  VAL d   1      16.634  15.635  14.133  0.00  0.00    -0.033 C 
ATOM    150  H57 VAL d   1      15.980  15.877  13.282  0.00  0.00     0.042 H 
BRANCH 149 151
ATOM    151  CG1 VAL d   1      16.384  16.672  15.231  0.00  0.00    -0.071 C 
ATOM    152  H58 VAL d   1      16.651  17.672  14.859  0.00  0.00     0.028 H 
ATOM    153  H59 VAL d   1      17.000  16.431  16.110  0.00  0.00     0.028 H 
ATOM    154  H60 VAL d   1      15.321  16.658  15.513  0.00  0.00     0.028 H 
ENDBRANCH 149 151
BRANCH 149 155
ATOM    155  CG2 VAL d   1      18.084  15.700  13.646  0.00  0.00    -0.071 C 
ATOM    156  H61 VAL d   1      18.241  14.948  12.859  0.00  0.00     0.028 H 
ATOM    157  H62 VAL d   1      18.763  15.497  14.487  0.00  0.00     0.028 H 
ATOM    158  H63 VAL d   1      18.291  16.702  13.242  0.00  0.00     0.028 H 
ENDBRANCH 149 155
ENDBRANCH 101 149
ENDBRANCH  99 101
ENDBRANCH   1  97
TORSDOF 43
