REMARK  7 active torsions:
REMARK  status: ('A' for Active; 'I' for Inactive)
REMARK    1  A    between atoms: C3_6  and  C_1 
REMARK    2  A    between atoms: C_1  and  CA_13 
REMARK    3  A    between atoms: CA_13  and  N_2 
REMARK    4  A    between atoms: C2_5  and  C10_15 
REMARK    5  A    between atoms: CA_13  and  CB_14 
REMARK    6  A    between atoms: C10_15  and  C11_16 
REMARK    7  A    between atoms: C10_15  and  C12_17 
ROOT
ATOM      1  N1  AVR d   1      14.690  40.483  17.738  0.00  0.00    -0.171 NA
ATOM      2  C2  AVR d   1      13.978  41.064  16.770  0.00  0.00     0.075 A 
ATOM      3  C3  AVR d   1      14.494  42.339  16.590  0.00  0.00     0.067 A 
ATOM      4  C4  AVR d   1      15.526  42.467  17.508  0.00  0.00     0.074 A 
ATOM      5  N5  AVR d   1      15.567  41.234  18.175  0.00  0.00    -0.244 N 
ATOM      6  C6  AVR d   1      16.526  41.037  19.176  0.00  0.00     0.004 A 
ATOM      7  C7  AVR d   1      17.407  42.063  19.498  0.00  0.00    -0.066 A 
ATOM      8  C8  AVR d   1      17.350  43.283  18.835  0.00  0.00    -0.079 A 
ATOM      9  C9  AVR d   1      16.410  43.491  17.832  0.00  0.00    -0.054 A 
ATOM     10  H   AVR d   1      16.581  40.083  19.701  0.00  0.00     0.114 H 
ATOM     11  H   AVR d   1      18.151  41.909  20.279  0.00  0.00     0.085 H 
ATOM     12  H   AVR d   1      18.044  44.079  19.102  0.00  0.00     0.083 H 
ATOM     13  H   AVR d   1      16.366  44.445  17.306  0.00  0.00     0.087 H 
ENDROOT
BRANCH   3  14
ATOM     14  C   AVR d   1      14.014  43.395  15.594  0.00  0.00     0.193 C 
ATOM     15  O   AVR d   1      14.782  43.859  14.751  0.00  0.00    -0.290 OA
BRANCH  14  16
ATOM     16  CA  AVR d   1      12.545  43.814  15.616  0.00  0.00     0.158 C 
ATOM     17  H   AVR d   1      11.959  43.264  16.353  0.00  0.00     0.096 H 
BRANCH  16  18
ATOM     18  N   AVR d   1      11.995  43.560  14.275  0.00  0.00    -0.068 N 
ATOM     19  H   AVR d   1      12.030  42.560  14.078  0.00  0.00     0.275 HD
ATOM     20  H   AVR d   1      11.027  43.881  14.239  0.00  0.00     0.275 HD
ATOM     21  H   AVR d   1      12.548  44.064  13.581  0.00  0.00     0.275 HD
ENDBRANCH  16  18
BRANCH  16  22
ATOM     22  CB  AVR d   1      12.509  45.307  15.947  0.00  0.00    -0.043 C 
ATOM     23  H   AVR d   1      13.102  45.855  15.215  0.00  0.00     0.030 H 
ATOM     24  H   AVR d   1      11.478  45.660  15.918  0.00  0.00     0.030 H 
ATOM     25  H   AVR d   1      12.921  45.467  16.943  0.00  0.00     0.030 H 
ENDBRANCH  16  22
ENDBRANCH  14  16
ENDBRANCH   3  14
BRANCH   2  26
ATOM     26  C10 AVR d   1      12.783  40.472  16.013  0.00  0.00    -0.016 C 
ATOM     27  H   AVR d   1      12.673  41.007  15.070  0.00  0.00     0.048 H 
BRANCH  26  28
ATOM     28  C11 AVR d   1      11.505  40.643  16.840  0.00  0.00    -0.068 C 
ATOM     29  H   AVR d   1      10.654  40.262  16.275  0.00  0.00     0.028 H 
ATOM     30  H   AVR d   1      11.601  40.088  17.773  0.00  0.00     0.028 H 
ATOM     31  H   AVR d   1      11.354  41.700  17.058  0.00  0.00     0.028 H 
ENDBRANCH  26  28
BRANCH  26  32
ATOM     32  C12 AVR d   1      13.014  38.993  15.695  0.00  0.00    -0.068 C 
ATOM     33  H   AVR d   1      13.113  38.434  16.625  0.00  0.00     0.028 H 
ATOM     34  H   AVR d   1      12.167  38.608  15.127  0.00  0.00     0.028 H 
ATOM     35  H   AVR d   1      13.926  38.887  15.107  0.00  0.00     0.028 H 
ENDBRANCH  26  32
ENDBRANCH   2  26
TORSDOF 7
