REMARK  18 active torsions:
REMARK  status: ('A' for Active; 'I' for Inactive)
REMARK    1  A    between atoms: C2_4  and  C1_1 
REMARK    2  A    between atoms: C2_4  and  O2_16 
REMARK    3  A    between atoms: C4_6  and  O4_7 
REMARK    4  A    between atoms: C5_8  and  O5_9 
REMARK    5  A    between atoms: C7_12  and  C6_10 
REMARK    6  A    between atoms: C7_12  and  O7_13 
REMARK    7  A    between atoms: C8_14  and  C7_12 
REMARK    8  A    between atoms: O8_15  and  C8_14 
REMARK    9  A    between atoms: C2_23  and  O8_15 
REMARK   10  A    between atoms: O2_16  and  C9_17 
REMARK   11  A    between atoms: C10_18  and  C11_19 
REMARK   12  A    between atoms: C1_20  and  C2_23 
REMARK   13  A    between atoms: C4_25  and  O4_26 
REMARK   14  A    between atoms: C5_27  and  O5_28 
REMARK   15  A    between atoms: C6_29  and  C7_31 
REMARK   16  A    between atoms: C7_31  and  O7_32 
REMARK   17  A    between atoms: C7_31  and  C8_33 
REMARK   18  A    between atoms: C8_33  and  O8_34 
ROOT
ATOM      1  C7  KDA d   1       7.500   1.688  80.619  0.00  0.00     0.083 C 
ATOM      2  H8  KDA d   1       6.599   1.757  79.991  0.00  0.00     0.090 H 
ENDROOT
BRANCH   1   3
ATOM      3  C6  KDA d   1       7.815   3.077  81.185  0.00  0.00     0.096 C 
ATOM      4  C5  KDA d   1       6.685   3.544  82.101  0.00  0.00     0.088 C 
ATOM      5  C4  KDA d   1       7.025   4.921  82.648  0.00  0.00     0.068 C 
ATOM      6  H5  KDA d   1       6.575   2.835  82.935  0.00  0.00     0.091 H 
ATOM      7  C3  KDA d   1       7.184   5.884  81.472  0.00  0.00     0.024 C 
ATOM      8  H3  KDA d   1       7.964   4.875  83.219  0.00  0.00     0.087 H 
ATOM      9  C2  KDA d   1       8.320   5.366  80.576  0.00  0.00     0.262 C 
ATOM     10  H1  KDA d   1       6.247   5.928  80.897  0.00  0.00     0.045 H 
ATOM     11  H2  KDA d   1       7.433   6.889  81.845  0.00  0.00     0.045 H 
ATOM     12  O6  KDA d   1       8.017   4.032  80.106  0.00  0.00    -0.335 OA
ATOM     13  H7  KDA d   1       8.741   3.013  81.775  0.00  0.00     0.091 H 
BRANCH   4  14
ATOM     14  O5  KDA d   1       5.457   3.609  81.372  0.00  0.00    -0.390 OA
ATOM     15  H6  KDA d   1       4.762   3.901  81.950  0.00  0.00     0.210 HD
ENDBRANCH   4  14
BRANCH   5  16
ATOM     16  O4  KDA d   1       5.969   5.362  83.500  0.00  0.00    -0.393 OA
ATOM     17  H4  KDA d   1       5.157   5.391  83.007  0.00  0.00     0.210 HD
ENDBRANCH   5  16
BRANCH   9  18
ATOM     18  C1  KDA d   1       8.500   6.322  79.378  0.00  0.00     0.239 C 
ATOM     19  O1A KDA d   1       9.352   7.229  79.501  0.00  0.00    -0.644 OA
ATOM     20  O1B KDA d   1       7.780   6.134  78.369  0.00  0.00    -0.644 OA
ENDBRANCH   9  18
BRANCH   9  21
ATOM     21  O2  KDA d   1       9.523   5.318  81.359  0.00  0.00    -0.317 OA
BRANCH  21  22
ATOM     22  C9  KDA d   1      10.570   4.846  80.630  0.00  0.00     0.013 C 
ATOM     23  C10 KDA d   1      11.823   4.725  81.206  0.00  0.00    -0.086 C 
ATOM     24  H13 KDA d   1      12.661   4.351  80.620  0.00  0.00     0.079 H 
ATOM     25  H12 KDA d   1      10.422   4.562  79.589  0.00  0.00     0.122 H 
BRANCH  23  26
ATOM     26  C11 KDA d   1      12.007   5.086  82.544  0.00  0.00    -0.058 C 
ATOM     27  H14 KDA d   1      13.058   4.924  82.826  0.00  0.00     0.032 H 
ATOM     28  H15 KDA d   1      11.357   4.470  83.183  0.00  0.00     0.032 H 
ATOM     29  H16 KDA d   1      11.752   6.148  82.676  0.00  0.00     0.032 H 
ENDBRANCH  23  26
ENDBRANCH  21  22
ENDBRANCH   9  21
ENDBRANCH   1   3
BRANCH   1  30
ATOM     30  O7  KDA d   1       7.251   0.775  81.694  0.00  0.00    -0.391 OA
ATOM     31  H9  KDA d   1       7.056  -0.085  81.339  0.00  0.00     0.210 HD
ENDBRANCH   1  30
BRANCH   1  32
ATOM     32  C8  KDA d   1       8.661   1.172  79.762  0.00  0.00     0.050 C 
ATOM     33  H10 KDA d   1       9.572   1.120  80.376  0.00  0.00     0.078 H 
ATOM     34  H11 KDA d   1       8.825   1.859  78.919  0.00  0.00     0.078 H 
BRANCH  32  35
ATOM     35  O8  KDA d   1       8.352  -0.137  79.257  0.00  0.00    -0.344 OA
BRANCH  35  36
ATOM     36  C2  KDO d   1       9.446  -0.678  78.509  0.00  0.00     0.258 C 
ATOM     37  C3  KDO d   1       9.110  -2.087  78.013  0.00  0.00     0.024 C 
ATOM     38  C4  KDO d   1       8.838  -2.964  79.232  0.00  0.00     0.068 C 
ATOM     39  H17 KDA d   1       9.958  -2.494  77.442  0.00  0.00     0.045 H 
ATOM     40  H18 KDA d   1       8.218  -2.054  77.371  0.00  0.00     0.045 H 
ATOM     41  C5  KDO d   1      10.080  -2.981  80.105  0.00  0.00     0.088 C 
ATOM     42  H19 KDA d   1       7.986  -2.560  79.799  0.00  0.00     0.087 H 
ATOM     43  C6  KDO d   1      10.405  -1.558  80.547  0.00  0.00     0.096 C 
ATOM     44  H21 KDA d   1       9.910  -3.619  80.984  0.00  0.00     0.091 H 
ATOM     45  O6  KDO d   1      10.607  -0.732  79.369  0.00  0.00    -0.336 OA
ATOM     46  H23 KDA d   1       9.566  -1.153  81.131  0.00  0.00     0.091 H 
BRANCH  36  47
ATOM     47  C1  KDO d   1       9.748   0.211  77.290  0.00  0.00     0.239 C 
ATOM     48  O1A KDO d   1       8.787   0.821  76.774  0.00  0.00    -0.644 OA
ATOM     49  O1B KDO d   1      10.931   0.244  76.892  0.00  0.00    -0.644 OA
ENDBRANCH  36  47
BRANCH  38  50
ATOM     50  O4  KDO d   1       8.551  -4.296  78.814  0.00  0.00    -0.393 OA
ATOM     51  H20 KDA d   1       8.383  -4.837  79.577  0.00  0.00     0.210 HD
ENDBRANCH  38  50
BRANCH  41  52
ATOM     52  O5  KDO d   1      11.183  -3.477  79.346  0.00  0.00    -0.390 OA
ATOM     53  H22 KDA d   1      10.990  -4.358  79.049  0.00  0.00     0.210 HD
ENDBRANCH  41  52
BRANCH  43  54
ATOM     54  C7  KDO d   1      11.661  -1.588  81.427  0.00  0.00     0.083 C 
ATOM     55  H24 KDA d   1      12.488  -2.005  80.834  0.00  0.00     0.090 H 
BRANCH  54  56
ATOM     56  O7  KDO d   1      11.452  -2.426  82.569  0.00  0.00    -0.391 OA
ATOM     57  H25 KDA d   1      12.238  -2.434  83.103  0.00  0.00     0.210 HD
ENDBRANCH  54  56
BRANCH  54  58
ATOM     58  C8  KDO d   1      12.053  -0.177  81.877  0.00  0.00     0.043 C 
ATOM     59  H26 KDA d   1      12.283   0.436  80.993  0.00  0.00     0.078 H 
ATOM     60  H27 KDA d   1      12.941  -0.235  82.523  0.00  0.00     0.078 H 
BRANCH  58  61
ATOM     61  O8  KDO d   1      10.983   0.424  82.601  0.00  0.00    -0.398 OA
ATOM     62  H28 KDA d   1      10.784  -0.103  83.366  0.00  0.00     0.209 HD
ENDBRANCH  58  61
ENDBRANCH  54  58
ENDBRANCH  43  54
ENDBRANCH  35  36
ENDBRANCH  32  35
ENDBRANCH   1  32
TORSDOF 18
