REMARK  4 active torsions:
REMARK  status: ('A' for Active; 'I' for Inactive)
REMARK    1  A    between atoms: C1_1  and  C10_10 
REMARK    2  A    between atoms: N9_9  and  C13_13 
REMARK    3  A    between atoms: C16_16  and  C19_19 
REMARK    4  A    between atoms: C19_19  and  C20_20 
ROOT
ATOM      1  C1  15C d   1      29.897  -9.077  30.189  0.00  0.00    -0.045 A 
ATOM      2  C2  15C d   1      29.685  -9.584  31.459  0.00  0.00    -0.076 A 
ATOM      3  C3  15C d   1      28.539 -10.341  31.739  0.00  0.00    -0.081 A 
ATOM      4  C4  15C d   1      27.521 -10.646  30.826  0.00  0.00    -0.067 A 
ATOM      5  C5  15C d   1      27.658 -10.177  29.544  0.00  0.00     0.049 A 
ATOM      6  C6  15C d   1      28.852  -9.375  29.173  0.00  0.00     0.054 A 
ATOM      7  C7  15C d   1      28.610  -9.078  27.739  0.00  0.00     0.267 A 
ATOM      8  C8  15C d   1      26.847 -10.273  28.299  0.00  0.00     0.266 A 
ATOM      9  N9  15C d   1      27.463  -9.622  27.284  0.00  0.00    -0.244 N 
ATOM     10  O11 15C d   1      29.444  -8.388  27.047  0.00  0.00    -0.267 OA
ATOM     11  O12 15C d   1      25.730 -10.902  28.239  0.00  0.00    -0.267 OA
ATOM     12  H1  15C d   1      30.410  -9.395  32.242  0.00  0.00     0.084 H 
ATOM     13  H2  15C d   1      28.431 -10.723  32.748  0.00  0.00     0.083 H 
ATOM     14  H3  15C d   1      26.657 -11.231  31.122  0.00  0.00     0.085 H 
ENDROOT
BRANCH   9  15
ATOM     15  C13 15C d   1      27.039  -9.457  26.005  0.00  0.00     0.046 A 
ATOM     16  C14 15C d   1      26.608 -10.487  25.157  0.00  0.00    -0.056 A 
ATOM     17  C15 15C d   1      26.202 -10.243  23.839  0.00  0.00    -0.067 A 
ATOM     18  H7  15C d   1      26.588 -11.504  25.533  0.00  0.00     0.087 H 
ATOM     19  C16 15C d   1      26.203  -8.947  23.307  0.00  0.00     0.009 A 
ATOM     20  H8  15C d   1      25.881 -11.072  23.219  0.00  0.00     0.085 H 
ATOM     21  C17 15C d   1      26.628  -7.900  24.114  0.00  0.00    -0.067 A 
ATOM     22  C18 15C d   1      27.027  -8.174  25.418  0.00  0.00    -0.056 A 
ATOM     23  H9  15C d   1      26.648  -6.885  23.734  0.00  0.00     0.085 H 
ATOM     24  H10 15C d   1      27.353  -7.340  26.029  0.00  0.00     0.087 H 
BRANCH  19  25
ATOM     25  C19 15C d   1      25.763  -8.645  21.894  0.00  0.00     0.155 C 
ATOM     26  O21 15C d   1      26.534  -8.047  21.155  0.00  0.00    -0.293 OA
BRANCH  25  27
ATOM     27  C20 15C d   1      24.393  -9.045  21.410  0.00  0.00    -0.017 C 
ATOM     28  H11 15C d   1      24.270  -8.737  20.361  0.00  0.00     0.038 H 
ATOM     29  H12 15C d   1      23.628  -8.554  22.029  0.00  0.00     0.038 H 
ATOM     30  H13 15C d   1      24.281 -10.137  21.487  0.00  0.00     0.038 H 
ENDBRANCH  25  27
ENDBRANCH  19  25
ENDBRANCH   9  15
BRANCH   1  31
ATOM     31  C10 15C d   1      31.122  -8.264  29.862  0.00  0.00    -0.050 C 
ATOM     32  H4  15C d   1      31.751  -8.172  30.759  0.00  0.00     0.033 H 
ATOM     33  H5  15C d   1      30.818  -7.263  29.523  0.00  0.00     0.033 H 
ATOM     34  H6  15C d   1      31.692  -8.764  29.065  0.00  0.00     0.033 H 
ENDBRANCH   1  31
TORSDOF 4
