REMARK  4 active torsions:
REMARK  status: ('A' for Active; 'I' for Inactive)
REMARK    1  A    between atoms: C1_1  and  C13_13 
REMARK    2  A    between atoms: N8_8  and  C10_10 
REMARK    3  A    between atoms: C16_16  and  C20_20 
REMARK    4  A    between atoms: C17_17  and  O19_19 
ROOT
ATOM      1  C1  20C d   1     -30.098   8.708  30.213  0.00  0.00    -0.045 A 
ATOM      2  C2  20C d   1     -30.007   9.129  31.526  0.00  0.00    -0.076 A 
ATOM      3  C3  20C d   1     -28.990  10.008  31.911  0.00  0.00    -0.081 A 
ATOM      4  C4  20C d   1     -27.993  10.532  31.076  0.00  0.00    -0.067 A 
ATOM      5  C5  20C d   1     -28.013  10.159  29.757  0.00  0.00     0.049 A 
ATOM      6  C6  20C d   1     -29.073   9.233  29.267  0.00  0.00     0.054 A 
ATOM      7  C7  20C d   1     -27.176  10.477  28.566  0.00  0.00     0.266 A 
ATOM      8  N8  20C d   1     -27.647   9.824  27.476  0.00  0.00    -0.244 N 
ATOM      9  C9  20C d   1     -28.736   9.107  27.822  0.00  0.00     0.267 A 
ATOM     10  O11 20C d   1     -29.420   8.375  27.019  0.00  0.00    -0.267 OA
ATOM     11  O12 20C d   1     -26.155  11.247  28.607  0.00  0.00    -0.267 OA
ATOM     12  H1  20C d   1     -30.725   8.777  32.258  0.00  0.00     0.084 H 
ATOM     13  H2  20C d   1     -28.971  10.312  32.951  0.00  0.00     0.083 H 
ATOM     14  H3  20C d   1     -27.235  11.206  31.459  0.00  0.00     0.085 H 
ENDROOT
BRANCH   8  15
ATOM     15  C10 20C d   1     -27.174   9.868  26.208  0.00  0.00     0.048 A 
ATOM     16  C14 20C d   1     -26.621  11.028  25.652  0.00  0.00    -0.055 A 
ATOM     17  C15 20C d   1     -26.142  11.117  24.344  0.00  0.00    -0.061 A 
ATOM     18  H7  20C d   1     -26.561  11.912  26.276  0.00  0.00     0.087 H 
ATOM     19  C16 20C d   1     -26.203  10.023  23.481  0.00  0.00     0.073 A 
ATOM     20  H8  20C d   1     -25.716  12.050  23.994  0.00  0.00     0.085 H 
ATOM     21  C17 20C d   1     -26.790   8.770  24.022  0.00  0.00     0.084 A 
ATOM     22  C18 20C d   1     -27.241   8.763  25.338  0.00  0.00    -0.024 A 
ATOM     23  H9  20C d   1     -27.673   7.845  25.719  0.00  0.00     0.091 H 
BRANCH  19  24
ATOM     24  C20 20C d   1     -25.675  10.117  22.064  0.00  0.00     0.212 C 
ATOM     25  O21 20C d   1     -25.959  11.113  21.348  0.00  0.00    -0.644 OA
ATOM     26  O22 20C d   1     -24.939   9.198  21.632  0.00  0.00    -0.644 OA
ENDBRANCH  19  24
BRANCH  21  27
ATOM     27  O19 20C d   1     -26.891   7.647  23.254  0.00  0.00    -0.360 OA
ATOM     28  H10 20C d   1     -26.539   7.823  22.389  0.00  0.00     0.217 HD
ENDBRANCH  21  27
ENDBRANCH   8  15
BRANCH   1  29
ATOM     29  C13 20C d   1     -31.191   7.767  29.793  0.00  0.00    -0.050 C 
ATOM     30  H4  20C d   1     -31.819   7.523  30.663  0.00  0.00     0.033 H 
ATOM     31  H5  20C d   1     -30.746   6.845  29.391  0.00  0.00     0.033 H 
ATOM     32  H6  20C d   1     -31.808   8.245  29.018  0.00  0.00     0.033 H 
ENDBRANCH   1  29
TORSDOF 4
