REMARK  9 active torsions:
REMARK  status: ('A' for Active; 'I' for Inactive)
REMARK    1  A    between atoms: C20_12  and  N3_2 
REMARK    2  A    between atoms: C5_4  and  C4_3 
REMARK    3  A    between atoms: C6_5  and  C11_26 
REMARK    4  A    between atoms: N2_29  and  C13_9 
REMARK    5  A    between atoms: C17_11  and  C19_33 
REMARK    6  A    between atoms: C16_31  and  C20_12 
REMARK    7  A    between atoms: C3_24  and  C2_23 
REMARK    8  A    between atoms: C12_27  and  C9_25 
REMARK       I    between atoms: C12_27  and  N2_29 
REMARK    9  A    between atoms: N4_39  and  C25_38 
ROOT
ATOM      1  C13 0LI d   1       5.501   3.891  16.410  0.00  0.00     0.035 A 
ATOM      2  C15 0LI d   1       6.152   6.192  16.999  0.00  0.00    -0.072 A 
ATOM      3  C17 0LI d   1       7.480   4.294  17.887  0.00  0.00     0.058 A 
ATOM      4  C14 0LI d   1       5.289   5.284  16.321  0.00  0.00    -0.057 A 
ATOM      5  C16 0LI d   1       7.244   5.728  17.784  0.00  0.00    -0.017 A 
ATOM      6  C18 0LI d   1       6.597   3.403  17.195  0.00  0.00    -0.042 A 
ATOM      7  H5  0LI d   1       5.973   7.258  16.915  0.00  0.00     0.084 H 
ATOM      8  H22 0LI d   1       4.463   5.666  15.732  0.00  0.00     0.086 H 
ATOM      9  H23 0LI d   1       6.761   2.334  17.267  0.00  0.00     0.088 H 
ENDROOT
BRANCH   1  10
ATOM     10  N2  0LI d   1       4.594   3.034  15.710  0.00  0.00    -0.323 N 
ATOM     11  C12 0LI d   1       4.559   1.672  15.780  0.00  0.00     0.256 C 
ATOM     12  O1  0LI d   1       5.071   1.012  16.691  0.00  0.00    -0.267 OA
ATOM     13  H21 0LI d   1       3.923   3.475  15.114  0.00  0.00     0.169 HD
BRANCH  11  14
ATOM     14  C9  0LI d   1       3.852   0.965  14.682  0.00  0.00     0.033 A 
ATOM     15  C8  0LI d   1       3.250   1.651  13.553  0.00  0.00    -0.067 A 
ATOM     16  C7  0LI d   1       2.578   0.873  12.517  0.00  0.00    -0.075 A 
ATOM     17  H3  0LI d   1       3.299   2.731  13.480  0.00  0.00     0.085 H 
ATOM     18  C6  0LI d   1       2.516  -0.543  12.612  0.00  0.00    -0.043 A 
ATOM     19  H2  0LI d   1       2.124   1.378  11.672  0.00  0.00     0.084 H 
ATOM     20  C5  0LI d   1       3.122  -1.214  13.747  0.00  0.00     0.025 A 
ATOM     21  C10 0LI d   1       3.774  -0.466  14.753  0.00  0.00    -0.049 A 
ATOM     22  H4  0LI d   1       4.223  -0.983  15.594  0.00  0.00     0.087 H 
BRANCH  18  23
ATOM     23  C11 0LI d   1       1.810  -1.331  11.499  0.00  0.00    -0.050 C 
ATOM     24  H18 0LI d   1       1.853  -2.406  11.727  0.00  0.00     0.033 H 
ATOM     25  H19 0LI d   1       2.312  -1.140  10.539  0.00  0.00     0.033 H 
ATOM     26  H20 0LI d   1       0.759  -1.012  11.433  0.00  0.00     0.033 H 
ENDBRANCH  18  23
BRANCH  20  27
ATOM     27  C4  0LI d   1       3.107  -2.659  13.912  0.00  0.00    -0.059 C 
ATOM     28  C3  0LI d   1       3.167  -3.853  14.024  0.00  0.00    -0.040 C 
BRANCH  28  29
ATOM     29  C2  0LI d   1       3.299  -5.243  14.142  0.00  0.00     0.131 A 
ATOM     30  N82 0LI d   1       2.485  -6.067  14.864  0.00  0.00    -0.206 N 
ATOM     31  N81 0LI d   1       1.394  -5.703  15.609  0.00  0.00    -0.177 NA
ATOM     32  C84 0LI d   1       3.030  -7.376  14.672  0.00  0.00     0.151 A 
ATOM     33  C83 0LI d   1       0.801  -6.746  16.210  0.00  0.00     0.022 A 
ATOM     34  C82 0LI d   1       1.225  -8.113  16.113  0.00  0.00    -0.061 A 
ATOM     35  H16 0LI d   1      -0.075  -6.537  16.822  0.00  0.00     0.117 H 
ATOM     36  C81 0LI d   1       2.343  -8.424  15.341  0.00  0.00    -0.035 A 
ATOM     37  H15 0LI d   1       0.680  -8.898  16.636  0.00  0.00     0.086 H 
ATOM     38  H14 0LI d   1       2.684  -9.454  15.252  0.00  0.00     0.089 H 
ATOM     39  N1  0LI d   1       4.099  -7.335  13.887  0.00  0.00    -0.238 NA
ATOM     40  C1  0LI d   1       4.268  -5.999  13.559  0.00  0.00     0.041 A 
ATOM     41  H17 0LI d   1       5.063  -5.610  12.925  0.00  0.00     0.119 H 
ENDBRANCH  28  29
ENDBRANCH  20  27
ENDBRANCH  11  14
ENDBRANCH   1  10
BRANCH   3  42
ATOM     42  C19 0LI d   1       8.618   3.704  18.705  0.00  0.00     0.418 C 
ATOM     43  F1  0LI d   1       8.418   3.960  19.989  0.00  0.00    -0.166 F 
ATOM     44  F2  0LI d   1       8.697   2.384  18.583  0.00  0.00    -0.166 F 
ATOM     45  F3  0LI d   1       9.791   4.233  18.290  0.00  0.00    -0.166 F 
ENDBRANCH   3  42
BRANCH   5  46
ATOM     46  C20 0LI d   1       8.117   6.778  18.488  0.00  0.00     0.108 C 
ATOM     47  H6  0LI d   1       8.723   6.272  19.254  0.00  0.00     0.083 H 
ATOM     48  H7  0LI d   1       8.780   7.239  17.741  0.00  0.00     0.083 H 
BRANCH  46  49
ATOM     49  N3  0LI d   1       7.347   7.826  19.129  0.00  0.00    -0.064 N 
ATOM     50  C21 0LI d   1       6.491   7.358  20.246  0.00  0.00     0.106 C 
ATOM     51  C22 0LI d   1       5.603   8.519  20.764  0.00  0.00     0.105 C 
ATOM     52  H8  0LI d   1       7.129   6.995  21.065  0.00  0.00     0.078 H 
ATOM     53  H9  0LI d   1       5.848   6.539  19.892  0.00  0.00     0.078 H 
ATOM     54  N4  0LI d   1       6.425   9.691  21.171  0.00  0.00    -0.072 N 
ATOM     55  H10 0LI d   1       5.026   8.168  21.632  0.00  0.00     0.078 H 
ATOM     56  H11 0LI d   1       4.913   8.826  19.964  0.00  0.00     0.078 H 
ATOM     57  C23 0LI d   1       7.386  10.102  20.103  0.00  0.00     0.105 C 
ATOM     58  H29 0LI d   1       6.967   9.416  21.975  0.00  0.00     0.279 HD
ATOM     59  C24 0LI d   1       8.240   8.915  19.612  0.00  0.00     0.106 C 
ATOM     60  H24 0LI d   1       6.820  10.509  19.252  0.00  0.00     0.078 H 
ATOM     61  H25 0LI d   1       8.053  10.879  20.505  0.00  0.00     0.078 H 
ATOM     62  H12 0LI d   1       8.891   9.247  18.790  0.00  0.00     0.078 H 
ATOM     63  H13 0LI d   1       8.859   8.541  20.441  0.00  0.00     0.078 H 
ATOM     64  H1  0LI d   1       6.736   8.214  18.427  0.00  0.00     0.280 HD
BRANCH  54  65
ATOM     65  C25 0LI d   1       5.569  10.813  21.573  0.00  0.00     0.066 C 
ATOM     66  H26 0LI d   1       4.874  10.481  22.358  0.00  0.00     0.068 H 
ATOM     67  H27 0LI d   1       4.997  11.168  20.703  0.00  0.00     0.068 H 
ATOM     68  H28 0LI d   1       6.194  11.631  21.959  0.00  0.00     0.068 H 
ENDBRANCH  54  65
ENDBRANCH  46  49
ENDBRANCH   5  46
TORSDOF 9
