REMARK  19 active torsions:
REMARK  status: ('A' for Active; 'I' for Inactive)
REMARK    1  A    between atoms: C2_4  and  C1_1 
REMARK    2  A    between atoms: O8_29  and  C2_4 
REMARK    3  A    between atoms: C4_6  and  O4_7 
REMARK    4  A    between atoms: C5_8  and  O5_9 
REMARK    5  A    between atoms: C6_10  and  C7_12 
REMARK    6  A    between atoms: C7_12  and  O7_13 
REMARK    7  A    between atoms: C7_12  and  C8_14 
REMARK    8  A    between atoms: C8_14  and  O8_15 
REMARK    9  A    between atoms: C2_17  and  C1_16 
REMARK   10  A    between atoms: C2_17  and  O2_18 
REMARK   11  A    between atoms: O2_18  and  C10_31 
REMARK   12  A    between atoms: C4_20  and  O4_21 
REMARK   13  A    between atoms: C5_22  and  O5_23 
REMARK   14  A    between atoms: C7_26  and  C6_24 
REMARK   15  A    between atoms: C7_26  and  O7_27 
REMARK   16  A    between atoms: C8_28  and  C7_26 
REMARK   17  A    between atoms: O7_27  and  C9_30 
REMARK   18  A    between atoms: C8_28  and  O8_29 
REMARK   19  A    between atoms: C11_32  and  C12_33 
ROOT
ATOM      1  H20 KDO d   1       5.906  -1.292  -2.413  0.00  0.00     0.090 H 
ATOM      2  C7  KME d   1       6.645  -1.125  -3.210  0.00  0.00     0.086 C 
ENDROOT
BRANCH   2   3
ATOM      3  C6  KME d   1       6.849  -2.420  -4.003  0.00  0.00     0.096 C 
ATOM      4  C5  KME d   1       5.578  -2.764  -4.802  0.00  0.00     0.088 C 
ATOM      5  C4  KME d   1       5.818  -4.058  -5.579  0.00  0.00     0.068 C 
ATOM      6  H17 KDO d   1       5.367  -1.950  -5.511  0.00  0.00     0.091 H 
ATOM      7  C3  KME d   1       6.134  -5.169  -4.573  0.00  0.00     0.024 C 
ATOM      8  H15 KDO d   1       6.679  -3.922  -6.250  0.00  0.00     0.087 H 
ATOM      9  C2  KME d   1       7.394  -4.766  -3.784  0.00  0.00     0.262 C 
ATOM     10  H13 KDO d   1       5.288  -5.296  -3.882  0.00  0.00     0.045 H 
ATOM     11  H14 KDO d   1       6.316  -6.113  -5.107  0.00  0.00     0.045 H 
ATOM     12  O6  KME d   1       7.180  -3.514  -3.105  0.00  0.00    -0.335 OA
ATOM     13  H19 KDO d   1       7.682  -2.275  -4.707  0.00  0.00     0.091 H 
BRANCH   4  14
ATOM     14  O5  KME d   1       4.457  -2.914  -3.922  0.00  0.00    -0.390 OA
ATOM     15  H18 KDO d   1       3.682  -3.119  -4.431  0.00  0.00     0.210 HD
ENDBRANCH   4  14
BRANCH   5  16
ATOM     16  O4  KME d   1       4.665  -4.402  -6.370  0.00  0.00    -0.393 OA
ATOM     17  H16 KDO d   1       3.915  -4.523  -5.799  0.00  0.00     0.210 HD
ENDBRANCH   5  16
BRANCH   9  18
ATOM     18  C1  KME d   1       7.736  -5.872  -2.778  0.00  0.00     0.239 C 
ATOM     19  O1A KME d   1       7.239  -5.779  -1.635  0.00  0.00    -0.644 OA
ATOM     20  O1B KME d   1       8.495  -6.784  -3.177  0.00  0.00    -0.644 OA
ENDBRANCH   9  18
BRANCH   9  21
ATOM     21  O2  KME d   1       8.480  -4.598  -4.690  0.00  0.00    -0.317 OA
BRANCH  21  22
ATOM     22  C10 KME d   1       9.648  -4.228  -3.927  0.00  0.00     0.013 C 
ATOM     23  C11 KME d   1      10.863  -4.026  -4.567  0.00  0.00    -0.086 C 
ATOM     24  H27 KDO d   1      11.748  -3.743  -4.000  0.00  0.00     0.079 H 
ATOM     25  H26 KDO d   1       9.576  -4.107  -2.847  0.00  0.00     0.122 H 
BRANCH  23  26
ATOM     26  C12 KME d   1      10.928  -4.192  -5.943  0.00  0.00    -0.058 C 
ATOM     27  H28 KDO d   1      11.954  -3.996  -6.288  0.00  0.00     0.032 H 
ATOM     28  H29 KDO d   1      10.236  -3.489  -6.430  0.00  0.00     0.032 H 
ATOM     29  H30 KDO d   1      10.645  -5.223  -6.202  0.00  0.00     0.032 H 
ENDBRANCH  23  26
ENDBRANCH  21  22
ENDBRANCH   9  21
ENDBRANCH   2   3
BRANCH   2  30
ATOM     30  O7  KME d   1       6.122  -0.101  -4.078  0.00  0.00    -0.386 OA
BRANCH  30  31
ATOM     31  C9  KME d   1       5.757   1.072  -3.354  0.00  0.00     0.005 C 
ATOM     32  H23 KDO d   1       5.364   1.826  -4.052  0.00  0.00     0.066 H 
ATOM     33  H24 KDO d   1       6.641   1.475  -2.839  0.00  0.00     0.066 H 
ATOM     34  H25 KDO d   1       4.984   0.820  -2.613  0.00  0.00     0.066 H 
ENDBRANCH  30  31
ENDBRANCH   2  30
BRANCH   2  35
ATOM     35  C8  KME d   1       8.009  -0.830  -2.553  0.00  0.00     0.050 C 
ATOM     36  H21 KDO d   1       8.774  -0.757  -3.340  0.00  0.00     0.078 H 
ATOM     37  H22 KDO d   1       8.261  -1.656  -1.871  0.00  0.00     0.078 H 
BRANCH  35  38
ATOM     38  O8  KME d   1       7.992   0.394  -1.810  0.00  0.00    -0.344 OA
BRANCH  38  39
ATOM     39  C2  KDO d   1       9.233   0.724  -1.154  0.00  0.00     0.258 C 
ATOM     40  C3  KDO d   1       9.072   2.117  -0.534  0.00  0.00     0.024 C 
ATOM     41  C4  KDO d   1       8.772   3.113  -1.644  0.00  0.00     0.068 C 
ATOM     42  H1  KDO d   1      10.002   2.404  -0.021  0.00  0.00     0.045 H 
ATOM     43  H2  KDO d   1       8.243   2.107   0.189  0.00  0.00     0.045 H 
ATOM     44  C5  KDO d   1       9.951   3.093  -2.617  0.00  0.00     0.088 C 
ATOM     45  H3  KDO d   1       7.851   2.819  -2.169  0.00  0.00     0.087 H 
ATOM     46  C6  KDO d   1      10.142   1.704  -3.208  0.00  0.00     0.096 C 
ATOM     47  H5  KDO d   1       9.767   3.814  -3.427  0.00  0.00     0.091 H 
ATOM     48  O6  KDO d   1      10.324   0.735  -2.129  0.00  0.00    -0.336 OA
ATOM     49  H7  KDO d   1       9.231   1.436  -3.764  0.00  0.00     0.091 H 
BRANCH  39  50
ATOM     50  C1  KDO d   1       9.543  -0.224   0.006  0.00  0.00     0.239 C 
ATOM     51  O1A KDO d   1       8.569  -0.654   0.660  0.00  0.00    -0.644 OA
ATOM     52  O1B KDO d   1      10.749  -0.448   0.247  0.00  0.00    -0.644 OA
ENDBRANCH  39  50
BRANCH  41  53
ATOM     53  O4  KDO d   1       8.606   4.425  -1.098  0.00  0.00    -0.393 OA
ATOM     54  H4  KDO d   1       8.419   5.037  -1.800  0.00  0.00     0.210 HD
ENDBRANCH  41  53
BRANCH  44  55
ATOM     55  O5  KDO d   1      11.143   3.448  -1.914  0.00  0.00    -0.390 OA
ATOM     56  H6  KDO d   1      11.045   4.319  -1.547  0.00  0.00     0.210 HD
ENDBRANCH  44  55
BRANCH  46  57
ATOM     57  C7  KDO d   1      11.330   1.675  -4.196  0.00  0.00     0.083 C 
ATOM     58  H8  KDO d   1      12.247   1.811  -3.604  0.00  0.00     0.090 H 
BRANCH  57  59
ATOM     59  O7  KDO d   1      11.235   2.771  -5.116  0.00  0.00    -0.391 OA
ATOM     60  H9  KDO d   1      11.970   2.743  -5.718  0.00  0.00     0.210 HD
ENDBRANCH  57  59
BRANCH  57  61
ATOM     61  C8  KDO d   1      11.476   0.350  -4.954  0.00  0.00     0.043 C 
ATOM     62  H10 KDO d   1      12.339   0.417  -5.632  0.00  0.00     0.078 H 
ATOM     63  H11 KDO d   1      10.563   0.168  -5.540  0.00  0.00     0.078 H 
BRANCH  61  64
ATOM     64  O8  KDO d   1      11.675  -0.735  -4.053  0.00  0.00    -0.398 OA
ATOM     65  H12 KDO d   1      10.930  -0.799  -3.467  0.00  0.00     0.209 HD
ENDBRANCH  61  64
ENDBRANCH  57  61
ENDBRANCH  46  57
ENDBRANCH  38  39
ENDBRANCH  35  38
ENDBRANCH   2  35
TORSDOF 19
