REMARK  9 active torsions:
REMARK  status: ('A' for Active; 'I' for Inactive)
REMARK    1  A    between atoms: S1_1  and  N20_4 
REMARK    2  A    between atoms: S1_1  and  C2_9 
REMARK    3  A    between atoms: N20_4  and  C23_5 
REMARK    4  A    between atoms: N20_4  and  C21_7 
REMARK    5  A    between atoms: C23_5  and  C24_6 
REMARK    6  A    between atoms: C21_7  and  C22_8 
REMARK    7  A    between atoms: C4_14  and  C5_15 
REMARK       I    between atoms: C5_15  and  N6_17 
REMARK    8  A    between atoms: N6_17  and  C7_18 
REMARK    9  A    between atoms: C8_23  and  C9_24 
ROOT
ATOM      1  C2  B82 d   1    -186.482 147.567  32.638  0.00  0.00     0.093 A 
ATOM      2  C18 B82 d   1    -185.779 147.341  33.938  0.00  0.00     0.033 A 
ATOM      3 BR   B82 d   1    -185.569 145.684  34.873  0.00  0.00    -0.049 Br
ATOM      4  C17 B82 d   1    -185.158 148.460  34.627  0.00  0.00    -0.064 A 
ATOM      5  C16 B82 d   1    -185.205 149.770  34.084  0.00  0.00    -0.066 A 
ATOM      6  C4  B82 d   1    -185.877 150.012  32.827  0.00  0.00     0.033 A 
ATOM      7  C3  B82 d   1    -186.510 148.917  32.115  0.00  0.00    -0.044 A 
ATOM      8  H11 B82 d   1    -184.651 148.291  35.570  0.00  0.00     0.085 H 
ATOM      9  H12 B82 d   1    -184.736 150.592  34.613  0.00  0.00     0.085 H 
ATOM     10  H18 B82 d   1    -187.013 149.113  31.175  0.00  0.00     0.087 H 
ENDROOT
BRANCH   1  11
ATOM     11  S1  B82 d   1    -187.322 146.272  31.632  0.00  0.00     0.245 S 
ATOM     12  O26 B82 d   1    -187.816 145.273  32.561  0.00  0.00    -0.206 OA
ATOM     13  O25 B82 d   1    -188.308 146.970  30.838  0.00  0.00    -0.206 OA
BRANCH  11  14
ATOM     14  N20 B82 d   1    -186.127 145.526  30.564  0.00  0.00    -0.207 NA
BRANCH  14  15
ATOM     15  C23 B82 d   1    -185.525 146.453  29.524  0.00  0.00    -0.010 C 
ATOM     16  H1  B82 d   1    -184.429 146.412  29.614  0.00  0.00     0.056 H 
ATOM     17  H2  B82 d   1    -185.871 147.477  29.729  0.00  0.00     0.056 H 
BRANCH  15  18
ATOM     18  C24 B82 d   1    -185.908 146.090  28.078  0.00  0.00    -0.064 C 
ATOM     19  H3  B82 d   1    -185.437 146.802  27.384  0.00  0.00     0.029 H 
ATOM     20  H4  B82 d   1    -187.001 146.137  27.965  0.00  0.00     0.029 H 
ATOM     21  H5  B82 d   1    -185.559 145.072  27.851  0.00  0.00     0.029 H 
ENDBRANCH  15  18
ENDBRANCH  14  15
BRANCH  14  22
ATOM     22  C21 B82 d   1    -185.045 144.786  31.437  0.00  0.00    -0.010 C 
ATOM     23  H6  B82 d   1    -185.202 143.707  31.293  0.00  0.00     0.056 H 
ATOM     24  H7  B82 d   1    -185.246 145.049  32.486  0.00  0.00     0.056 H 
BRANCH  22  25
ATOM     25  C22 B82 d   1    -183.548 145.057  31.187  0.00  0.00    -0.064 C 
ATOM     26  H8  B82 d   1    -182.945 144.457  31.885  0.00  0.00     0.029 H 
ATOM     27  H9  B82 d   1    -183.337 146.125  31.345  0.00  0.00     0.029 H 
ATOM     28  H10 B82 d   1    -183.293 144.782  30.153  0.00  0.00     0.029 H 
ENDBRANCH  22  25
ENDBRANCH  14  22
ENDBRANCH  11  14
ENDBRANCH   1  11
BRANCH   6  29
ATOM     29  C5  B82 d   1    -185.931 151.370  32.227  0.00  0.00     0.256 C 
ATOM     30  O15 B82 d   1    -185.898 151.483  30.998  0.00  0.00    -0.267 OA
ATOM     31  N6  B82 d   1    -186.009 152.388  33.194  0.00  0.00    -0.322 N 
ATOM     32  H13 B82 d   1    -186.026 152.075  34.144  0.00  0.00     0.169 HD
BRANCH  31  33
ATOM     33  C7  B82 d   1    -186.068 153.814  33.017  0.00  0.00     0.052 A 
ATOM     34  C14 B82 d   1    -186.049 154.446  31.708  0.00  0.00    -0.056 A 
ATOM     35  C13 B82 d   1    -186.111 155.860  31.559  0.00  0.00    -0.081 A 
ATOM     36  H14 B82 d   1    -185.986 153.824  30.822  0.00  0.00     0.086 H 
ATOM     37  C12 B82 d   1    -186.195 156.695  32.712  0.00  0.00    -0.082 A 
ATOM     38  H15 B82 d   1    -186.094 156.302  30.569  0.00  0.00     0.083 H 
ATOM     39  C11 B82 d   1    -186.215 156.122  34.023  0.00  0.00    -0.064 A 
ATOM     40  H16 B82 d   1    -186.244 157.772  32.594  0.00  0.00     0.083 H 
ATOM     41  C8  B82 d   1    -186.153 154.678  34.219  0.00  0.00     0.067 A 
ATOM     42  H17 B82 d   1    -186.277 156.774  34.887  0.00  0.00     0.085 H 
BRANCH  41  43
ATOM     43  C9  B82 d   1    -186.181 154.158  35.663  0.00  0.00     0.211 C 
ATOM     44  O45 B82 d   1    -186.385 152.916  35.842  0.00  0.00    -0.644 OA
ATOM     45  O10 B82 d   1    -185.998 154.998  36.600  0.00  0.00    -0.644 OA
ENDBRANCH  41  43
ENDBRANCH  31  33
ENDBRANCH   6  29
TORSDOF 9
