REMARK  8 active torsions:
REMARK  status: ('A' for Active; 'I' for Inactive)
REMARK    1  A    between atoms: C1_1  and  C7_7 
REMARK    2  A    between atoms: C2_2  and  N10_10 
REMARK       I    between atoms: N10_10  and  C11_11 
REMARK    3  A    between atoms: C11_11  and  C13_13 
REMARK    4  A    between atoms: C16_16  and  N26_26 
REMARK    5  A    between atoms: C17_17  and  O19_19 
REMARK    6  A    between atoms: O19_19  and  C20_20 
REMARK    7  A    between atoms: C28_28  and  C33_33 
REMARK    8  A    between atoms: C30_30  and  C32_32 
ROOT
ATOM      1  C13 B83 d   1    -138.173 135.037  91.259  0.00  0.00     0.035 A 
ATOM      2  C14 B83 d   1    -137.943 134.393  92.508  0.00  0.00    -0.066 A 
ATOM      3  C15 B83 d   1    -137.889 132.963  92.574  0.00  0.00    -0.059 A 
ATOM      4  C16 B83 d   1    -138.064 132.134  91.394  0.00  0.00     0.045 A 
ATOM      5  C17 B83 d   1    -138.289 132.829  90.141  0.00  0.00     0.098 A 
ATOM      6  C18 B83 d   1    -138.344 134.252  90.090  0.00  0.00    -0.033 A 
ATOM      7  H6  B83 d   1    -137.809 134.984  93.407  0.00  0.00     0.085 H 
ATOM      8  H7  B83 d   1    -137.713 132.486  93.531  0.00  0.00     0.086 H 
ATOM      9  H8  B83 d   1    -138.520 134.744  89.140  0.00  0.00     0.089 H 
ENDROOT
BRANCH   4  10
ATOM     10  N26 B83 d   1    -138.026 130.712  91.434  0.00  0.00    -0.280 NA
ATOM     11  C27 B83 d   1    -136.766 130.095  90.916  0.00  0.00    -0.013 C 
ATOM     12  C28 B83 d   1    -136.991 128.580  90.679  0.00  0.00    -0.046 C 
ATOM     13  H14 B83 d   1    -135.960 130.235  91.651  0.00  0.00     0.057 H 
ATOM     14  H15 B83 d   1    -136.485 130.577  89.968  0.00  0.00     0.057 H 
ATOM     15  C29 B83 d   1    -137.404 127.907  92.011  0.00  0.00    -0.057 C 
ATOM     16  H16 B83 d   1    -137.798 128.448  89.944  0.00  0.00     0.041 H 
ATOM     17  C30 B83 d   1    -138.680 128.570  92.568  0.00  0.00    -0.046 C 
ATOM     18  H17 B83 d   1    -136.589 128.016  92.742  0.00  0.00     0.034 H 
ATOM     19  H18 B83 d   1    -137.597 126.839  91.834  0.00  0.00     0.034 H 
ATOM     20  C31 B83 d   1    -138.435 130.092  92.757  0.00  0.00    -0.013 C 
ATOM     21  H19 B83 d   1    -139.497 128.430  91.845  0.00  0.00     0.041 H 
ATOM     22  H20 B83 d   1    -139.359 130.570  93.115  0.00  0.00     0.057 H 
ATOM     23  H21 B83 d   1    -137.634 130.244  93.496  0.00  0.00     0.057 H 
BRANCH  12  24
ATOM     24  C33 B83 d   1    -135.720 127.936  90.138  0.00  0.00    -0.072 C 
ATOM     25  H25 B83 d   1    -135.437 128.422  89.193  0.00  0.00     0.028 H 
ATOM     26  H26 B83 d   1    -135.898 126.865  89.961  0.00  0.00     0.028 H 
ATOM     27  H27 B83 d   1    -134.908 128.056  90.870  0.00  0.00     0.028 H 
ENDBRANCH  12  24
BRANCH  17  28
ATOM     28  C32 B83 d   1    -139.086 127.923  93.894  0.00  0.00    -0.072 C 
ATOM     29  H22 B83 d   1    -139.255 126.847  93.740  0.00  0.00     0.028 H 
ATOM     30  H23 B83 d   1    -140.011 128.391  94.262  0.00  0.00     0.028 H 
ATOM     31  H24 B83 d   1    -138.284 128.066  94.633  0.00  0.00     0.028 H 
ENDBRANCH  17  28
ENDBRANCH   4  10
BRANCH   5  32
ATOM     32  O19 B83 d   1    -138.459 132.065  88.976  0.00  0.00    -0.309 OA
BRANCH  32  33
ATOM     33  C20 B83 d   1    -137.574 132.168  87.881  0.00  0.00     0.076 A 
ATOM     34  C21 B83 d   1    -136.258 132.762  87.919  0.00  0.00    -0.050 A 
ATOM     35  C22 B83 d   1    -135.461 132.806  86.743  0.00  0.00    -0.080 A 
ATOM     36  H9  B83 d   1    -135.877 133.175  88.846  0.00  0.00     0.087 H 
ATOM     37  C23 B83 d   1    -135.957 132.262  85.527  0.00  0.00    -0.083 A 
ATOM     38  H10 B83 d   1    -134.475 133.255  86.773  0.00  0.00     0.083 H 
ATOM     39  C24 B83 d   1    -137.251 131.673  85.483  0.00  0.00    -0.080 A 
ATOM     40  H11 B83 d   1    -135.348 132.296  84.631  0.00  0.00     0.083 H 
ATOM     41  C25 B83 d   1    -138.056 131.627  86.656  0.00  0.00    -0.050 A 
ATOM     42  H12 B83 d   1    -137.625 131.258  84.554  0.00  0.00     0.083 H 
ATOM     43  H13 B83 d   1    -139.042 131.177  86.616  0.00  0.00     0.087 H 
ENDBRANCH  32  33
ENDBRANCH   5  32
BRANCH   1  44
ATOM     44  C11 B83 d   1    -138.279 136.519  91.089  0.00  0.00     0.256 C 
ATOM     45  N10 B83 d   1    -138.872 137.164  92.157  0.00  0.00    -0.322 N 
ATOM     46  H5  B83 d   1    -139.086 136.563  92.927  0.00  0.00     0.169 HD
ATOM     47  O12 B83 d   1    -137.885 137.030  90.032  0.00  0.00    -0.267 OA
BRANCH  45  48
ATOM     48  C2  B83 d   1    -139.236 138.525  92.367  0.00  0.00     0.052 A 
ATOM     49  C1  B83 d   1    -139.834 138.918  93.636  0.00  0.00     0.067 A 
ATOM     50  C6  B83 d   1    -140.215 140.293  93.829  0.00  0.00    -0.064 A 
ATOM     51  C5  B83 d   1    -140.019 141.259  92.807  0.00  0.00    -0.082 A 
ATOM     52  H4  B83 d   1    -140.659 140.596  94.770  0.00  0.00     0.085 H 
ATOM     53  C4  B83 d   1    -139.435 140.881  91.577  0.00  0.00    -0.081 A 
ATOM     54  H3  B83 d   1    -140.318 142.288  92.971  0.00  0.00     0.083 H 
ATOM     55  C3  B83 d   1    -139.047 139.535  91.358  0.00  0.00    -0.056 A 
ATOM     56  H2  B83 d   1    -139.283 141.621  90.800  0.00  0.00     0.083 H 
ATOM     57  H1  B83 d   1    -138.598 139.260  90.410  0.00  0.00     0.086 H 
BRANCH  49  58
ATOM     58  C7  B83 d   1    -140.109 138.005  94.817  0.00  0.00     0.211 C 
ATOM     59  O8  B83 d   1    -139.758 136.710  94.642  0.00  0.00    -0.644 OA
ATOM     60  O9  B83 d   1    -140.603 138.357  95.871  0.00  0.00    -0.644 OA
ENDBRANCH  49  58
ENDBRANCH  45  48
ENDBRANCH   1  44
TORSDOF 8
