REMARK WARNING: 32 MAX_TORS EXCEEDED!!!
REMARK  44 active torsions:
REMARK  status: ('A' for Active; 'I' for Inactive)
REMARK    1  A    between atoms: C1_1  and  O1_2 
REMARK    2  A    between atoms: O1_2  and  CAL_13 
REMARK    3  A    between atoms: C2_3  and  O2_4 
REMARK    4  A    between atoms: C3_5  and  O3_6 
REMARK    5  A    between atoms: C4_7  and  O4_8 
REMARK    6  A    between atoms: C5_9  and  C6_11 
REMARK    7  A    between atoms: C6_11  and  O6_12 
REMARK    8  A    between atoms: CAL_13  and  CAM_14 
REMARK    9  A    between atoms: CAM_14  and  OAN_15 
REMARK   10  A    between atoms: CAM_14  and  CBF_33 
REMARK   11  A    between atoms: OAN_15  and  CAO_16 
REMARK   12  A    between atoms: CAO_16  and  CAQ_18 
REMARK   13  A    between atoms: CAQ_18  and  CAR_19 
REMARK   14  A    between atoms: CAR_19  and  CAS_20 
REMARK   15  A    between atoms: CAS_20  and  CAT_21 
REMARK   16  A    between atoms: CAT_21  and  CAU_22 
REMARK   17  A    between atoms: CAU_22  and  CAV_23 
REMARK   18  A    between atoms: CAV_23  and  CAW_24 
REMARK   19  A    between atoms: CAW_24  and  CAX_25 
REMARK   20  A    between atoms: CAX_25  and  CAY_26 
REMARK   21  A    between atoms: CAY_26  and  CAZ_27 
REMARK   22  A    between atoms: CAZ_27  and  CBA_28 
REMARK   23  A    between atoms: CBA_28  and  CBB_29 
REMARK   24  A    between atoms: CBB_29  and  CBC_30 
REMARK   25  A    between atoms: CBC_30  and  CBD_31 
REMARK   26  A    between atoms: CBD_31  and  CBE_32 
REMARK   27  A    between atoms: CBF_33  and  OBG_34 
REMARK   28  A    between atoms: OBG_34  and  CBH_35 
REMARK   29  A    between atoms: CBH_35  and  CBJ_37 
REMARK   30  A    between atoms: CBJ_37  and  CBK_38 
REMARK   31  A    between atoms: CBK_38  and  CBL_39 
REMARK   32  A    between atoms: CBL_39  and  CBM_40 
REMARK   33  A    between atoms: CBM_40  and  CBN_41 
REMARK   34  A    between atoms: CBN_41  and  CBO_42 
REMARK   35  A    between atoms: CBO_42  and  CBP_43 
REMARK   36  A    between atoms: CBP_43  and  CBQ_44 
REMARK   37  A    between atoms: CBR_45  and  CBS_46 
REMARK   38  A    between atoms: CBS_46  and  CBT_47 
REMARK   39  A    between atoms: CBT_47  and  CBU_48 
REMARK   40  A    between atoms: CBU_48  and  CBV_49 
REMARK   41  A    between atoms: CBV_49  and  CBW_50 
REMARK   42  A    between atoms: CBW_50  and  CBX_51 
REMARK   43  A    between atoms: CBX_51  and  CBZ_52 
REMARK   44  A    between atoms: CBZ_52  and  CCA_53 
ROOT
ATOM      1  CAM 1O2 d   1      -5.270  13.107  44.770  0.00  0.00     0.089 C 
ATOM      2  H   1O2 d   1      -4.320  12.647  45.043  0.00  0.00     0.090 H 
ENDROOT
BRANCH   1   3
ATOM      3  CAL 1O2 d   1      -5.455  14.453  45.428  0.00  0.00     0.049 C 
ATOM      4  H   1O2 d   1      -6.356  14.966  45.090  0.00  0.00     0.078 H 
ATOM      5  H   1O2 d   1      -5.600  14.377  46.506  0.00  0.00     0.078 H 
BRANCH   3   6
ATOM      6  O1  1O2 d   1      -4.250  15.160  45.079  0.00  0.00    -0.356 OA
BRANCH   6   7
ATOM      7  C1  1O2 d   1      -4.124  16.460  45.702  0.00  0.00     0.158 C 
ATOM      8  C2  1O2 d   1      -2.859  17.138  45.123  0.00  0.00     0.110 C 
ATOM      9  C3  1O2 d   1      -1.582  16.458  45.654  0.00  0.00     0.092 C 
ATOM     10  H   1O2 d   1      -2.868  18.178  45.450  0.00  0.00     0.094 H 
ATOM     11  C4  1O2 d   1      -1.602  16.292  47.200  0.00  0.00     0.090 C 
ATOM     12  H   1O2 d   1      -1.533  15.452  45.237  0.00  0.00     0.091 H 
ATOM     13  C5  1O2 d   1      -2.921  15.634  47.691  0.00  0.00     0.089 C 
ATOM     14  H   1O2 d   1      -0.780  15.629  47.471  0.00  0.00     0.091 H 
ATOM     15  O5  1O2 d   1      -4.077  16.382  47.175  0.00  0.00    -0.348 OA
ATOM     16  H   1O2 d   1      -2.902  14.619  47.294  0.00  0.00     0.090 H 
ATOM     17  H   1O2 d   1      -5.009  17.056  45.477  0.00  0.00     0.133 H 
BRANCH   8  18
ATOM     18  O2  1O2 d   1      -2.864  17.116  43.684  0.00  0.00    -0.388 OA
ATOM     19  H   1O2 d   1      -2.889  16.206  43.379  0.00  0.00     0.210 HD
ENDBRANCH   8  18
BRANCH   9  20
ATOM     20  O3  1O2 d   1      -0.435  17.209  45.233  0.00  0.00    -0.390 OA
ATOM     21  H   1O2 d   1      -0.493  18.102  45.581  0.00  0.00     0.210 HD
ENDBRANCH   9  20
BRANCH  11  22
ATOM     22  O4  1O2 d   1      -1.414  17.565  47.841  0.00  0.00    -0.390 OA
ATOM     23  H   1O2 d   1      -0.568  17.934  47.576  0.00  0.00     0.210 HD
ENDBRANCH  11  22
BRANCH  13  24
ATOM     24  C6  1O2 d   1      -3.043  15.478  49.230  0.00  0.00     0.043 C 
ATOM     25  H   1O2 d   1      -4.059  15.734  49.531  0.00  0.00     0.078 H 
ATOM     26  H   1O2 d   1      -2.322  16.139  49.710  0.00  0.00     0.078 H 
BRANCH  24  27
ATOM     27  O6  1O2 d   1      -2.768  14.125  49.625  0.00  0.00    -0.398 OA
ATOM     28  H   1O2 d   1      -2.848  14.049  50.579  0.00  0.00     0.209 HD
ENDBRANCH  24  27
ENDBRANCH  13  24
ENDBRANCH   6   7
ENDBRANCH   3   6
ENDBRANCH   1   3
BRANCH   1  29
ATOM     29  OAN 1O2 d   1      -5.277  13.272  43.331  0.00  0.00    -0.312 OA
BRANCH  29  30
ATOM     30  CAO 1O2 d   1      -4.056  13.254  42.705  0.00  0.00     0.259 C 
ATOM     31  OAP 1O2 d   1      -3.073  12.725  43.215  0.00  0.00    -0.265 OA
BRANCH  30  32
ATOM     32  CAQ 1O2 d   1      -3.915  13.866  41.323  0.00  0.00     0.016 C 
ATOM     33  H   1O2 d   1      -2.902  14.249  41.199  0.00  0.00     0.048 H 
ATOM     34  H   1O2 d   1      -4.632  14.680  41.214  0.00  0.00     0.048 H 
BRANCH  32  35
ATOM     35  CAR 1O2 d   1      -4.185  12.816  40.270  0.00  0.00    -0.057 C 
ATOM     36  H   1O2 d   1      -4.956  13.194  39.599  0.00  0.00     0.033 H 
ATOM     37  H   1O2 d   1      -4.499  11.900  40.771  0.00  0.00     0.033 H 
BRANCH  35  38
ATOM     38  CAS 1O2 d   1      -2.942  12.510  39.447  0.00  0.00    -0.065 C 
ATOM     39  H   1O2 d   1      -2.053  12.839  39.984  0.00  0.00     0.033 H 
ATOM     40  H   1O2 d   1      -2.990  13.037  38.494  0.00  0.00     0.033 H 
BRANCH  38  41
ATOM     41  CAT 1O2 d   1      -2.873  11.001  39.203  0.00  0.00    -0.065 C 
ATOM     42  H   1O2 d   1      -3.690  10.519  39.741  0.00  0.00     0.033 H 
ATOM     43  H   1O2 d   1      -1.910  10.631  39.554  0.00  0.00     0.033 H 
BRANCH  41  44
ATOM     44  CAU 1O2 d   1      -3.010  10.688  37.712  0.00  0.00    -0.065 C 
ATOM     45  H   1O2 d   1      -3.165  11.624  37.175  0.00  0.00     0.033 H 
ATOM     46  H   1O2 d   1      -3.851  10.008  37.577  0.00  0.00     0.033 H 
BRANCH  44  47
ATOM     47  CAV 1O2 d   1      -1.751  10.017  37.165  0.00  0.00    -0.065 C 
ATOM     48  H   1O2 d   1      -1.694   9.004  37.563  0.00  0.00     0.033 H 
ATOM     49  H   1O2 d   1      -0.883  10.604  37.465  0.00  0.00     0.033 H 
BRANCH  47  50
ATOM     50  CAW 1O2 d   1      -1.789   9.943  35.642  0.00  0.00    -0.065 C 
ATOM     51  H   1O2 d   1      -2.154  10.892  35.248  0.00  0.00     0.033 H 
ATOM     52  H   1O2 d   1      -2.450   9.130  35.341  0.00  0.00     0.033 H 
BRANCH  50  53
ATOM     53  CAX 1O2 d   1      -0.389   9.679  35.090  0.00  0.00    -0.065 C 
ATOM     54  H   1O2 d   1      -0.357   8.683  34.649  0.00  0.00     0.033 H 
ATOM     55  H   1O2 d   1       0.337   9.746  35.900  0.00  0.00     0.033 H 
BRANCH  53  56
ATOM     56  CAY 1O2 d   1      -0.053  10.714  34.024  0.00  0.00    -0.065 C 
ATOM     57  H   1O2 d   1       0.762  11.328  34.407  0.00  0.00     0.033 H 
ATOM     58  H   1O2 d   1      -0.961  11.281  33.818  0.00  0.00     0.033 H 
BRANCH  56  59
ATOM     59  CAZ 1O2 d   1       0.416  10.095  32.702  0.00  0.00    -0.065 C 
ATOM     60  H   1O2 d   1       0.090   9.056  32.659  0.00  0.00     0.033 H 
ATOM     61  H   1O2 d   1       1.503  10.150  32.648  0.00  0.00     0.033 H 
BRANCH  59  62
ATOM     62  CBA 1O2 d   1      -0.186  10.861  31.516  0.00  0.00    -0.065 C 
ATOM     63  H   1O2 d   1      -0.919  11.561  31.916  0.00  0.00     0.033 H 
ATOM     64  H   1O2 d   1      -0.614  10.126  30.834  0.00  0.00     0.033 H 
BRANCH  62  65
ATOM     65  CBB 1O2 d   1       0.852  11.680  30.723  0.00  0.00    -0.065 C 
ATOM     66  H   1O2 d   1       0.471  11.797  29.709  0.00  0.00     0.033 H 
ATOM     67  H   1O2 d   1       1.800  11.144  30.773  0.00  0.00     0.033 H 
BRANCH  65  68
ATOM     68  CBC 1O2 d   1       1.088  13.088  31.293  0.00  0.00    -0.065 C 
ATOM     69  H   1O2 d   1       2.148  13.196  31.523  0.00  0.00     0.033 H 
ATOM     70  H   1O2 d   1       0.475  13.208  32.186  0.00  0.00     0.033 H 
BRANCH  68  71
ATOM     71  CBD 1O2 d   1       0.693  14.178  30.277  0.00  0.00    -0.069 C 
ATOM     72  H   1O2 d   1      -0.254  14.605  30.608  0.00  0.00     0.032 H 
ATOM     73  H   1O2 d   1       0.640  13.706  29.296  0.00  0.00     0.032 H 
BRANCH  71  74
ATOM     74  CBE 1O2 d   1       1.707  15.325  30.181  0.00  0.00    -0.077 C 
ATOM     75  H   1O2 d   1       1.803  15.806  31.154  0.00  0.00     0.027 H 
ATOM     76  H   1O2 d   1       2.675  14.928  29.874  0.00  0.00     0.027 H 
ATOM     77  H   1O2 d   1       1.362  16.053  29.447  0.00  0.00     0.027 H 
ENDBRANCH  71  74
ENDBRANCH  68  71
ENDBRANCH  65  68
ENDBRANCH  62  65
ENDBRANCH  59  62
ENDBRANCH  56  59
ENDBRANCH  53  56
ENDBRANCH  50  53
ENDBRANCH  47  50
ENDBRANCH  44  47
ENDBRANCH  41  44
ENDBRANCH  38  41
ENDBRANCH  35  38
ENDBRANCH  32  35
ENDBRANCH  30  32
ENDBRANCH  29  30
ENDBRANCH   1  29
BRANCH   1  78
ATOM     78  CBF 1O2 d   1      -6.418  12.234  45.229  0.00  0.00     0.055 C 
ATOM     79  H   1O2 d   1      -7.329  12.546  44.718  0.00  0.00     0.079 H 
ATOM     80  H   1O2 d   1      -6.535  12.338  46.308  0.00  0.00     0.079 H 
BRANCH  78  81
ATOM     81  OBG 1O2 d   1      -6.149  10.840  44.913  0.00  0.00    -0.319 OA
BRANCH  81  82
ATOM     82  CBH 1O2 d   1      -7.263  10.077  45.130  0.00  0.00     0.258 C 
ATOM     83  OBI 1O2 d   1      -8.136  10.493  45.901  0.00  0.00    -0.265 OA
BRANCH  82  84
ATOM     84  CBJ 1O2 d   1      -7.409   8.685  44.477  0.00  0.00     0.016 C 
ATOM     85  H   1O2 d   1      -8.461   8.414  44.561  0.00  0.00     0.048 H 
ATOM     86  H   1O2 d   1      -6.707   8.028  44.992  0.00  0.00     0.048 H 
BRANCH  84  87
ATOM     87  CBK 1O2 d   1      -7.059   8.607  42.981  0.00  0.00    -0.057 C 
ATOM     88  H   1O2 d   1      -6.034   8.256  42.865  0.00  0.00     0.033 H 
ATOM     89  H   1O2 d   1      -7.156   9.596  42.532  0.00  0.00     0.033 H 
BRANCH  87  90
ATOM     90  CBL 1O2 d   1      -8.017   7.631  42.283  0.00  0.00    -0.065 C 
ATOM     91  H   1O2 d   1      -8.978   8.133  42.169  0.00  0.00     0.033 H 
ATOM     92  H   1O2 d   1      -8.078   6.731  42.894  0.00  0.00     0.033 H 
BRANCH  90  93
ATOM     93  CBM 1O2 d   1      -7.537   7.218  40.890  0.00  0.00    -0.065 C 
ATOM     94  H   1O2 d   1      -6.632   6.619  40.990  0.00  0.00     0.033 H 
ATOM     95  H   1O2 d   1      -7.338   8.115  40.303  0.00  0.00     0.033 H 
BRANCH  93  96
ATOM     96  CBN 1O2 d   1      -8.610   6.385  40.179  0.00  0.00    -0.065 C 
ATOM     97  H   1O2 d   1      -9.417   6.177  40.882  0.00  0.00     0.033 H 
ATOM     98  H   1O2 d   1      -8.159   5.458  39.824  0.00  0.00     0.033 H 
BRANCH  96  99
ATOM     99  CBO 1O2 d   1      -9.187   7.154  38.970  0.00  0.00    -0.062 C 
ATOM    100  H   1O2 d   1      -8.485   7.025  38.147  0.00  0.00     0.033 H 
ATOM    101  H   1O2 d   1      -9.329   8.187  39.288  0.00  0.00     0.033 H 
BRANCH  99 102
ATOM    102  CBP 1O2 d   1     -10.567   6.639  38.474  0.00  0.00    -0.050 C 
ATOM    103  H   1O2 d   1     -11.244   6.578  39.326  0.00  0.00     0.038 H 
ATOM    104  H   1O2 d   1     -10.430   5.661  38.013  0.00  0.00     0.038 H 
BRANCH 102 105
ATOM    105  CBQ 1O2 d   1     -11.118   7.511  37.523  0.00  0.00    -0.107 C 
ATOM    106  CBR 1O2 d   1     -12.477   7.842  37.373  0.00  0.00    -0.107 C 
ATOM    107  H   1O2 d   1     -12.733   8.570  36.604  0.00  0.00     0.076 H 
ATOM    108  H   1O2 d   1     -10.421   7.981  36.829  0.00  0.00     0.076 H 
BRANCH 106 109
ATOM    109  CBS 1O2 d   1     -13.525   7.313  38.130  0.00  0.00    -0.050 C 
ATOM    110  H   1O2 d   1     -13.220   7.298  39.176  0.00  0.00     0.038 H 
ATOM    111  H   1O2 d   1     -13.745   6.311  37.761  0.00  0.00     0.038 H 
BRANCH 109 112
ATOM    112  CBT 1O2 d   1     -14.803   8.168  38.008  0.00  0.00    -0.062 C 
ATOM    113  H   1O2 d   1     -14.908   8.439  36.957  0.00  0.00     0.033 H 
ATOM    114  H   1O2 d   1     -14.686   9.017  38.682  0.00  0.00     0.033 H 
BRANCH 112 115
ATOM    115  CBU 1O2 d   1     -16.106   7.434  38.422  0.00  0.00    -0.065 C 
ATOM    116  H   1O2 d   1     -16.542   6.997  37.524  0.00  0.00     0.033 H 
ATOM    117  H   1O2 d   1     -16.761   8.162  38.899  0.00  0.00     0.033 H 
BRANCH 115 118
ATOM    118  CBV 1O2 d   1     -15.858   6.295  39.427  0.00  0.00    -0.065 C 
ATOM    119  H   1O2 d   1     -15.144   6.650  40.170  0.00  0.00     0.033 H 
ATOM    120  H   1O2 d   1     -15.487   5.432  38.874  0.00  0.00     0.033 H 
BRANCH 118 121
ATOM    121  CBW 1O2 d   1     -17.134   5.876  40.159  0.00  0.00    -0.065 C 
ATOM    122  H   1O2 d   1     -17.994   6.134  39.541  0.00  0.00     0.033 H 
ATOM    123  H   1O2 d   1     -17.176   6.394  41.117  0.00  0.00     0.033 H 
BRANCH 121 124
ATOM    124  CBX 1O2 d   1     -17.143   4.364  40.414  0.00  0.00    -0.065 C 
ATOM    125  H   1O2 d   1     -16.245   3.942  39.963  0.00  0.00     0.033 H 
ATOM    126  H   1O2 d   1     -18.058   3.956  39.984  0.00  0.00     0.033 H 
BRANCH 124 127
ATOM    127  CBZ 1O2 d   1     -17.128   4.019  41.914  0.00  0.00    -0.069 C 
ATOM    128  H   1O2 d   1     -17.935   3.312  42.106  0.00  0.00     0.032 H 
ATOM    129  H   1O2 d   1     -17.247   4.946  42.475  0.00  0.00     0.032 H 
BRANCH 127 130
ATOM    130  CCA 1O2 d   1     -15.804   3.363  42.351  0.00  0.00    -0.077 C 
ATOM    131  H   1O2 d   1     -15.655   2.440  41.791  0.00  0.00     0.027 H 
ATOM    132  H   1O2 d   1     -14.979   4.047  42.153  0.00  0.00     0.027 H 
ATOM    133  H   1O2 d   1     -15.845   3.140  43.417  0.00  0.00     0.027 H 
ENDBRANCH 127 130
ENDBRANCH 124 127
ENDBRANCH 121 124
ENDBRANCH 118 121
ENDBRANCH 115 118
ENDBRANCH 112 115
ENDBRANCH 109 112
ENDBRANCH 106 109
ENDBRANCH 102 105
ENDBRANCH  99 102
ENDBRANCH  96  99
ENDBRANCH  93  96
ENDBRANCH  90  93
ENDBRANCH  87  90
ENDBRANCH  84  87
ENDBRANCH  82  84
ENDBRANCH  81  82
ENDBRANCH  78  81
ENDBRANCH   1  78
TORSDOF 44
