REMARK  11 active torsions:
REMARK  status: ('A' for Active; 'I' for Inactive)
REMARK    1  A    between atoms: C20_2  and  C19_4 
REMARK    2  A    between atoms: C19_4  and  O3_5 
REMARK    3  A    between atoms: O3_5  and  C1_6 
REMARK    4  A    between atoms: C3_8  and  C17_9 
REMARK    5  A    between atoms: C4_10  and  C7_14 
REMARK    6  A    between atoms: C5_11  and  C18_13 
REMARK    7  A    between atoms: C7_14  and  C8_15 
REMARK    8  A    between atoms: C12_17  and  C14_18 
REMARK    9  A    between atoms: C14_18  and  C16_19 
REMARK   10  A    between atoms: C14_18  and  C15_20 
REMARK   11  A    between atoms: C11_21  and  O4_22 
ROOT
ATOM      1  C7  B72 d   1       4.236  17.587  28.999  0.00  0.00    -0.016 C 
ATOM      2  H11 B72 d   1       4.910  16.954  29.595  0.00  0.00     0.047 H 
ATOM      3  H12 B72 d   1       3.798  16.992  28.184  0.00  0.00     0.047 H 
ENDROOT
BRANCH   1   4
ATOM      4  C4  B72 d   1       5.047  18.743  28.391  0.00  0.00    -0.042 A 
ATOM      5  C3  B72 d   1       6.154  19.352  29.236  0.00  0.00    -0.052 A 
ATOM      6  C2  B72 d   1       6.935  20.344  28.679  0.00  0.00    -0.044 A 
ATOM      7  C1  B72 d   1       6.694  20.772  27.325  0.00  0.00     0.070 A 
ATOM      8  H3  B72 d   1       7.729  20.800  29.259  0.00  0.00     0.088 H 
ATOM      9  C6  B72 d   1       5.633  20.191  26.532  0.00  0.00    -0.044 A 
ATOM     10  C5  B72 d   1       4.791  19.141  27.087  0.00  0.00    -0.052 A 
ATOM     11  H7  B72 d   1       5.464  20.539  25.519  0.00  0.00     0.088 H 
BRANCH   5  12
ATOM     12  C17 B72 d   1       6.395  18.922  30.695  0.00  0.00    -0.051 C 
ATOM     13  H4  B72 d   1       7.241  19.490  31.110  0.00  0.00     0.033 H 
ATOM     14  H5  B72 d   1       6.624  17.847  30.727  0.00  0.00     0.033 H 
ATOM     15  H6  B72 d   1       5.492  19.123  31.290  0.00  0.00     0.033 H 
ENDBRANCH   5  12
BRANCH   7  16
ATOM     16  O3  B72 d   1       7.506  21.812  26.801  0.00  0.00    -0.341 OA
BRANCH  16  17
ATOM     17  C19 B72 d   1       8.589  21.532  25.949  0.00  0.00     0.105 C 
ATOM     18  H1  B72 d   1       9.251  20.807  26.444  0.00  0.00     0.091 H 
ATOM     19  H2  B72 d   1       8.202  21.098  25.015  0.00  0.00     0.091 H 
BRANCH  17  20
ATOM     20  C20 B72 d   1       9.399  22.791  25.611  0.00  0.00     0.198 C 
ATOM     21  O1  B72 d   1      10.197  22.754  24.731  0.00  0.00    -0.646 OA
ATOM     22  O2  B72 d   1       8.777  24.016  25.871  0.00  0.00    -0.646 OA
ENDBRANCH  17  20
ENDBRANCH  16  17
ENDBRANCH   7  16
BRANCH  10  23
ATOM     23  C18 B72 d   1       3.671  18.503  26.236  0.00  0.00    -0.051 C 
ATOM     24  H8  B72 d   1       3.152  17.736  26.829  0.00  0.00     0.033 H 
ATOM     25  H9  B72 d   1       4.110  18.039  25.340  0.00  0.00     0.033 H 
ATOM     26  H10 B72 d   1       2.954  19.280  25.933  0.00  0.00     0.033 H 
ENDBRANCH  10  23
ENDBRANCH   1   4
BRANCH   1  27
ATOM     27  C8  B72 d   1       3.109  18.097  29.901  0.00  0.00    -0.053 A 
ATOM     28  C13 B72 d   1       2.802  17.365  31.080  0.00  0.00    -0.068 A 
ATOM     29  C12 B72 d   1       1.712  17.795  31.903  0.00  0.00    -0.021 A 
ATOM     30  H13 B72 d   1       3.385  16.493  31.352  0.00  0.00     0.085 H 
ATOM     31  C11 B72 d   1       0.945  18.938  31.531  0.00  0.00     0.072 A 
ATOM     32  C10 B72 d   1       1.269  19.690  30.319  0.00  0.00    -0.050 A 
ATOM     33  C9  B72 d   1       2.325  19.281  29.508  0.00  0.00    -0.074 A 
ATOM     34  H22 B72 d   1       0.688  20.565  30.052  0.00  0.00     0.087 H 
ATOM     35  H23 B72 d   1       2.566  19.825  28.602  0.00  0.00     0.084 H 
BRANCH  29  36
ATOM     36  C14 B72 d   1       1.373  17.054  33.198  0.00  0.00    -0.033 C 
ATOM     37  H14 B72 d   1       0.299  17.218  33.371  0.00  0.00     0.046 H 
BRANCH  36  38
ATOM     38  C16 B72 d   1       1.533  15.543  33.111  0.00  0.00    -0.069 C 
ATOM     39  H15 B72 d   1       1.271  15.090  34.079  0.00  0.00     0.028 H 
ATOM     40  H16 B72 d   1       2.576  15.298  32.862  0.00  0.00     0.028 H 
ATOM     41  H17 B72 d   1       0.868  15.148  32.329  0.00  0.00     0.028 H 
ENDBRANCH  36  38
BRANCH  36  42
ATOM     42  C15 B72 d   1       2.092  17.718  34.372  0.00  0.00    -0.069 C 
ATOM     43  H18 B72 d   1       1.914  18.803  34.344  0.00  0.00     0.028 H 
ATOM     44  H19 B72 d   1       3.172  17.521  34.299  0.00  0.00     0.028 H 
ATOM     45  H20 B72 d   1       1.707  17.308  35.317  0.00  0.00     0.028 H 
ENDBRANCH  36  42
ENDBRANCH  29  36
BRANCH  31  46
ATOM     46  O4  B72 d   1      -0.137  19.314  32.329  0.00  0.00    -0.360 OA
ATOM     47  H21 B72 d   1      -0.548  20.086  31.959  0.00  0.00     0.217 HD
ENDBRANCH  31  46
ENDBRANCH   1  27
TORSDOF 11
