REMARK  5 active torsions:
REMARK  status: ('A' for Active; 'I' for Inactive)
REMARK    1  A    between atoms: N1_2  and  C1_1 
REMARK    2  A    between atoms: C3_6  and  C5_10 
REMARK    3  A    between atoms: C10_16  and  C3_6 
REMARK    4  A    between atoms: C4_8  and  N3_7 
REMARK    5  A    between atoms: C16_22  and  C14_20 
ROOT
ATOM      1  N1  472 d   1      15.402  -5.495  17.042  0.00  0.00    -0.153 N 
ATOM      2  O1  472 d   1      14.344  -6.344  18.889  0.00  0.00    -0.269 OA
ATOM      3  C2  472 d   1      14.642  -6.405  17.705  0.00  0.00     0.276 A 
ATOM      4  N2  472 d   1      14.910  -6.979  15.430  0.00  0.00    -0.199 N 
ATOM      5  C3  472 d   1      14.219  -7.483  16.671  0.00  0.00     0.184 A 
ATOM      6  C4  472 d   1      15.510  -5.879  15.754  0.00  0.00     0.677 A 
ATOM      7  H4  472 d   1      14.906  -7.425  14.502  0.00  0.00     0.179 HD
ENDROOT
BRANCH   5   8
ATOM      8  C5  472 d   1      14.743  -8.899  16.968  0.00  0.00    -0.013 A 
ATOM      9  C6  472 d   1      15.012  -9.776  15.902  0.00  0.00    -0.057 A 
ATOM     10  C7  472 d   1      15.485 -11.051  16.170  0.00  0.00     0.002 A 
ATOM     11  H7  472 d   1      14.851  -9.457  14.879  0.00  0.00     0.086 H 
ATOM     12  N4  472 d   1      15.707 -11.517  17.418  0.00  0.00    -0.273 NA
ATOM     13  H8  472 d   1      15.688 -11.709  15.333  0.00  0.00     0.114 H 
ATOM     14  C8  472 d   1      15.448 -10.670  18.434  0.00  0.00     0.002 A 
ATOM     15  C9  472 d   1      14.972  -9.373  18.266  0.00  0.00    -0.057 A 
ATOM     16  H9  472 d   1      15.621 -11.021  19.445  0.00  0.00     0.114 H 
ATOM     17  H10 472 d   1      14.782  -8.740  19.125  0.00  0.00     0.086 H 
ENDBRANCH   5   8
BRANCH   5  18
ATOM     18  C10 472 d   1      12.679  -7.441  16.563  0.00  0.00    -0.015 A 
ATOM     19  C11 472 d   1      11.860  -8.539  16.883  0.00  0.00    -0.074 A 
ATOM     20  C12 472 d   1      10.471  -8.445  16.769  0.00  0.00    -0.082 A 
ATOM     21  H11 472 d   1      12.310  -9.465  17.221  0.00  0.00     0.084 H 
ATOM     22  C13 472 d   1       9.869  -7.260  16.337  0.00  0.00    -0.072 A 
ATOM     23  H12 472 d   1       9.853  -9.300  17.018  0.00  0.00     0.083 H 
ATOM     24  C14 472 d   1      10.653  -6.145  16.010  0.00  0.00    -0.024 A 
ATOM     25  H13 472 d   1       8.790  -7.203  16.254  0.00  0.00     0.084 H 
ATOM     26  C15 472 d   1      12.048  -6.261  16.132  0.00  0.00    -0.063 A 
ATOM     27  H14 472 d   1      12.664  -5.404  15.883  0.00  0.00     0.085 H 
BRANCH  24  28
ATOM     28  C16 472 d   1      10.061  -4.876  15.563  0.00  0.00    -0.008 A 
ATOM     29  C17 472 d   1       9.030  -4.253  16.282  0.00  0.00    -0.070 A 
ATOM     30  C18 472 d   1       8.483  -3.049  15.841  0.00  0.00    -0.065 A 
ATOM     31  H15 472 d   1       8.655  -4.712  17.189  0.00  0.00     0.085 H 
ATOM     32  C19 472 d   1       8.986  -2.486  14.679  0.00  0.00     0.002 A 
ATOM     33  H16 472 d   1       7.685  -2.566  16.393  0.00  0.00     0.085 H 
ATOM     34  N5  472 d   1       9.980  -3.048  13.952  0.00  0.00    -0.272 NA
ATOM     35  H17 472 d   1       8.563  -1.549  14.335  0.00  0.00     0.114 H 
ATOM     36  C20 472 d   1      10.491  -4.221  14.410  0.00  0.00     0.012 A 
ATOM     37  H18 472 d   1      11.290  -4.680  13.838  0.00  0.00     0.116 H 
ENDBRANCH  24  28
ENDBRANCH   5  18
BRANCH   1  38
ATOM     38  C1  472 d   1      15.972  -4.325  17.675  0.00  0.00     0.005 C 
ATOM     39  H1  472 d   1      15.691  -4.310  18.738  0.00  0.00     0.058 H 
ATOM     40  H2  472 d   1      15.590  -3.419  17.182  0.00  0.00     0.058 H 
ATOM     41  H3  472 d   1      17.068  -4.357  17.586  0.00  0.00     0.058 H 
ENDBRANCH   1  38
BRANCH   6  42
ATOM     42  N3  472 d   1      16.324  -5.243  14.880  0.00  0.00    -0.234 N 
ATOM     43  H5  472 d   1      16.793  -4.368  15.156  0.00  0.00     0.174 HD
ATOM     44  H6  472 d   1      16.475  -5.633  13.939  0.00  0.00     0.174 HD
ENDBRANCH   6  42
TORSDOF 5
