REMARK  9 active torsions:
REMARK  status: ('A' for Active; 'I' for Inactive)
REMARK    1  A    between atoms: C2_4  and  C1_1 
REMARK    2  A    between atoms: C3_6  and  C2_4 
REMARK    3  A    between atoms: N2_5  and  C13_20 
REMARK    4  A    between atoms: C12_19  and  N4_9 
REMARK    5  A    between atoms: C10_17  and  C5_10 
REMARK    6  A    between atoms: C7_14  and  C8_15 
REMARK    7  A    between atoms: C8_15  and  C9_16 
REMARK    8  A    between atoms: C14_21  and  C10_17 
REMARK    9  A    between atoms: C20_27  and  C18_25 
ROOT
ATOM      1  O1  BX2 d   1      14.349  -6.189  18.826  0.00  0.00    -0.269 OA
ATOM      2  N2  BX2 d   1      15.429  -5.349  16.971  0.00  0.00    -0.153 N 
ATOM      3  N3  BX2 d   1      14.855  -6.788  15.348  0.00  0.00    -0.199 N 
ATOM      4  C10 BX2 d   1      14.247  -7.337  16.619  0.00  0.00     0.184 A 
ATOM      5  C11 BX2 d   1      14.665  -6.253  17.645  0.00  0.00     0.276 A 
ATOM      6  C12 BX2 d   1      15.545  -5.748  15.690  0.00  0.00     0.677 A 
ATOM      7  H6  BX2 d   1      14.742  -7.167  14.397  0.00  0.00     0.179 HD
ENDROOT
BRANCH   4   8
ATOM      8  C5  BX2 d   1      14.799  -8.738  16.938  0.00  0.00    -0.012 A 
ATOM      9  C4  BX2 d   1      14.994  -9.673  15.915  0.00  0.00    -0.050 A 
ATOM     10  C3  BX2 d   1      15.491 -10.938  16.209  0.00  0.00     0.035 A 
ATOM     11  H7  BX2 d   1      14.757  -9.410  14.890  0.00  0.00     0.087 H 
ATOM     12  N1  BX2 d   1      15.804 -11.322  17.469  0.00  0.00    -0.258 NA
ATOM     13  C7  BX2 d   1      15.618 -10.423  18.466  0.00  0.00     0.035 A 
ATOM     14  C6  BX2 d   1      15.123  -9.139  18.242  0.00  0.00    -0.050 A 
ATOM     15  H10 BX2 d   1      14.989  -8.454  19.072  0.00  0.00     0.087 H 
BRANCH  10  16
ATOM     16  C2  BX2 d   1      15.696 -11.934  15.096  0.00  0.00    -0.028 C 
ATOM     17  H4  BX2 d   1      14.721 -12.152  14.636  0.00  0.00     0.041 H 
ATOM     18  H5  BX2 d   1      16.364 -11.488  14.345  0.00  0.00     0.041 H 
BRANCH  16  19
ATOM     19  C1  BX2 d   1      16.309 -13.241  15.577  0.00  0.00    -0.071 C 
ATOM     20  H1  BX2 d   1      16.433 -13.924  14.723  0.00  0.00     0.028 H 
ATOM     21  H2  BX2 d   1      15.647 -13.704  16.323  0.00  0.00     0.028 H 
ATOM     22  H3  BX2 d   1      17.290 -13.040  16.032  0.00  0.00     0.028 H 
ENDBRANCH  16  19
ENDBRANCH  10  16
BRANCH  13  23
ATOM     23  C8  BX2 d   1      15.970 -10.866  19.863  0.00  0.00    -0.028 C 
ATOM     24  H11 BX2 d   1      15.522 -11.854  20.046  0.00  0.00     0.041 H 
ATOM     25  H12 BX2 d   1      15.560 -10.139  20.580  0.00  0.00     0.041 H 
BRANCH  23  26
ATOM     26  C9  BX2 d   1      17.474 -10.963  20.069  0.00  0.00    -0.071 C 
ATOM     27  H13 BX2 d   1      17.683 -11.289  21.099  0.00  0.00     0.028 H 
ATOM     28  H14 BX2 d   1      17.932  -9.978  19.896  0.00  0.00     0.028 H 
ATOM     29  H15 BX2 d   1      17.895 -11.693  19.361  0.00  0.00     0.028 H 
ENDBRANCH  23  26
ENDBRANCH  13  23
ENDBRANCH   4   8
BRANCH   4  30
ATOM     30  C14 BX2 d   1      12.718  -7.367  16.503  0.00  0.00    -0.015 A 
ATOM     31  C15 BX2 d   1      11.936  -8.498  16.765  0.00  0.00    -0.074 A 
ATOM     32  C16 BX2 d   1      10.548  -8.439  16.634  0.00  0.00    -0.082 A 
ATOM     33  H19 BX2 d   1      12.411  -9.423  17.071  0.00  0.00     0.084 H 
ATOM     34  C17 BX2 d   1       9.914  -7.260  16.246  0.00  0.00    -0.072 A 
ATOM     35  H20 BX2 d   1       9.954  -9.323  16.837  0.00  0.00     0.083 H 
ATOM     36  C18 BX2 d   1      10.662  -6.110  15.977  0.00  0.00    -0.022 A 
ATOM     37  H21 BX2 d   1       8.834  -7.235  16.152  0.00  0.00     0.084 H 
ATOM     38  C19 BX2 d   1      12.057  -6.186  16.113  0.00  0.00    -0.063 A 
ATOM     39  H22 BX2 d   1      12.649  -5.301  15.910  0.00  0.00     0.085 H 
BRANCH  36  40
ATOM     40  C20 BX2 d   1      10.024  -4.856  15.574  0.00  0.00     0.009 A 
ATOM     41  C21 BX2 d   1      10.449  -4.101  14.497  0.00  0.00     0.015 A 
ATOM     42  N5  BX2 d   1       9.882  -2.939  14.097  0.00  0.00    -0.253 NA
ATOM     43  H23 BX2 d   1      11.299  -4.466  13.931  0.00  0.00     0.116 H 
ATOM     44  C22 BX2 d   1       8.838  -2.517  14.822  0.00  0.00     0.086 A 
ATOM     45  N6  BX2 d   1       8.325  -3.151  15.884  0.00  0.00    -0.253 NA
ATOM     46  H24 BX2 d   1       8.370  -1.586  14.525  0.00  0.00     0.146 H 
ATOM     47  C23 BX2 d   1       8.937  -4.307  16.233  0.00  0.00     0.015 A 
ATOM     48  H25 BX2 d   1       8.547  -4.842  17.091  0.00  0.00     0.116 H 
ENDBRANCH  36  40
ENDBRANCH   4  30
BRANCH   6  49
ATOM     49  N4  BX2 d   1      16.432  -5.183  14.849  0.00  0.00    -0.234 N 
ATOM     50  H8  BX2 d   1      16.968  -4.356  15.146  0.00  0.00     0.174 HD
ATOM     51  H9  BX2 d   1      16.574  -5.578  13.909  0.00  0.00     0.174 HD
ENDBRANCH   6  49
BRANCH   2  52
ATOM     52  C13 BX2 d   1      16.004  -4.178  17.585  0.00  0.00     0.005 C 
ATOM     53  H16 BX2 d   1      15.718  -4.143  18.646  0.00  0.00     0.058 H 
ATOM     54  H17 BX2 d   1      15.633  -3.277  17.075  0.00  0.00     0.058 H 
ATOM     55  H18 BX2 d   1      17.100  -4.221  17.502  0.00  0.00     0.058 H 
ENDBRANCH   2  52
TORSDOF 9
