REMARK  4 active torsions:
REMARK  status: ('A' for Active; 'I' for Inactive)
REMARK    1  A    between atoms: C1_1  and  N1_2 
REMARK    2  A    between atoms: C3_6  and  C5_9 
REMARK    3  A    between atoms: C3_6  and  C11_15 
REMARK    4  A    between atoms: C4_8  and  N3_7 
ROOT
ATOM      1  N1  593 d   1      15.612  -5.365  16.999  0.00  0.00    -0.153 N 
ATOM      2  O1  593 d   1      14.810  -6.314  18.948  0.00  0.00    -0.269 OA
ATOM      3  C2  593 d   1      14.955  -6.311  17.737  0.00  0.00     0.272 A 
ATOM      4  N2  593 d   1      15.009  -6.857  15.454  0.00  0.00    -0.203 N 
ATOM      5  C3  593 d   1      14.423  -7.364  16.741  0.00  0.00     0.164 A 
ATOM      6  C4  593 d   1      15.561  -5.704  15.683  0.00  0.00     0.677 A 
ATOM      7  H4  593 d   1      14.978  -7.341  14.545  0.00  0.00     0.179 HD
ENDROOT
BRANCH   5   8
ATOM      8  C5  593 d   1      14.961  -8.782  17.019  0.00  0.00    -0.019 A 
ATOM      9  C6  593 d   1      15.316  -9.654  15.977  0.00  0.00    -0.074 A 
ATOM     10  C7  593 d   1      15.802 -10.940  16.231  0.00  0.00    -0.082 A 
ATOM     11  H7  593 d   1      15.211  -9.322  14.950  0.00  0.00     0.084 H 
ATOM     12  C8  593 d   1      15.945 -11.389  17.541  0.00  0.00    -0.083 A 
ATOM     13  H8  593 d   1      16.068 -11.590  15.405  0.00  0.00     0.083 H 
ATOM     14  C9  593 d   1      15.601 -10.549  18.593  0.00  0.00    -0.082 A 
ATOM     15  H9  593 d   1      16.322 -12.386  17.739  0.00  0.00     0.083 H 
ATOM     16  C10 593 d   1      15.114  -9.263  18.335  0.00  0.00    -0.074 A 
ATOM     17  H10 593 d   1      15.710 -10.891  19.616  0.00  0.00     0.083 H 
ATOM     18  H11 593 d   1      14.848  -8.621  19.167  0.00  0.00     0.084 H 
ENDBRANCH   5   8
BRANCH   5  19
ATOM     19  C11 593 d   1      12.839  -7.293  16.611  0.00  0.00     0.000 C 
ATOM     20  C12 593 d   1      12.132  -7.944  17.847  0.00  0.00    -0.051 C 
ATOM     21  C13 593 d   1      10.599  -7.851  17.739  0.00  0.00    -0.053 C 
ATOM     22  H12 593 d   1      12.457  -7.423  18.759  0.00  0.00     0.034 H 
ATOM     23  H13 593 d   1      12.422  -9.004  17.907  0.00  0.00     0.034 H 
ATOM     24  C14 593 d   1      10.180  -6.376  17.667  0.00  0.00    -0.058 C 
ATOM     25  C19 593 d   1      10.136  -8.567  16.463  0.00  0.00    -0.058 C 
ATOM     26  H14 593 d   1      10.137  -8.325  18.618  0.00  0.00     0.040 H 
ATOM     27  C15 593 d   1      10.820  -5.712  16.439  0.00  0.00    -0.053 C 
ATOM     28  H15 593 d   1      10.513  -5.857  18.578  0.00  0.00     0.034 H 
ATOM     29  H16 593 d   1       9.085  -6.311  17.588  0.00  0.00     0.034 H 
ATOM     30  C16 593 d   1      12.351  -5.808  16.546  0.00  0.00    -0.051 C 
ATOM     31  C17 593 d   1      10.367  -6.433  15.162  0.00  0.00    -0.058 C 
ATOM     32  H17 593 d   1      10.517  -4.655  16.393  0.00  0.00     0.040 H 
ATOM     33  H18 593 d   1      12.800  -5.324  15.666  0.00  0.00     0.034 H 
ATOM     34  H19 593 d   1      12.677  -5.286  17.458  0.00  0.00     0.034 H 
ATOM     35  C18 593 d   1      10.772  -7.911  15.229  0.00  0.00    -0.053 C 
ATOM     36  H20 593 d   1      10.843  -5.963  14.289  0.00  0.00     0.034 H 
ATOM     37  H21 593 d   1       9.274  -6.358  15.068  0.00  0.00     0.034 H 
ATOM     38  C20 593 d   1      12.305  -8.013  15.336  0.00  0.00    -0.051 C 
ATOM     39  H22 593 d   1      10.430  -8.428  14.320  0.00  0.00     0.040 H 
ATOM     40  H25 593 d   1      12.590  -9.075  15.379  0.00  0.00     0.034 H 
ATOM     41  H26 593 d   1      12.757  -7.548  14.447  0.00  0.00     0.034 H 
ATOM     42  H23 593 d   1       9.041  -8.501  16.386  0.00  0.00     0.034 H 
ATOM     43  H24 593 d   1      10.438  -9.624  16.509  0.00  0.00     0.034 H 
ENDBRANCH   5  19
BRANCH   1  44
ATOM     44  C1  593 d   1      16.259  -4.192  17.568  0.00  0.00     0.005 C 
ATOM     45  H1  593 d   1      16.128  -4.195  18.660  0.00  0.00     0.058 H 
ATOM     46  H2  593 d   1      15.806  -3.283  17.147  0.00  0.00     0.058 H 
ATOM     47  H3  593 d   1      17.332  -4.212  17.327  0.00  0.00     0.058 H 
ENDBRANCH   1  44
BRANCH   6  48
ATOM     48  N3  593 d   1      16.319  -5.036  14.764  0.00  0.00    -0.234 N 
ATOM     49  H5  593 d   1      16.732  -4.123  15.003  0.00  0.00     0.174 HD
ATOM     50  H6  593 d   1      16.478  -5.445  13.832  0.00  0.00     0.174 HD
ENDBRANCH   6  48
TORSDOF 4
