REMARK  7 active torsions:
REMARK  status: ('A' for Active; 'I' for Inactive)
REMARK    1  A    between atoms: C2_4  and  C1_1 
REMARK    2  A    between atoms: N1_2  and  C12_17 
REMARK    3  A    between atoms: C7_12  and  O1_3 
REMARK    4  A    between atoms: O1_3  and  C8_13 
REMARK    5  A    between atoms: C11_16  and  N3_8 
REMARK    6  A    between atoms: C4_9  and  C9_14 
REMARK    7  A    between atoms: C9_14  and  C13_18 
ROOT
ATOM      1  N1  X17 d   1      15.736  -5.481  17.051  0.00  0.00    -0.153 N 
ATOM      2  N2  X17 d   1      14.992  -6.847  15.441  0.00  0.00    -0.203 N 
ATOM      3  O2  X17 d   1      14.949  -6.492  18.972  0.00  0.00    -0.269 OA
ATOM      4  C9  X17 d   1      14.493  -7.437  16.727  0.00  0.00     0.164 A 
ATOM      5  C10 X17 d   1      15.071  -6.441  17.756  0.00  0.00     0.272 A 
ATOM      6  C11 X17 d   1      15.649  -5.760  15.722  0.00  0.00     0.677 A 
ATOM      7  H   X17 d   1      14.842  -7.231  14.508  0.00  0.00     0.179 HD
ENDROOT
BRANCH   4   8
ATOM      8  C4  X17 d   1      15.055  -8.858  16.912  0.00  0.00    -0.019 A 
ATOM      9  C3  X17 d   1      15.295  -9.351  18.206  0.00  0.00    -0.066 A 
ATOM     10  C2  X17 d   1      15.803 -10.642  18.428  0.00  0.00    -0.028 A 
ATOM     11  H   X17 d   1      15.081  -8.713  19.063  0.00  0.00     0.085 H 
ATOM     12  C7  X17 d   1      16.083 -11.471  17.332  0.00  0.00     0.074 A 
ATOM     13  C6  X17 d   1      15.849 -10.996  16.034  0.00  0.00    -0.050 A 
ATOM     14  C5  X17 d   1      15.340  -9.705  15.830  0.00  0.00    -0.071 A 
ATOM     15  H   X17 d   1      16.064 -11.634  15.177  0.00  0.00     0.087 H 
ATOM     16  H   X17 d   1      15.163  -9.354  14.813  0.00  0.00     0.084 H 
BRANCH  10  17
ATOM     17  C1  X17 d   1      16.038 -11.107  19.841  0.00  0.00    -0.049 C 
ATOM     18  H   X17 d   1      15.434 -11.993  20.036  0.00  0.00     0.033 H 
ATOM     19  H   X17 d   1      17.093 -11.349  19.972  0.00  0.00     0.033 H 
ATOM     20  H   X17 d   1      15.757 -10.315  20.535  0.00  0.00     0.033 H 
ENDBRANCH  10  17
BRANCH  12  21
ATOM     21  O1  X17 d   1      16.584 -12.715  17.637  0.00  0.00    -0.355 OA
BRANCH  21  22
ATOM     22  C8  X17 d   1      17.096 -13.472  16.546  0.00  0.00     0.010 C 
ATOM     23  H   X17 d   1      16.303 -13.637  15.816  0.00  0.00     0.066 H 
ATOM     24  H   X17 d   1      17.914 -12.925  16.078  0.00  0.00     0.066 H 
ATOM     25  H   X17 d   1      17.462 -14.432  16.911  0.00  0.00     0.066 H 
ENDBRANCH  21  22
ENDBRANCH  12  21
ENDBRANCH   4   8
BRANCH   4  26
ATOM     26  C13 X17 d   1      12.904  -7.389  16.713  0.00  0.00     0.000 C 
ATOM     27  C14 X17 d   1      12.393  -5.912  16.644  0.00  0.00    -0.051 C 
ATOM     28  C15 X17 d   1      10.858  -5.846  16.619  0.00  0.00    -0.053 C 
ATOM     29  H   X17 d   1      12.773  -5.458  15.728  0.00  0.00     0.034 H 
ATOM     30  H   X17 d   1      12.746  -5.383  17.529  0.00  0.00     0.034 H 
ATOM     31  C16 X17 d   1      10.305  -6.502  17.893  0.00  0.00    -0.058 C 
ATOM     32  C21 X17 d   1      10.341  -6.590  15.376  0.00  0.00    -0.058 C 
ATOM     33  H   X17 d   1      10.528  -4.808  16.578  0.00  0.00     0.040 H 
ATOM     34  C17 X17 d   1      10.737  -7.973  17.949  0.00  0.00    -0.053 C 
ATOM     35  H   X17 d   1       9.216  -6.446  17.884  0.00  0.00     0.034 H 
ATOM     36  H   X17 d   1      10.694  -5.978  18.766  0.00  0.00     0.034 H 
ATOM     37  C18 X17 d   1      12.277  -8.040  17.984  0.00  0.00    -0.051 C 
ATOM     38  C19 X17 d   1      10.222  -8.707  16.704  0.00  0.00    -0.058 C 
ATOM     39  H   X17 d   1      10.325  -8.445  18.841  0.00  0.00     0.040 H 
ATOM     40  H   X17 d   1      12.627  -7.495  18.861  0.00  0.00     0.034 H 
ATOM     41  H   X17 d   1      12.577  -9.087  18.020  0.00  0.00     0.034 H 
ATOM     42  C20 X17 d   1      10.784  -8.058  15.432  0.00  0.00    -0.053 C 
ATOM     43  H   X17 d   1       9.134  -8.649  16.682  0.00  0.00     0.034 H 
ATOM     44  H   X17 d   1      10.545  -9.747  16.745  0.00  0.00     0.034 H 
ATOM     45  C22 X17 d   1      12.324  -8.136  15.469  0.00  0.00    -0.051 C 
ATOM     46  H   X17 d   1      10.413  -8.580  14.550  0.00  0.00     0.040 H 
ATOM     47  H   X17 d   1      12.616  -9.184  15.528  0.00  0.00     0.034 H 
ATOM     48  H   X17 d   1      12.716  -7.664  14.568  0.00  0.00     0.034 H 
ATOM     49  H   X17 d   1      10.749  -6.123  14.479  0.00  0.00     0.034 H 
ATOM     50  H   X17 d   1       9.252  -6.541  15.352  0.00  0.00     0.034 H 
ENDBRANCH   4  26
BRANCH   6  51
ATOM     51  N3  X17 d   1      16.412  -5.092  14.809  0.00  0.00    -0.234 N 
ATOM     52  H   X17 d   1      16.487  -5.441  13.854  0.00  0.00     0.174 HD
ATOM     53  H   X17 d   1      16.907  -4.243  15.082  0.00  0.00     0.174 HD
ENDBRANCH   6  51
BRANCH   1  54
ATOM     54  C12 X17 d   1      16.410  -4.348  17.669  0.00  0.00     0.005 C 
ATOM     55  H   X17 d   1      15.685  -3.757  18.230  0.00  0.00     0.058 H 
ATOM     56  H   X17 d   1      17.184  -4.712  18.344  0.00  0.00     0.058 H 
ATOM     57  H   X17 d   1      16.863  -3.729  16.894  0.00  0.00     0.058 H 
ENDBRANCH   1  54
TORSDOF 7
