REMARK  8 active torsions:
REMARK  status: ('A' for Active; 'I' for Inactive)
REMARK    1  A    between atoms: C2_4  and  C1_1 
REMARK    2  A    between atoms: N1_2  and  C12_18 
REMARK    3  A    between atoms: C7_13  and  O1_3 
REMARK    4  A    between atoms: O1_3  and  C8_14 
REMARK    5  A    between atoms: C11_17  and  N3_8 
REMARK    6  A    between atoms: C9_15  and  C4_9 
REMARK    7  A    between atoms: C13_19  and  C9_15 
REMARK    8  A    between atoms: C19_25  and  C17_23 
ROOT
ATOM      1  N1  X45 d   1      15.427  -5.528  16.652  0.00  0.00    -0.153 N 
ATOM      2  N2  X45 d   1      14.812  -6.851  14.957  0.00  0.00    -0.199 N 
ATOM      3  O2  X45 d   1      14.349  -6.503  18.443  0.00  0.00    -0.269 OA
ATOM      4  C9  X45 d   1      14.241  -7.486  16.188  0.00  0.00     0.184 C 
ATOM      5  C10 X45 d   1      14.670  -6.478  17.267  0.00  0.00     0.276 C 
ATOM      6  C11 X45 d   1      15.538  -5.837  15.330  0.00  0.00     0.677 C 
ATOM      7  H   X45 d   1      14.659  -7.159  13.997  0.00  0.00     0.179 HD
ENDROOT
BRANCH   4   8
ATOM      8  C4  X45 d   1      14.877  -8.864  16.428  0.00  0.00    -0.015 A 
ATOM      9  C3  X45 d   1      15.116  -9.337  17.726  0.00  0.00    -0.065 A 
ATOM     10  C2  X45 d   1      15.703 -10.592  17.953  0.00  0.00    -0.028 A 
ATOM     11  H   X45 d   1      14.840  -8.716  18.578  0.00  0.00     0.085 H 
ATOM     12  C7  X45 d   1      16.063 -11.405  16.862  0.00  0.00     0.074 A 
ATOM     13  C6  X45 d   1      15.829 -10.944  15.565  0.00  0.00    -0.050 A 
ATOM     14  C5  X45 d   1      15.243  -9.688  15.355  0.00  0.00    -0.071 A 
ATOM     15  H   X45 d   1      16.103 -11.564  14.711  0.00  0.00     0.087 H 
ATOM     16  H   X45 d   1      15.068  -9.345  14.335  0.00  0.00     0.084 H 
BRANCH  10  17
ATOM     17  C1  X45 d   1      15.934 -11.045  19.370  0.00  0.00    -0.049 C 
ATOM     18  H   X45 d   1      15.383 -11.968  19.549  0.00  0.00     0.033 H 
ATOM     19  H   X45 d   1      16.999 -11.220  19.525  0.00  0.00     0.033 H 
ATOM     20  H   X45 d   1      15.587 -10.274  20.058  0.00  0.00     0.033 H 
ENDBRANCH  10  17
BRANCH  12  21
ATOM     21  O1  X45 d   1      16.636 -12.611  17.177  0.00  0.00    -0.355 OA
BRANCH  21  22
ATOM     22  C8  X45 d   1      17.389 -13.280  16.170  0.00  0.00     0.010 C 
ATOM     23  H   X45 d   1      16.746 -13.487  15.315  0.00  0.00     0.066 H 
ATOM     24  H   X45 d   1      18.219 -12.646  15.857  0.00  0.00     0.066 H 
ATOM     25  H   X45 d   1      17.777 -14.217  16.570  0.00  0.00     0.066 H 
ENDBRANCH  21  22
ENDBRANCH  12  21
ENDBRANCH   4   8
BRANCH   4  26
ATOM     26  C13 X45 d   1      12.705  -7.540  16.111  0.00  0.00    -0.015 A 
ATOM     27  C14 X45 d   1      11.917  -8.658  16.435  0.00  0.00    -0.074 A 
ATOM     28  C15 X45 d   1      10.518  -8.594  16.328  0.00  0.00    -0.082 A 
ATOM     29  H   X45 d   1      12.394  -9.579  16.771  0.00  0.00     0.084 H 
ATOM     30  C16 X45 d   1       9.875  -7.425  15.910  0.00  0.00    -0.072 A 
ATOM     31  H   X45 d   1       9.922  -9.473  16.576  0.00  0.00     0.083 H 
ATOM     32  C17 X45 d   1      10.640  -6.291  15.581  0.00  0.00    -0.024 A 
ATOM     33  H   X45 d   1       8.788  -7.392  15.839  0.00  0.00     0.084 H 
ATOM     34  C18 X45 d   1      12.040  -6.376  15.694  0.00  0.00    -0.063 A 
ATOM     35  H   X45 d   1      12.636  -5.497  15.446  0.00  0.00     0.085 H 
BRANCH  32  36
ATOM     36  C19 X45 d   1      10.050  -5.016  15.140  0.00  0.00    -0.008 A 
ATOM     37  C20 X45 d   1       8.933  -4.453  15.775  0.00  0.00    -0.070 A 
ATOM     38  C21 X45 d   1       8.399  -3.240  15.333  0.00  0.00    -0.065 A 
ATOM     39  H   X45 d   1       8.477  -4.967  16.621  0.00  0.00     0.085 H 
ATOM     40  C22 X45 d   1       9.004  -2.612  14.255  0.00  0.00     0.002 A 
ATOM     41  H   X45 d   1       7.530  -2.799  15.822  0.00  0.00     0.085 H 
ATOM     42  N4  X45 d   1      10.082  -3.116  13.612  0.00  0.00    -0.272 NA
ATOM     43  H   X45 d   1       8.590  -1.665  13.908  0.00  0.00     0.114 H 
ATOM     44  C23 X45 d   1      10.581  -4.295  14.066  0.00  0.00     0.012 A 
ATOM     45  H   X45 d   1      11.454  -4.707  13.559  0.00  0.00     0.116 H 
ENDBRANCH  32  36
ENDBRANCH   4  26
BRANCH   6  46
ATOM     46  N3  X45 d   1      16.328  -5.102  14.483  0.00  0.00    -0.234 N 
ATOM     47  H   X45 d   1      16.372  -5.339  13.492  0.00  0.00     0.174 HD
ATOM     48  H   X45 d   1      16.872  -4.318  14.844  0.00  0.00     0.174 HD
ENDBRANCH   6  46
BRANCH   1  49
ATOM     49  C12 X45 d   1      16.012  -4.386  17.349  0.00  0.00     0.005 C 
ATOM     50  H   X45 d   1      15.217  -3.790  17.797  0.00  0.00     0.058 H 
ATOM     51  H   X45 d   1      16.684  -4.744  18.129  0.00  0.00     0.058 H 
ATOM     52  H   X45 d   1      16.570  -3.775  16.639  0.00  0.00     0.058 H 
ENDBRANCH   1  49
TORSDOF 8
