REMARK  7 active torsions:
REMARK  status: ('A' for Active; 'I' for Inactive)
REMARK    1  A    between atoms: N1_3  and  C1_1 
REMARK    2  A    between atoms: C8_19  and  O2_8 
REMARK    3  A    between atoms: O2_8  and  C11_22 
REMARK    4  A    between atoms: C3_9  and  C5_15 
REMARK    5  A    between atoms: C12_23  and  C3_9 
REMARK    6  A    between atoms: C4_12  and  N3_11 
REMARK    7  A    between atoms: C18_29  and  C16_27 
ROOT
ATOM      1  N1  569 d   1      15.412  -5.495  16.958  0.00  0.00    -0.153 N 
ATOM      2  O1  569 d   1      14.424  -6.461  18.829  0.00  0.00    -0.269 OA
ATOM      3  C2  569 d   1      14.665  -6.423  17.630  0.00  0.00     0.276 A 
ATOM      4  N2  569 d   1      14.683  -6.827  15.310  0.00  0.00    -0.199 N 
ATOM      5  C3  569 d   1      14.143  -7.411  16.579  0.00  0.00     0.184 A 
ATOM      6  C4  569 d   1      15.419  -5.803  15.633  0.00  0.00     0.677 A 
ATOM      7  H   569 d   1      14.506  -7.169  14.365  0.00  0.00     0.179 HD
ENDROOT
BRANCH   5   8
ATOM      8  C5  569 d   1      14.668  -8.833  16.840  0.00  0.00    -0.015 A 
ATOM      9  C6  569 d   1      14.874  -9.732  15.784  0.00  0.00    -0.071 A 
ATOM     10  C7  569 d   1      15.351 -11.023  16.025  0.00  0.00    -0.050 A 
ATOM     11  H   569 d   1      14.659  -9.420  14.762  0.00  0.00     0.084 H 
ATOM     12  C8  569 d   1      15.631 -11.447  17.326  0.00  0.00     0.078 A 
ATOM     13  H   569 d   1      15.506 -11.706  15.190  0.00  0.00     0.087 H 
ATOM     14  C9  569 d   1      15.430 -10.566  18.386  0.00  0.00    -0.050 A 
ATOM     15  C10 569 d   1      14.954  -9.273  18.145  0.00  0.00    -0.071 A 
ATOM     16  H   569 d   1      15.644 -10.885  19.406  0.00  0.00     0.087 H 
ATOM     17  H   569 d   1      14.802  -8.594  18.984  0.00  0.00     0.084 H 
BRANCH  12  18
ATOM     18  O2  569 d   1      16.093 -12.731  17.423  0.00  0.00    -0.255 OA
BRANCH  18  19
ATOM     19  C11 569 d   1      17.499 -12.921  17.434  0.00  0.00     0.530 C 
ATOM     20  F1  569 d   1      18.093 -12.235  16.436  0.00  0.00    -0.144 F 
ATOM     21  F2  569 d   1      17.981 -12.446  18.606  0.00  0.00    -0.144 F 
ATOM     22  F3  569 d   1      17.816 -14.230  17.340  0.00  0.00    -0.144 F 
ENDBRANCH  18  19
ENDBRANCH  12  18
ENDBRANCH   5   8
BRANCH   5  23
ATOM     23  C12 569 d   1      12.613  -7.384  16.541  0.00  0.00    -0.014 A 
ATOM     24  C13 569 d   1      11.808  -8.468  16.917  0.00  0.00    -0.071 A 
ATOM     25  C14 569 d   1      10.421  -8.359  16.855  0.00  0.00    -0.044 A 
ATOM     26  H   569 d   1      12.267  -9.396  17.258  0.00  0.00     0.084 H 
ATOM     27  C15 569 d   1       9.838  -7.172  16.422  0.00  0.00     0.127 A 
ATOM     28  H   569 d   1       9.793  -9.202  17.145  0.00  0.00     0.088 H 
ATOM     29  F4  569 d   1       8.502  -7.107  16.382  0.00  0.00    -0.205 F 
ATOM     30  C16 569 d   1      10.602  -6.063  16.038  0.00  0.00     0.016 A 
ATOM     31  C17 569 d   1      11.995  -6.196  16.108  0.00  0.00    -0.060 A 
ATOM     32  H   569 d   1      12.620  -5.352  15.818  0.00  0.00     0.086 H 
BRANCH  30  33
ATOM     33  C18 569 d   1      10.007  -4.803  15.580  0.00  0.00     0.012 A 
ATOM     34  C19 569 d   1      10.387  -4.186  14.394  0.00  0.00     0.016 A 
ATOM     35  N4  569 d   1       9.872  -3.027  13.929  0.00  0.00    -0.253 NA
ATOM     36  H   569 d   1      11.157  -4.673  13.795  0.00  0.00     0.116 H 
ATOM     37  C20 569 d   1       8.928  -2.474  14.708  0.00  0.00     0.086 A 
ATOM     38  N5  569 d   1       8.463  -2.955  15.874  0.00  0.00    -0.253 NA
ATOM     39  H   569 d   1       8.494  -1.538  14.358  0.00  0.00     0.146 H 
ATOM     40  C21 569 d   1       9.022  -4.117  16.282  0.00  0.00     0.016 A 
ATOM     41  H   569 d   1       8.678  -4.544  17.224  0.00  0.00     0.116 H 
ENDBRANCH  30  33
ENDBRANCH   5  23
BRANCH   1  42
ATOM     42  C1  569 d   1      16.090  -4.370  17.583  0.00  0.00     0.005 C 
ATOM     43  H   569 d   1      17.162  -4.447  17.401  0.00  0.00     0.058 H 
ATOM     44  H   569 d   1      15.713  -3.439  17.159  0.00  0.00     0.058 H 
ATOM     45  H   569 d   1      15.901  -4.384  18.656  0.00  0.00     0.058 H 
ENDBRANCH   1  42
BRANCH   6  46
ATOM     46  N3  569 d   1      16.175  -5.082  14.750  0.00  0.00    -0.234 N 
ATOM     47  H   569 d   1      16.187  -5.336  13.762  0.00  0.00     0.174 HD
ATOM     48  H   569 d   1      16.727  -4.290  15.079  0.00  0.00     0.174 HD
ENDBRANCH   6  46
TORSDOF 7
