REMARK  0 active torsions:
REMARK  status: ('A' for Active; 'I' for Inactive)
ROOT
ATOM      1  N9  7DG d   1     -16.821   6.213  53.944  0.00  0.00    -0.351 N 
ATOM      2  C8  7DG d   1     -17.978   6.750  53.412  0.00  0.00    -0.020 A 
ATOM      3  C7  7DG d   1     -17.642   7.713  52.412  0.00  0.00    -0.049 A 
ATOM      4  C5  7DG d   1     -16.179   7.739  52.327  0.00  0.00     0.078 A 
ATOM      5  C6  7DG d   1     -15.201   8.498  51.511  0.00  0.00     0.273 A 
ATOM      6  O6  7DG d   1     -15.548   9.339  50.665  0.00  0.00    -0.267 OA
ATOM      7  N1  7DG d   1     -13.913   8.206  51.796  0.00  0.00    -0.156 N 
ATOM      8  C2  7DG d   1     -13.561   7.289  52.764  0.00  0.00     0.680 A 
ATOM      9  N2  7DG d   1     -12.279   6.993  53.029  0.00  0.00    -0.234 N 
ATOM     10  N3  7DG d   1     -14.379   6.573  53.551  0.00  0.00    -0.176 N 
ATOM     11  C4  7DG d   1     -15.679   6.762  53.362  0.00  0.00     0.136 A 
ATOM     12  H   7DG d   1     -16.805   5.501  54.674  0.00  0.00     0.166 HD
ATOM     13  H   7DG d   1     -18.991   6.480  53.710  0.00  0.00     0.111 H 
ATOM     14  H   7DG d   1     -18.339   8.312  51.826  0.00  0.00     0.087 H 
ATOM     15  H   7DG d   1     -13.175   8.681  51.277  0.00  0.00     0.187 HD
ATOM     16  H   7DG d   1     -12.052   6.305  53.747  0.00  0.00     0.174 HD
ATOM     17  H   7DG d   1     -11.531   7.456  52.512  0.00  0.00     0.174 HD
ATOM     18  H   7DG d   1     -14.023   5.923  54.252  0.00  0.00     0.186 HD
ENDROOT
TORSDOF 0
