REMARK  8 active torsions:
REMARK  status: ('A' for Active; 'I' for Inactive)
REMARK    1  A    between atoms: N3_1  and  C4_2 
REMARK       I    between atoms: C6_4  and  N3_1 
REMARK    2  A    between atoms: N3_1  and  C2_14 
REMARK    3  A    between atoms: C4_2  and  C5_3 
REMARK    4  A    between atoms: C8_5  and  C6_4 
REMARK    5  A    between atoms: N13_18  and  C15_7 
REMARK    6  A    between atoms: C17_8  and  C21_9 
REMARK    7  A    between atoms: C2_14  and  C1_13 
REMARK    8  A    between atoms: C29_28  and  N30_29 
ROOT
ATOM      1  C8  1P5 d   1      16.828  15.200   4.770  0.00  0.00     0.039 C 
ATOM      2  C10 1P5 d   1      18.280  15.633   5.034  0.00  0.00    -0.051 C 
ATOM      3  C11 1P5 d   1      18.912  14.888   6.215  0.00  0.00    -0.049 C 
ATOM      4  C12 1P5 d   1      18.609  13.383   6.150  0.00  0.00    -0.004 C 
ATOM      5  N13 1P5 d   1      17.154  13.094   6.132  0.00  0.00    -0.365 N 
ATOM      6  C14 1P5 d   1      16.274  14.233   5.821  0.00  0.00     0.008 C 
ATOM      7  H6  1P5 d   1      16.763  14.752   3.768  0.00  0.00     0.057 H 
ATOM      8  H7  1P5 d   1      18.292  16.711   5.251  0.00  0.00     0.034 H 
ATOM      9  H8  1P5 d   1      18.877  15.434   4.132  0.00  0.00     0.034 H 
ATOM     10  H16 1P5 d   1      18.508  15.295   7.154  0.00  0.00     0.035 H 
ATOM     11  H17 1P5 d   1      20.002  15.036   6.191  0.00  0.00     0.035 H 
ATOM     12  H18 1P5 d   1      19.054  12.896   7.030  0.00  0.00     0.064 H 
ATOM     13  H19 1P5 d   1      19.061  12.972   5.235  0.00  0.00     0.064 H 
ATOM     14  H20 1P5 d   1      15.317  13.836   5.451  0.00  0.00     0.065 H 
ATOM     15  H21 1P5 d   1      16.102  14.797   6.750  0.00  0.00     0.065 H 
ENDROOT
BRANCH   5  16
ATOM     16  C15 1P5 d   1      16.801  11.877   5.532  0.00  0.00     0.129 A 
ATOM     17  C16 1P5 d   1      15.666  11.709   4.722  0.00  0.00    -0.010 A 
ATOM     18  C17 1P5 d   1      15.402  10.425   4.201  0.00  0.00     0.079 A 
ATOM     19  H22 1P5 d   1      15.010  12.544   4.503  0.00  0.00     0.093 H 
ATOM     20  N18 1P5 d   1      16.270   9.441   4.473  0.00  0.00    -0.241 NA
ATOM     21  C19 1P5 d   1      17.317   9.633   5.238  0.00  0.00     0.089 A 
ATOM     22  N20 1P5 d   1      17.571  10.815   5.759  0.00  0.00    -0.225 NA
ATOM     23  H23 1P5 d   1      17.985   8.805   5.445  0.00  0.00     0.146 H 
BRANCH  18  24
ATOM     24  C21 1P5 d   1      14.264  10.105   3.303  0.00  0.00     0.088 A 
ATOM     25  C22 1P5 d   1      13.251  10.940   2.788  0.00  0.00     0.166 A 
ATOM     26  N23 1P5 d   1      12.951  12.236   2.958  0.00  0.00    -0.240 NA
ATOM     27  N27 1P5 d   1      12.467  10.168   1.957  0.00  0.00    -0.224 N 
ATOM     28  C24 1P5 d   1      11.919  12.782   2.329  0.00  0.00     0.006 A 
ATOM     29  C25 1P5 d   1      11.104  12.023   1.471  0.00  0.00    -0.049 A 
ATOM     30  H9  1P5 d   1      11.699  13.838   2.480  0.00  0.00     0.114 H 
ATOM     31  C26 1P5 d   1      11.387  10.703   1.305  0.00  0.00     0.007 A 
ATOM     32  H24 1P5 d   1      10.264  12.482   0.951  0.00  0.00     0.087 H 
ATOM     33  H10 1P5 d   1      10.765  10.081   0.664  0.00  0.00     0.115 H 
ATOM     34  N28 1P5 d   1      12.999   8.882   1.952  0.00  0.00    -0.148 NA
ATOM     35  C29 1P5 d   1      14.051   8.837   2.743  0.00  0.00     0.158 A 
BRANCH  35  36
ATOM     36  N30 1P5 d   1      14.843   7.718   2.980  0.00  0.00    -0.382 N 
ATOM     37  H25 1P5 d   1      14.616   6.821   2.527  0.00  0.00     0.157 HD
ATOM     38  H26 1P5 d   1      15.656   7.786   3.608  0.00  0.00     0.157 HD
ENDBRANCH  35  36
ENDBRANCH  18  24
ENDBRANCH   5  16
BRANCH   1  39
ATOM     39  C6  1P5 d   1      15.924  16.391   4.891  0.00  0.00     0.225 C 
ATOM     40  N3  1P5 d   1      14.866  16.610   4.065  0.00  0.00    -0.352 N 
ATOM     41  O7  1P5 d   1      16.165  17.165   5.789  0.00  0.00    -0.273 OA
BRANCH  40  42
ATOM     42  C4  1P5 d   1      14.551  15.664   2.980  0.00  0.00    -0.006 C 
ATOM     43  H1  1P5 d   1      13.490  15.771   2.712  0.00  0.00     0.063 H 
ATOM     44  H2  1P5 d   1      14.738  14.640   3.335  0.00  0.00     0.063 H 
BRANCH  42  45
ATOM     45  C5  1P5 d   1      15.405  15.921   1.736  0.00  0.00    -0.061 C 
ATOM     46  H3  1P5 d   1      15.139  15.196   0.953  0.00  0.00     0.029 H 
ATOM     47  H4  1P5 d   1      16.469  15.810   1.992  0.00  0.00     0.029 H 
ATOM     48  H5  1P5 d   1      15.220  16.941   1.369  0.00  0.00     0.029 H 
ENDBRANCH  42  45
ENDBRANCH  40  42
BRANCH  40  49
ATOM     49  C2  1P5 d   1      13.979  17.786   4.259  0.00  0.00    -0.006 C 
ATOM     50  H14 1P5 d   1      13.660  17.814   5.311  0.00  0.00     0.063 H 
ATOM     51  H15 1P5 d   1      13.098  17.670   3.611  0.00  0.00     0.063 H 
BRANCH  49  52
ATOM     52  C1  1P5 d   1      14.661  19.119   3.921  0.00  0.00    -0.061 C 
ATOM     53  H11 1P5 d   1      13.953  19.945   4.085  0.00  0.00     0.029 H 
ATOM     54  H12 1P5 d   1      14.978  19.112   2.868  0.00  0.00     0.029 H 
ATOM     55  H13 1P5 d   1      15.540  19.255   4.568  0.00  0.00     0.029 H 
ENDBRANCH  49  52
ENDBRANCH  40  49
ENDBRANCH   1  39
TORSDOF 8
