REMARK  18 active torsions:
REMARK  status: ('A' for Active; 'I' for Inactive)
REMARK    1  A    between atoms: N1_1  and  C1D_14 
REMARK    2  A    between atoms: CBF_43  and  C5_7 
REMARK    3  A    between atoms: PA_9  and  O3A_23 
REMARK    4  A    between atoms: O5D_34  and  PA_9 
REMARK    5  A    between atoms: O3A_23  and  PB_10 
REMARK    6  A    between atoms: PB_10  and  O3B_24 
REMARK    7  A    between atoms: O3B_24  and  C1'_11 
REMARK    8  A    between atoms: C2'_15  and  O2'_16 
REMARK    9  A    between atoms: C2D_19  and  O2D_20 
REMARK   10  A    between atoms: C3'_21  and  O3'_22 
REMARK   11  A    between atoms: C3D_25  and  O3D_26 
REMARK   12  A    between atoms: C4'_27  and  O4'_28 
REMARK   13  A    between atoms: C4D_29  and  C5D_33 
REMARK   14  A    between atoms: C5'_31  and  C6'_35 
REMARK   15  A    between atoms: C5D_33  and  O5D_34 
REMARK   16  A    between atoms: C6'_35  and  O6'_36 
REMARK   17  A    between atoms: CBA_41  and  OAB_37 
REMARK   18  A    between atoms: CBA_41  and  CBE_42 
ROOT
ATOM      1  C1D 1GW d   1      15.849  23.059   6.522  0.00  0.00     0.141 C 
ATOM      2  C2D 1GW d   1      16.638  22.281   5.487  0.00  0.00     0.105 C 
ATOM      3  C3D 1GW d   1      15.968  20.919   5.551  0.00  0.00     0.091 C 
ATOM      4  C4D 1GW d   1      14.462  21.344   5.652  0.00  0.00     0.089 C 
ATOM      5  O4D 1GW d   1      14.517  22.518   6.547  0.00  0.00    -0.353 OA
ATOM      6  H   1GW d   1      15.883  24.110   6.236  0.00  0.00     0.123 H 
ATOM      7  H   1GW d   1      17.708  22.262   5.696  0.00  0.00     0.093 H 
ATOM      8  H   1GW d   1      16.306  20.293   6.376  0.00  0.00     0.091 H 
ATOM      9  H   1GW d   1      14.066  21.519   4.652  0.00  0.00     0.090 H 
ENDROOT
BRANCH   4  10
ATOM     10  C5D 1GW d   1      13.454  20.282   6.199  0.00  0.00     0.058 C 
ATOM     11  H   1GW d   1      13.321  19.479   5.474  0.00  0.00     0.079 H 
ATOM     12  H   1GW d   1      12.481  20.740   6.374  0.00  0.00     0.079 H 
BRANCH  10  13
ATOM     13  O5D 1GW d   1      13.985  19.761   7.424  0.00  0.00    -0.287 OA
BRANCH  13  14
ATOM     14  PA  1GW d   1      14.472  18.224   7.394  0.00  0.00     0.417 P 
ATOM     15  O1A 1GW d   1      15.166  17.918   5.960  0.00  0.00    -0.624 OA
ATOM     16  O2A 1GW d   1      15.296  17.900   8.551  0.00  0.00    -0.624 OA
BRANCH  14  17
ATOM     17  O3A 1GW d   1      13.134  17.294   7.687  0.00  0.00    -0.180 OA
BRANCH  17  18
ATOM     18  PB  1GW d   1      12.384  16.299   6.631  0.00  0.00     0.420 P 
ATOM     19  O1B 1GW d   1      11.518  15.246   7.558  0.00  0.00    -0.624 OA
ATOM     20  O2B 1GW d   1      13.247  15.680   5.615  0.00  0.00    -0.624 OA
BRANCH  18  21
ATOM     21  O3B 1GW d   1      11.338  17.418   5.989  0.00  0.00    -0.255 OA
BRANCH  21  22
ATOM     22  C1' 1GW d   1      10.034  17.103   5.542  0.00  0.00     0.170 C 
ATOM     23  C2' 1GW d   1       9.934  17.767   4.192  0.00  0.00     0.110 C 
ATOM     24  C3' 1GW d   1      10.220  19.259   4.413  0.00  0.00     0.092 C 
ATOM     25  H   1GW d   1       8.947  17.616   3.755  0.00  0.00     0.094 H 
ATOM     26  C4' 1GW d   1       9.102  19.807   5.345  0.00  0.00     0.090 C 
ATOM     27  H   1GW d   1      11.201  19.393   4.868  0.00  0.00     0.091 H 
ATOM     28  C5' 1GW d   1       9.077  19.030   6.721  0.00  0.00     0.089 C 
ATOM     29  H   1GW d   1       9.322  20.842   5.607  0.00  0.00     0.091 H 
ATOM     30  O5' 1GW d   1       9.020  17.597   6.431  0.00  0.00    -0.348 OA
ATOM     31  H   1GW d   1       9.986  19.286   7.265  0.00  0.00     0.090 H 
ATOM     32  H   1GW d   1       9.874  16.026   5.500  0.00  0.00     0.134 H 
BRANCH  23  33
ATOM     33  O2' 1GW d   1      10.879  17.218   3.306  0.00  0.00    -0.388 OA
ATOM     34  H   1GW d   1      11.762  17.353   3.658  0.00  0.00     0.210 HD
ENDBRANCH  23  33
BRANCH  24  35
ATOM     35  O3' 1GW d   1      10.244  19.963   3.188  0.00  0.00    -0.390 OA
ATOM     36  H   1GW d   1      10.931  19.599   2.625  0.00  0.00     0.210 HD
ENDBRANCH  24  35
BRANCH  26  37
ATOM     37  O4' 1GW d   1       7.858  19.841   4.666  0.00  0.00    -0.390 OA
ATOM     38  H   1GW d   1       7.930  20.411   3.897  0.00  0.00     0.210 HD
ENDBRANCH  26  37
BRANCH  28  39
ATOM     39  C6' 1GW d   1       7.927  19.451   7.665  0.00  0.00     0.043 C 
ATOM     40  H   1GW d   1       7.897  18.702   8.456  0.00  0.00     0.078 H 
ATOM     41  H   1GW d   1       7.039  19.535   7.039  0.00  0.00     0.078 H 
BRANCH  39  42
ATOM     42  O6' 1GW d   1       8.064  20.679   8.304  0.00  0.00    -0.398 OA
ATOM     43  H   1GW d   1       8.131  21.375   7.646  0.00  0.00     0.209 HD
ENDBRANCH  39  42
ENDBRANCH  28  39
ENDBRANCH  21  22
ENDBRANCH  18  21
ENDBRANCH  17  18
ENDBRANCH  14  17
ENDBRANCH  13  14
ENDBRANCH  10  13
ENDBRANCH   4  10
BRANCH   3  44
ATOM     44  O3D 1GW d   1      16.267  20.075   4.458  0.00  0.00    -0.390 OA
ATOM     45  H   1GW d   1      15.811  19.238   4.568  0.00  0.00     0.210 HD
ENDBRANCH   3  44
BRANCH   2  46
ATOM     46  O2D 1GW d   1      16.611  22.852   4.183  0.00  0.00    -0.388 OA
ATOM     47  H   1GW d   1      16.982  23.737   4.215  0.00  0.00     0.210 HD
ENDBRANCH   2  46
BRANCH   1  48
ATOM     48  N1  1GW d   1      16.400  22.962   7.881  0.00  0.00    -0.279 N 
ATOM     49  C2  1GW d   1      17.571  23.746   8.138  0.00  0.00     0.331 A 
ATOM     50  O2  1GW d   1      18.027  24.387   7.242  0.00  0.00    -0.246 OA
ATOM     51  N3  1GW d   1      18.151  23.706   9.450  0.00  0.00    -0.275 N 
ATOM     52  C4  1GW d   1      17.610  22.953  10.451  0.00  0.00     0.262 A 
ATOM     53  H   1GW d   1      18.990  24.255   9.639  0.00  0.00     0.173 HD
ATOM     54  O4  1GW d   1      18.091  22.957  11.553  0.00  0.00    -0.267 OA
ATOM     55  C5  1GW d   1      16.328  22.138  10.147  0.00  0.00     0.061 A 
ATOM     56  C6  1GW d   1      15.784  22.128   8.904  0.00  0.00     0.003 A 
ATOM     57  H   1GW d   1      14.912  21.514   8.678  0.00  0.00     0.113 H 
BRANCH  55  58
ATOM     58  CBF 1GW d   1      15.723  21.224  11.228  0.00  0.00    -0.004 A 
ATOM     59  CAQ 1GW d   1      14.500  20.288  11.033  0.00  0.00    -0.033 A 
ATOM     60  CAP 1GW d   1      14.263  19.487  12.355  0.00  0.00    -0.047 A 
ATOM     61  H   1GW d   1      13.616  20.880  10.796  0.00  0.00     0.041 H 
ATOM     62  H   1GW d   1      14.691  19.597  10.212  0.00  0.00     0.041 H 
ATOM     63  CBE 1GW d   1      15.345  19.878  13.417  0.00  0.00     0.016 A 
ATOM     64  H   1GW d   1      14.334  18.420  12.146  0.00  0.00     0.035 H 
ATOM     65  H   1GW d   1      13.274  19.724  12.746  0.00  0.00     0.035 H 
ATOM     66  SAZ 1GW d   1      16.333  21.003  12.727  0.00  0.00    -0.126 SA
ATOM     67  H   1GW d   1      15.543  19.505  14.422  0.00  0.00     0.060 H 
BRANCH  63  68
ATOM     68  CBA 1GW d   1      15.434  19.315  14.829  0.00  0.00     0.029 C 
ATOM     69  H   1GW d   1      14.750  18.467  14.859  0.00  0.00     0.075 H 
ATOM     70  H   1GW d   1      16.488  19.097  15.001  0.00  0.00     0.075 H 
BRANCH  68  71
ATOM     71  OAB 1GW d   1      15.042  20.164  15.865  0.00  0.00    -0.400 OA
ATOM     72  H   1GW d   1      15.139  19.708  16.704  0.00  0.00     0.209 HD
ENDBRANCH  68  71
ENDBRANCH  63  68
ENDBRANCH  55  58
ENDBRANCH   1  48
TORSDOF 18
