REMARK  6 active torsions:
REMARK  status: ('A' for Active; 'I' for Inactive)
REMARK    1  A    between atoms: C1_1  and  C2_2 
REMARK    2  A    between atoms: C2_2  and  N4_3 
REMARK    3  A    between atoms: C2_2  and  C21_20 
REMARK    4  A    between atoms: N4_3  and  C5_4 
REMARK    5  A    between atoms: C9_8  and  C11_10 
REMARK    6  A    between atoms: C19_18  and  N20_19 
ROOT
ATOM      1  C5  1P6 d   1      16.205  12.131   5.542  0.00  0.00     0.127 A 
ATOM      2  N6  1P6 d   1      17.151  11.237   5.841  0.00  0.00    -0.225 NA
ATOM      3  C7  1P6 d   1      17.094   9.992   5.387  0.00  0.00     0.089 A 
ATOM      4  N8  1P6 d   1      16.112   9.586   4.599  0.00  0.00    -0.241 NA
ATOM      5  C9  1P6 d   1      15.113  10.412   4.254  0.00  0.00     0.079 A 
ATOM      6  C10 1P6 d   1      15.146  11.724   4.722  0.00  0.00    -0.010 A 
ATOM      7  H6  1P6 d   1      17.871   9.290   5.668  0.00  0.00     0.146 H 
ATOM      8  H7  1P6 d   1      14.361  12.421   4.454  0.00  0.00     0.093 H 
ENDROOT
BRANCH   1   9
ATOM      9  N4  1P6 d   1      16.287  13.431   6.048  0.00  0.00    -0.366 N 
ATOM     10  H5  1P6 d   1      17.009  13.631   6.755  0.00  0.00     0.161 HD
BRANCH   9  11
ATOM     11  C2  1P6 d   1      15.400  14.535   5.629  0.00  0.00     0.033 C 
ATOM     12  H4  1P6 d   1      14.367  14.268   5.895  0.00  0.00     0.079 H 
BRANCH  11  13
ATOM     13  C1  1P6 d   1      15.780  15.827   6.361  0.00  0.00    -0.053 C 
ATOM     14  H1  1P6 d   1      15.112  16.640   6.040  0.00  0.00     0.030 H 
ATOM     15  H2  1P6 d   1      16.821  16.091   6.122  0.00  0.00     0.030 H 
ATOM     16  H3  1P6 d   1      15.680  15.677   7.446  0.00  0.00     0.030 H 
ENDBRANCH  11  13
BRANCH  11  17
ATOM     17  C21 1P6 d   1      15.465  14.772   4.132  0.00  0.00    -0.036 A 
ATOM     18  C22 1P6 d   1      16.669  14.728   3.437  0.00  0.00    -0.072 A 
ATOM     19  C23 1P6 d   1      16.661  14.947   2.064  0.00  0.00    -0.045 A 
ATOM     20  H13 1P6 d   1      17.598  14.526   3.957  0.00  0.00     0.084 H 
ATOM     21  C24 1P6 d   1      15.471  15.213   1.394  0.00  0.00     0.116 A 
ATOM     22  H14 1P6 d   1      17.592  14.910   1.510  0.00  0.00     0.088 H 
ATOM     23  F25 1P6 d   1      15.474  15.422   0.061  0.00  0.00    -0.206 F 
ATOM     24  C26 1P6 d   1      14.273  15.248   2.081  0.00  0.00    -0.045 A 
ATOM     25  C27 1P6 d   1      14.280  15.032   3.450  0.00  0.00    -0.072 A 
ATOM     26  H15 1P6 d   1      13.343  15.441   1.558  0.00  0.00     0.088 H 
ATOM     27  H16 1P6 d   1      13.346  15.066   3.999  0.00  0.00     0.084 H 
ENDBRANCH  11  17
ENDBRANCH   9  11
ENDBRANCH   1   9
BRANCH   5  28
ATOM     28  C11 1P6 d   1      14.040   9.958   3.343  0.00  0.00     0.088 A 
ATOM     29  C12 1P6 d   1      12.989  10.723   2.802  0.00  0.00     0.166 A 
ATOM     30  N13 1P6 d   1      12.610  11.993   2.956  0.00  0.00    -0.240 NA
ATOM     31  N17 1P6 d   1      12.275   9.903   1.967  0.00  0.00    -0.224 N 
ATOM     32  C14 1P6 d   1      11.573  12.473   2.300  0.00  0.00     0.006 A 
ATOM     33  C15 1P6 d   1      10.824  11.670   1.432  0.00  0.00    -0.049 A 
ATOM     34  H8  1P6 d   1      11.293  13.517   2.436  0.00  0.00     0.114 H 
ATOM     35  C16 1P6 d   1      11.181  10.372   1.285  0.00  0.00     0.007 A 
ATOM     36  H9  1P6 d   1       9.974  12.079   0.888  0.00  0.00     0.087 H 
ATOM     37  H10 1P6 d   1      10.609   9.711   0.636  0.00  0.00     0.115 H 
ATOM     38  N18 1P6 d   1      12.892   8.647   1.978  0.00  0.00    -0.148 NA
ATOM     39  C19 1P6 d   1      13.934   8.677   2.779  0.00  0.00     0.158 A 
BRANCH  39  40
ATOM     40  N20 1P6 d   1      14.779   7.600   3.034  0.00  0.00    -0.382 N 
ATOM     41  H11 1P6 d   1      14.616   6.696   2.568  0.00  0.00     0.157 HD
ATOM     42  H12 1P6 d   1      15.567   7.707   3.689  0.00  0.00     0.157 HD
ENDBRANCH  39  40
ENDBRANCH   5  28
TORSDOF 6
