REMARK  12 active torsions:
REMARK  status: ('A' for Active; 'I' for Inactive)
REMARK    1  A    between atoms: O1_3  and  C1_1 
REMARK    2  A    between atoms: C2_4  and  O1_3 
REMARK    3  A    between atoms: C13_21  and  O2_6 
REMARK    4  A    between atoms: O2_6  and  C14_22 
REMARK    5  A    between atoms: C8_16  and  N3_8 
REMARK    6  A    between atoms: O3_9  and  C17_25 
REMARK    7  A    between atoms: C20_28  and  O3_9 
REMARK    8  A    between atoms: C21_29  and  N5_13 
REMARK    9  A    between atoms: C15_23  and  C7_15 
REMARK   10  A    between atoms: C20_28  and  C21_29 
REMARK   11  A    between atoms: C21_29  and  C22_30 
REMARK   12  A    between atoms: C22_30  and  C23_31 
ROOT
ATOM      1  N4  8H1 d   1     -38.557 -30.561   3.311  0.00  0.00    -0.269 NA
ATOM      2  C15 8H1 d   1     -36.735 -28.915   3.455  0.00  0.00     0.013 A 
ATOM      3  C16 8H1 d   1     -37.674 -27.918   3.150  0.00  0.00    -0.036 A 
ATOM      4  C17 8H1 d   1     -39.025 -28.227   2.929  0.00  0.00     0.087 A 
ATOM      5  C18 8H1 d   1     -39.408 -29.554   3.025  0.00  0.00     0.034 A 
ATOM      6  C19 8H1 d   1     -37.262 -30.215   3.524  0.00  0.00     0.014 A 
ATOM      7  H16 8H1 d   1     -37.349 -26.886   3.084  0.00  0.00     0.089 H 
ATOM      8  H17 8H1 d   1     -40.451 -29.798   2.861  0.00  0.00     0.119 H 
ATOM      9  H18 8H1 d   1     -36.572 -31.014   3.770  0.00  0.00     0.116 H 
ENDROOT
BRANCH   2  10
ATOM     10  C7  8H1 d   1     -35.301 -28.644   3.703  0.00  0.00     0.071 A 
ATOM     11  N1  8H1 d   1     -34.454 -29.661   3.394  0.00  0.00    -0.230 NA
ATOM     12  C8  8H1 d   1     -33.121 -29.525   3.595  0.00  0.00     0.134 A 
ATOM     13  C9  8H1 d   1     -32.574 -28.332   4.124  0.00  0.00     0.038 A 
ATOM     14  C5  8H1 d   1     -33.430 -27.249   4.447  0.00  0.00    -0.006 A 
ATOM     15  C10 8H1 d   1     -31.208 -28.131   4.341  0.00  0.00     0.017 A 
ATOM     16  C4  8H1 d   1     -32.862 -26.031   4.980  0.00  0.00     0.007 A 
ATOM     17  C6  8H1 d   1     -34.815 -27.440   4.225  0.00  0.00    -0.042 A 
ATOM     18  C3  8H1 d   1     -33.608 -24.872   5.354  0.00  0.00    -0.035 A 
ATOM     19  C11 8H1 d   1     -31.461 -25.982   5.151  0.00  0.00     0.070 A 
ATOM     20  C2  8H1 d   1     -32.995 -23.715   5.868  0.00  0.00     0.102 A 
ATOM     21  H4  8H1 d   1     -34.686 -24.884   5.237  0.00  0.00     0.089 H 
ATOM     22  C13 8H1 d   1     -31.598 -23.694   6.028  0.00  0.00     0.103 A 
ATOM     23  C12 8H1 d   1     -30.858 -24.830   5.665  0.00  0.00    -0.019 A 
ATOM     24  H12 8H1 d   1     -29.781 -24.814   5.787  0.00  0.00     0.091 H 
ATOM     25  N2  8H1 d   1     -30.663 -27.007   4.839  0.00  0.00    -0.259 NA
ATOM     26  H10 8H1 d   1     -35.509 -26.642   4.463  0.00  0.00     0.088 H 
ATOM     27  H11 8H1 d   1     -30.536 -28.944   4.088  0.00  0.00     0.116 H 
BRANCH  12  28
ATOM     28  N3  8H1 d   1     -32.317 -30.612   3.252  0.00  0.00    -0.383 N 
ATOM     29  H5  8H1 d   1     -31.297 -30.560   3.385  0.00  0.00     0.157 HD
ATOM     30  H6  8H1 d   1     -32.743 -31.466   2.866  0.00  0.00     0.157 HD
ENDBRANCH  12  28
BRANCH  20  31
ATOM     31  O1  8H1 d   1     -33.654 -22.566   6.236  0.00  0.00    -0.353 OA
BRANCH  31  32
ATOM     32  C1  8H1 d   1     -35.037 -22.393   5.914  0.00  0.00     0.010 C 
ATOM     33  H1  8H1 d   1     -35.382 -21.418   6.289  0.00  0.00     0.066 H 
ATOM     34  H2  8H1 d   1     -35.626 -23.195   6.383  0.00  0.00     0.066 H 
ATOM     35  H3  8H1 d   1     -35.167 -22.433   4.822  0.00  0.00     0.066 H 
ENDBRANCH  31  32
ENDBRANCH  20  31
BRANCH  22  36
ATOM     36  O2  8H1 d   1     -31.067 -22.527   6.534  0.00  0.00    -0.353 OA
BRANCH  36  37
ATOM     37  C14 8H1 d   1     -29.711 -22.478   6.979  0.00  0.00     0.010 C 
ATOM     38  H13 8H1 d   1     -29.481 -21.466   7.344  0.00  0.00     0.066 H 
ATOM     39  H14 8H1 d   1     -29.041 -22.727   6.143  0.00  0.00     0.066 H 
ATOM     40  H15 8H1 d   1     -29.566 -23.203   7.793  0.00  0.00     0.066 H 
ENDBRANCH  36  37
ENDBRANCH  22  36
ENDBRANCH   2  10
BRANCH   4  41
ATOM     41  O3  8H1 d   1     -39.873 -27.203   2.622  0.00  0.00    -0.348 OA
BRANCH  41  42
ATOM     42  C20 8H1 d   1     -39.496 -25.835   2.797  0.00  0.00     0.053 C 
ATOM     43  H19 8H1 d   1     -38.894 -25.497   1.940  0.00  0.00     0.078 H 
ATOM     44  H20 8H1 d   1     -38.913 -25.720   3.723  0.00  0.00     0.078 H 
BRANCH  42  45
ATOM     45  C21 8H1 d   1     -40.797 -25.013   2.886  0.00  0.00     0.124 C 
ATOM     46  H21 8H1 d   1     -40.525 -23.953   2.776  0.00  0.00     0.087 H 
BRANCH  45  47
ATOM     47  N5  8H1 d   1     -41.668 -25.418   1.738  0.00  0.00    -0.073 N 
ATOM     48  H7  8H1 d   1     -41.148 -25.339   0.878  0.00  0.00     0.274 HD
ATOM     49  H8  8H1 d   1     -42.475 -24.815   1.700  0.00  0.00     0.274 HD
ATOM     50  H9  8H1 d   1     -41.967 -26.372   1.863  0.00  0.00     0.274 HD
ENDBRANCH  45  47
BRANCH  45  51
ATOM     51  C22 8H1 d   1     -41.620 -25.144   4.194  0.00  0.00    -0.013 C 
ATOM     52  H22 8H1 d   1     -42.683 -25.054   3.927  0.00  0.00     0.043 H 
ATOM     53  H23 8H1 d   1     -41.335 -24.309   4.851  0.00  0.00     0.043 H 
BRANCH  51  54
ATOM     54  C23 8H1 d   1     -41.455 -26.424   4.986  0.00  0.00    -0.056 A 
ATOM     55  C24 8H1 d   1     -42.316 -27.515   4.756  0.00  0.00    -0.077 A 
ATOM     56  C25 8H1 d   1     -42.162 -28.704   5.482  0.00  0.00    -0.082 A 
ATOM     57  H24 8H1 d   1     -43.102 -27.434   4.014  0.00  0.00     0.084 H 
ATOM     58  C26 8H1 d   1     -41.147 -28.805   6.441  0.00  0.00    -0.083 A 
ATOM     59  H25 8H1 d   1     -42.826 -29.542   5.302  0.00  0.00     0.083 H 
ATOM     60  C27 8H1 d   1     -40.282 -27.731   6.674  0.00  0.00    -0.082 A 
ATOM     61  H26 8H1 d   1     -41.031 -29.722   7.007  0.00  0.00     0.083 H 
ATOM     62  C28 8H1 d   1     -40.435 -26.543   5.952  0.00  0.00    -0.077 A 
ATOM     63  H27 8H1 d   1     -39.494 -27.819   7.413  0.00  0.00     0.083 H 
ATOM     64  H28 8H1 d   1     -39.766 -25.710   6.136  0.00  0.00     0.084 H 
ENDBRANCH  51  54
ENDBRANCH  45  51
ENDBRANCH  42  45
ENDBRANCH  41  42
ENDBRANCH   4  41
TORSDOF 12
