REMARK  12 active torsions:
REMARK  status: ('A' for Active; 'I' for Inactive)
REMARK    1  A    between atoms: O1_3  and  C1_1 
REMARK    2  A    between atoms: C2_4  and  O1_3 
REMARK    3  A    between atoms: C13_21  and  O2_6 
REMARK    4  A    between atoms: O2_6  and  C14_22 
REMARK    5  A    between atoms: C8_16  and  N3_8 
REMARK    6  A    between atoms: O3_9  and  C17_25 
REMARK    7  A    between atoms: C20_28  and  O3_9 
REMARK    8  A    between atoms: C21_29  and  N5_13 
REMARK    9  A    between atoms: C15_23  and  C7_15 
REMARK   10  A    between atoms: C20_28  and  C21_29 
REMARK   11  A    between atoms: C21_29  and  C22_30 
REMARK   12  A    between atoms: C22_30  and  C23_31 
ROOT
ATOM      1  N4  8I1 d   1     -38.583 -30.210   3.200  0.00  0.00    -0.269 NA
ATOM      2  C15 8I1 d   1     -36.698 -28.663   3.447  0.00  0.00     0.013 A 
ATOM      3  C16 8I1 d   1     -37.617 -27.606   3.314  0.00  0.00    -0.036 A 
ATOM      4  C17 8I1 d   1     -38.986 -27.822   3.125  0.00  0.00     0.087 A 
ATOM      5  C18 8I1 d   1     -39.416 -29.143   3.080  0.00  0.00     0.034 A 
ATOM      6  C19 8I1 d   1     -37.257 -29.947   3.384  0.00  0.00     0.014 A 
ATOM      7  H16 8I1 d   1     -37.251 -26.587   3.360  0.00  0.00     0.089 H 
ATOM      8  H17 8I1 d   1     -40.474 -29.333   2.942  0.00  0.00     0.119 H 
ATOM      9  H18 8I1 d   1     -36.587 -30.793   3.489  0.00  0.00     0.116 H 
ENDROOT
BRANCH   2  10
ATOM     10  C7  8I1 d   1     -35.259 -28.394   3.653  0.00  0.00     0.071 A 
ATOM     11  N1  8I1 d   1     -34.409 -29.392   3.312  0.00  0.00    -0.230 NA
ATOM     12  C8  8I1 d   1     -33.072 -29.233   3.473  0.00  0.00     0.134 A 
ATOM     13  C9  8I1 d   1     -32.524 -28.038   4.002  0.00  0.00     0.038 A 
ATOM     14  C5  8I1 d   1     -33.389 -26.977   4.365  0.00  0.00    -0.006 A 
ATOM     15  C10 8I1 d   1     -31.154 -27.816   4.184  0.00  0.00     0.017 A 
ATOM     16  C4  8I1 d   1     -32.826 -25.758   4.896  0.00  0.00     0.007 A 
ATOM     17  C6  8I1 d   1     -34.777 -27.191   4.174  0.00  0.00    -0.042 A 
ATOM     18  C3  8I1 d   1     -33.582 -24.621   5.301  0.00  0.00    -0.035 A 
ATOM     19  C11 8I1 d   1     -31.419 -25.682   5.025  0.00  0.00     0.070 A 
ATOM     20  C2  8I1 d   1     -32.985 -23.456   5.808  0.00  0.00     0.102 A 
ATOM     21  H4  8I1 d   1     -34.662 -24.657   5.214  0.00  0.00     0.089 H 
ATOM     22  C13 8I1 d   1     -31.582 -23.409   5.929  0.00  0.00     0.103 A 
ATOM     23  C12 8I1 d   1     -30.830 -24.526   5.534  0.00  0.00    -0.019 A 
ATOM     24  H12 8I1 d   1     -29.751 -24.488   5.628  0.00  0.00     0.091 H 
ATOM     25  N2  8I1 d   1     -30.607 -26.687   4.676  0.00  0.00    -0.259 NA
ATOM     26  H10 8I1 d   1     -35.477 -26.407   4.437  0.00  0.00     0.088 H 
ATOM     27  H11 8I1 d   1     -30.478 -28.617   3.907  0.00  0.00     0.116 H 
BRANCH  12  28
ATOM     28  N3  8I1 d   1     -32.264 -30.304   3.092  0.00  0.00    -0.383 N 
ATOM     29  H5  8I1 d   1     -31.241 -30.238   3.192  0.00  0.00     0.157 HD
ATOM     30  H6  8I1 d   1     -32.690 -31.160   2.710  0.00  0.00     0.157 HD
ENDBRANCH  12  28
BRANCH  20  31
ATOM     31  O1  8I1 d   1     -33.673 -22.333   6.213  0.00  0.00    -0.353 OA
BRANCH  31  32
ATOM     32  C1  8I1 d   1     -35.016 -22.117   5.778  0.00  0.00     0.010 C 
ATOM     33  H1  8I1 d   1     -35.392 -21.175   6.203  0.00  0.00     0.066 H 
ATOM     34  H2  8I1 d   1     -35.650 -22.950   6.116  0.00  0.00     0.066 H 
ATOM     35  H3  8I1 d   1     -35.041 -22.059   4.680  0.00  0.00     0.066 H 
ENDBRANCH  31  32
ENDBRANCH  20  31
BRANCH  22  36
ATOM     36  O2  8I1 d   1     -31.053 -22.243   6.438  0.00  0.00    -0.353 OA
BRANCH  36  37
ATOM     37  C14 8I1 d   1     -29.656 -22.147   6.709  0.00  0.00     0.010 C 
ATOM     38  H13 8I1 d   1     -29.428 -21.147   7.107  0.00  0.00     0.066 H 
ATOM     39  H14 8I1 d   1     -29.090 -22.309   5.780  0.00  0.00     0.066 H 
ATOM     40  H15 8I1 d   1     -29.373 -22.910   7.449  0.00  0.00     0.066 H 
ENDBRANCH  36  37
ENDBRANCH  22  36
ENDBRANCH   2  10
BRANCH   4  41
ATOM     41  O3  8I1 d   1     -39.720 -26.670   3.014  0.00  0.00    -0.348 OA
BRANCH  41  42
ATOM     42  C20 8I1 d   1     -41.108 -26.713   2.662  0.00  0.00     0.053 C 
ATOM     43  H19 8I1 d   1     -41.594 -27.550   3.184  0.00  0.00     0.078 H 
ATOM     44  H20 8I1 d   1     -41.208 -26.851   1.575  0.00  0.00     0.078 H 
BRANCH  42  45
ATOM     45  C21 8I1 d   1     -41.777 -25.390   3.076  0.00  0.00     0.124 C 
ATOM     46  H21 8I1 d   1     -42.797 -25.390   2.666  0.00  0.00     0.087 H 
BRANCH  45  47
ATOM     47  N5  8I1 d   1     -40.992 -24.277   2.459  0.00  0.00    -0.073 N 
ATOM     48  H7  8I1 d   1     -40.906 -24.436   1.467  0.00  0.00     0.274 HD
ATOM     49  H8  8I1 d   1     -40.074 -24.242   2.875  0.00  0.00     0.274 HD
ATOM     50  H9  8I1 d   1     -41.467 -23.402   2.619  0.00  0.00     0.274 HD
ENDBRANCH  45  47
BRANCH  45  51
ATOM     51  C22 8I1 d   1     -41.884 -25.104   4.596  0.00  0.00    -0.013 C 
ATOM     52  H22 8I1 d   1     -42.942 -24.916   4.832  0.00  0.00     0.043 H 
ATOM     53  H23 8I1 d   1     -41.294 -24.201   4.813  0.00  0.00     0.043 H 
BRANCH  51  54
ATOM     54  C23 8I1 d   1     -41.394 -26.209   5.504  0.00  0.00    -0.056 A 
ATOM     55  C24 8I1 d   1     -40.087 -26.172   6.030  0.00  0.00    -0.077 A 
ATOM     56  C25 8I1 d   1     -39.629 -27.203   6.855  0.00  0.00    -0.082 A 
ATOM     57  H24 8I1 d   1     -39.434 -25.340   5.793  0.00  0.00     0.084 H 
ATOM     58  C26 8I1 d   1     -40.469 -28.274   7.171  0.00  0.00    -0.083 A 
ATOM     59  H25 8I1 d   1     -38.620 -27.172   7.250  0.00  0.00     0.083 H 
ATOM     60  C27 8I1 d   1     -41.768 -28.322   6.656  0.00  0.00    -0.082 A 
ATOM     61  H26 8I1 d   1     -40.113 -29.069   7.816  0.00  0.00     0.083 H 
ATOM     62  C28 8I1 d   1     -42.234 -27.294   5.827  0.00  0.00    -0.077 A 
ATOM     63  H27 8I1 d   1     -42.416 -29.157   6.899  0.00  0.00     0.083 H 
ATOM     64  H28 8I1 d   1     -43.243 -27.333   5.433  0.00  0.00     0.084 H 
ENDBRANCH  51  54
ENDBRANCH  45  51
ENDBRANCH  42  45
ENDBRANCH  41  42
ENDBRANCH   4  41
TORSDOF 12
