REMARK  3 active torsions:
REMARK  status: ('A' for Active; 'I' for Inactive)
REMARK    1  A    between atoms: N_1  and  CA_2 
REMARK    2  A    between atoms: CA_2  and  C_3 
REMARK    3  A    between atoms: CA_2  and  CB_5 
ROOT
ATOM      1  CA  ALA d   1      23.419  18.624  18.281  0.00  0.00     0.179 C 
ATOM      2  H4  ALA d   1      24.477  18.817  18.512  0.00  0.00     0.100 H 
ENDROOT
BRANCH   1   3
ATOM      3  N   ALA d   1      23.225  18.754  16.842  0.00  0.00    -0.066 N 
ATOM      4  H1  ALA d   1      23.456  19.692  16.555  0.00  0.00     0.275 HD
ATOM      5  H2  ALA d   1      22.263  18.560  16.614  0.00  0.00     0.275 HD
ATOM      6  H3  ALA d   1      23.823  18.100  16.362  0.00  0.00     0.275 HD
ENDBRANCH   1   3
BRANCH   1   7
ATOM      7  C   ALA d   1      23.075  17.209  18.736  0.00  0.00     0.204 C 
ATOM      8  O   ALA d   1      23.212  16.844  19.910  0.00  0.00    -0.646 OA
ATOM      9  OXT ALA d   1      22.653  16.391  17.915  0.00  0.00    -0.646 OA
ENDBRANCH   1   7
BRANCH   1  10
ATOM     10  CB  ALA d   1      22.568  19.648  19.017  0.00  0.00    -0.040 C 
ATOM     11  H5  ALA d   1      22.722  19.541  20.101  0.00  0.00     0.030 H 
ATOM     12  H6  ALA d   1      21.507  19.482  18.779  0.00  0.00     0.030 H 
ATOM     13  H7  ALA d   1      22.860  20.661  18.703  0.00  0.00     0.030 H 
ENDBRANCH   1  10
TORSDOF 3
