REMARK  20 active torsions:
REMARK  status: ('A' for Active; 'I' for Inactive)
REMARK    1  A    between atoms: CAU_21  and  CAV_22 
REMARK    2  A    between atoms: CAW_23  and  CAU_21 
REMARK    3  A    between atoms: CAV_22  and  CAX_24 
REMARK    4  A    between atoms: CAY_25  and  CAW_23 
REMARK    5  A    between atoms: CAX_24  and  CAZ_26 
REMARK    6  A    between atoms: CBA_27  and  CAY_25 
REMARK    7  A    between atoms: CAZ_26  and  CBB_28 
REMARK    8  A    between atoms: CBC_29  and  CBA_27 
REMARK    9  A    between atoms: CBB_28  and  CBD_30 
REMARK   10  A    between atoms: CBE_31  and  CBC_29 
REMARK   11  A    between atoms: CBD_30  and  OBH_34 
REMARK   12  A    between atoms: OBI_35  and  CBE_31 
REMARK   13  A    between atoms: CBL_38  and  NBF_32 
REMARK   14  A    between atoms: NBF_32  and  CBR_44 
REMARK   15  A    between atoms: CBM_39  and  NBG_33 
REMARK   16  A    between atoms: NBG_33  and  CBS_45 
REMARK   17  A    between atoms: OBH_34  and  CBV_48 
REMARK   18  A    between atoms: CBW_49  and  OBI_35 
REMARK   19  A    between atoms: CBT_46  and  CBJ_36 
REMARK   20  A    between atoms: CBU_47  and  CBK_37 
ROOT
ATOM      1  CAU JZD d   1      21.218  42.512  50.582  0.00  0.00    -0.065 C 
ATOM      2  H13 JZD d   1      21.485  43.554  50.813  0.00  0.00     0.033 H 
ATOM      3  H14 JZD d   1      20.152  42.457  50.318  0.00  0.00     0.033 H 
ENDROOT
BRANCH   1   4
ATOM      4  CAV JZD d   1      21.432  41.659  51.897  0.00  0.00    -0.065 C 
ATOM      5  H15 JZD d   1      22.401  41.144  51.823  0.00  0.00     0.033 H 
ATOM      6  H16 JZD d   1      20.625  40.914  51.963  0.00  0.00     0.033 H 
BRANCH   4   7
ATOM      7  CAX JZD d   1      21.425  42.510  53.203  0.00  0.00    -0.065 C 
ATOM      8  H19 JZD d   1      20.645  43.279  53.108  0.00  0.00     0.033 H 
ATOM      9  H20 JZD d   1      22.407  42.994  53.303  0.00  0.00     0.033 H 
BRANCH   7  10
ATOM     10  CAZ JZD d   1      21.150  41.696  54.498  0.00  0.00    -0.063 C 
ATOM     11  H23 JZD d   1      21.739  40.768  54.470  0.00  0.00     0.033 H 
ATOM     12  H24 JZD d   1      20.079  41.449  54.546  0.00  0.00     0.033 H 
BRANCH  10  13
ATOM     13  CBB JZD d   1      21.542  42.510  55.771  0.00  0.00    -0.045 C 
ATOM     14  H27 JZD d   1      21.104  43.514  55.671  0.00  0.00     0.036 H 
ATOM     15  H28 JZD d   1      22.639  42.589  55.789  0.00  0.00     0.036 H 
BRANCH  13  16
ATOM     16  CBD JZD d   1      21.087  41.932  57.153  0.00  0.00     0.026 C 
ATOM     17  H31 JZD d   1      20.845  40.866  57.032  0.00  0.00     0.075 H 
ATOM     18  H32 JZD d   1      20.191  42.475  57.489  0.00  0.00     0.075 H 
BRANCH  16  19
ATOM     19  OBH JZD d   1      22.149  42.071  58.182  0.00  0.00    -0.348 OA
BRANCH  19  20
ATOM     20  CBV JZD d   1      21.839  42.119  59.527  0.00  0.00     0.112 A 
ATOM     21  CBN JZD d   1      20.793  42.938  59.990  0.00  0.00     0.071 A 
ATOM     22 CLAE JZD d   1      19.854  43.885  58.897  0.00  0.00    -0.081 Cl
ATOM     23  CAQ JZD d   1      20.478  43.014  61.349  0.00  0.00    -0.033 A 
ATOM     24  CBL JZD d   1      21.191  42.267  62.269  0.00  0.00     0.035 A 
ATOM     25  H9  JZD d   1      19.674  43.659  61.683  0.00  0.00     0.089 H 
ATOM     26  CAR JZD d   1      22.224  41.474  61.842  0.00  0.00    -0.033 A 
ATOM     27  CBO JZD d   1      22.562  41.386  60.505  0.00  0.00     0.071 A 
ATOM     28  H10 JZD d   1      22.789  40.903  62.570  0.00  0.00     0.089 H 
ATOM     29 CLAF JZD d   1      23.896  40.309  60.276  0.00  0.00    -0.081 Cl
BRANCH  24  30
ATOM     30  NBF JZD d   1      20.932  42.317  63.556  0.00  0.00    -0.355 N 
ATOM     31  H35 JZD d   1      20.239  41.705  64.010  0.00  0.00     0.166 HD
BRANCH  30  32
ATOM     32  CBR JZD d   1      21.631  43.212  64.215  0.00  0.00     0.049 A 
ATOM     33  CAM JZD d   1      23.007  43.057  64.280  0.00  0.00    -0.056 A 
ATOM     34  CAI JZD d   1      23.751  44.003  64.952  0.00  0.00    -0.081 A 
ATOM     35  H5  JZD d   1      23.489  42.207  63.811  0.00  0.00     0.086 H 
ATOM     36  CAK JZD d   1      23.086  45.069  65.516  0.00  0.00    -0.082 A 
ATOM     37  H1  JZD d   1      24.828  43.911  65.034  0.00  0.00     0.083 H 
ATOM     38  CAO JZD d   1      21.715  45.241  65.459  0.00  0.00    -0.064 A 
ATOM     39  H3  JZD d   1      23.672  45.818  66.036  0.00  0.00     0.083 H 
ATOM     40  CBT JZD d   1      20.993  44.299  64.783  0.00  0.00     0.067 A 
ATOM     41  H7  JZD d   1      21.233  46.089  65.932  0.00  0.00     0.085 H 
BRANCH  40  42
ATOM     42  CBJ JZD d   1      19.501  44.465  64.732  0.00  0.00     0.211 C 
ATOM     43  OAA JZD d   1      19.026  45.384  64.031  0.00  0.00    -0.644 OA
ATOM     44  OAC JZD d   1      18.852  43.689  65.462  0.00  0.00    -0.644 OA
ENDBRANCH  40  42
ENDBRANCH  30  32
ENDBRANCH  24  30
ENDBRANCH  19  20
ENDBRANCH  16  19
ENDBRANCH  13  16
ENDBRANCH  10  13
ENDBRANCH   7  10
ENDBRANCH   4   7
ENDBRANCH   1   4
BRANCH   1  45
ATOM     45  CAW JZD d   1      22.043  42.077  49.323  0.00  0.00    -0.065 C 
ATOM     46  H17 JZD d   1      22.208  40.992  49.390  0.00  0.00     0.033 H 
ATOM     47  H18 JZD d   1      23.011  42.598  49.361  0.00  0.00     0.033 H 
BRANCH  45  48
ATOM     48  CAY JZD d   1      21.405  42.371  47.948  0.00  0.00    -0.065 C 
ATOM     49  H21 JZD d   1      21.167  43.444  47.919  0.00  0.00     0.033 H 
ATOM     50  H22 JZD d   1      20.475  41.787  47.885  0.00  0.00     0.033 H 
BRANCH  48  51
ATOM     51  CBA JZD d   1      22.268  42.037  46.643  0.00  0.00    -0.063 C 
ATOM     52  H25 JZD d   1      22.599  40.989  46.684  0.00  0.00     0.033 H 
ATOM     53  H26 JZD d   1      23.147  42.698  46.610  0.00  0.00     0.033 H 
BRANCH  51  54
ATOM     54  CBC JZD d   1      21.395  42.260  45.337  0.00  0.00    -0.045 C 
ATOM     55  H29 JZD d   1      20.772  43.149  45.514  0.00  0.00     0.036 H 
ATOM     56  H30 JZD d   1      20.749  41.376  45.227  0.00  0.00     0.036 H 
BRANCH  54  57
ATOM     57  CBE JZD d   1      22.117  42.473  43.965  0.00  0.00     0.026 C 
ATOM     58  H33 JZD d   1      22.964  41.774  43.898  0.00  0.00     0.075 H 
ATOM     59  H34 JZD d   1      22.490  43.507  43.918  0.00  0.00     0.075 H 
BRANCH  57  60
ATOM     60  OBI JZD d   1      21.199  42.235  42.794  0.00  0.00    -0.348 OA
BRANCH  60  61
ATOM     61  CBW JZD d   1      21.451  42.321  41.428  0.00  0.00     0.112 A 
ATOM     62  CBP JZD d   1      21.765  43.540  40.770  0.00  0.00     0.071 A 
ATOM     63 CLAG JZD d   1      21.955  45.074  41.606  0.00  0.00    -0.081 Cl
ATOM     64  CAS JZD d   1      21.968  43.518  39.386  0.00  0.00    -0.033 A 
ATOM     65  CBM JZD d   1      21.845  42.361  38.598  0.00  0.00     0.035 A 
ATOM     66  H11 JZD d   1      22.235  44.446  38.894  0.00  0.00     0.089 H 
ATOM     67  CAT JZD d   1      21.540  41.168  39.272  0.00  0.00    -0.033 A 
ATOM     68  CBQ JZD d   1      21.318  41.137  40.659  0.00  0.00     0.071 A 
ATOM     69  H12 JZD d   1      21.474  40.245  38.707  0.00  0.00     0.089 H 
ATOM     70 CLAH JZD d   1      20.897  39.619  41.438  0.00  0.00    -0.081 Cl
BRANCH  65  71
ATOM     71  NBG JZD d   1      22.090  42.445  37.247  0.00  0.00    -0.355 N 
ATOM     72  H36 JZD d   1      22.985  42.882  36.983  0.00  0.00     0.166 HD
BRANCH  71  73
ATOM     73  CBS JZD d   1      21.304  42.026  36.203  0.00  0.00     0.049 A 
ATOM     74  CAN JZD d   1      20.173  41.234  36.391  0.00  0.00    -0.056 A 
ATOM     75  CAJ JZD d   1      19.392  40.825  35.307  0.00  0.00    -0.081 A 
ATOM     76  H6  JZD d   1      19.895  40.931  37.394  0.00  0.00     0.086 H 
ATOM     77  CAL JZD d   1      19.724  41.192  34.006  0.00  0.00    -0.082 A 
ATOM     78  H2  JZD d   1      18.515  40.213  35.482  0.00  0.00     0.083 H 
ATOM     79  CAP JZD d   1      20.851  41.979  33.800  0.00  0.00    -0.064 A 
ATOM     80  H4  JZD d   1      19.115  40.870  33.169  0.00  0.00     0.083 H 
ATOM     81  CBU JZD d   1      21.628  42.391  34.878  0.00  0.00     0.067 A 
ATOM     82  H8  JZD d   1      21.126  42.273  32.794  0.00  0.00     0.085 H 
BRANCH  81  83
ATOM     83  CBK JZD d   1      22.850  43.248  34.567  0.00  0.00     0.211 C 
ATOM     84  OAB JZD d   1      23.292  43.281  33.382  0.00  0.00    -0.644 OA
ATOM     85  OAD JZD d   1      23.345  43.868  35.536  0.00  0.00    -0.644 OA
ENDBRANCH  81  83
ENDBRANCH  71  73
ENDBRANCH  65  71
ENDBRANCH  60  61
ENDBRANCH  57  60
ENDBRANCH  54  57
ENDBRANCH  51  54
ENDBRANCH  48  51
ENDBRANCH  45  48
ENDBRANCH   1  45
TORSDOF 20
