REMARK  16 active torsions:
REMARK  status: ('A' for Active; 'I' for Inactive)
REMARK    1  A    between atoms: C2_5  and  C1_1 
REMARK    2  A    between atoms: N1_2  and  C7_19 
REMARK    3  A    between atoms: C8_20  and  N1_2 
REMARK    4  A    between atoms: N2_6  and  C26_38 
REMARK    5  A    between atoms: C27_39  and  N2_6 
REMARK    6  A    between atoms: O3_10  and  C13_25 
REMARK    7  A    between atoms: C14_26  and  O3_10 
REMARK    8  A    between atoms: O4_13  and  C20_32 
REMARK    9  A    between atoms: C21_33  and  O4_13 
REMARK   10  A    between atoms: C15_27  and  C14_26 
REMARK   11  A    between atoms: C16_28  and  C15_27 
REMARK   12  A    between atoms: C17_29  and  C16_28 
REMARK   13  A    between atoms: C18_30  and  C17_29 
REMARK   14  A    between atoms: C19_31  and  C18_30 
REMARK   15  A    between atoms: C20_32  and  C19_31 
REMARK   16  A    between atoms: C32_44  and  C33_45 
ROOT
ATOM      1  C17 JZE d   1      -0.406  -0.517  15.882  0.00  0.00    -0.065 C 
ATOM      2  H15 JZE d   1       0.016  -1.464  16.248  0.00  0.00     0.033 H 
ATOM      3  H16 JZE d   1      -1.416  -0.695  15.484  0.00  0.00     0.033 H 
ENDROOT
BRANCH   1   4
ATOM      4  C16 JZE d   1       0.479  -0.007  14.736  0.00  0.00    -0.063 C 
ATOM      5  H13 JZE d   1       0.782   1.033  14.928  0.00  0.00     0.033 H 
ATOM      6  H14 JZE d   1       1.375  -0.638  14.642  0.00  0.00     0.033 H 
BRANCH   4   7
ATOM      7  C15 JZE d   1      -0.351  -0.082  13.454  0.00  0.00    -0.045 C 
ATOM      8  H11 JZE d   1      -0.753  -1.102  13.365  0.00  0.00     0.036 H 
ATOM      9  H12 JZE d   1      -1.182   0.633  13.541  0.00  0.00     0.036 H 
BRANCH   7  10
ATOM     10  C14 JZE d   1       0.422   0.239  12.172  0.00  0.00     0.026 C 
ATOM     11  H9  JZE d   1       0.940   1.206  12.261  0.00  0.00     0.075 H 
ATOM     12  H10 JZE d   1       1.155  -0.551  11.951  0.00  0.00     0.075 H 
BRANCH  10  13
ATOM     13  O3  JZE d   1      -0.582   0.294  11.161  0.00  0.00    -0.348 OA
BRANCH  13  14
ATOM     14  C13 JZE d   1      -0.161   0.107   9.889  0.00  0.00     0.112 A 
ATOM     15  C10 JZE d   1       0.202   1.211   9.121  0.00  0.00     0.071 A 
ATOM     16 CL1  JZE d   1       0.148   2.810   9.806  0.00  0.00    -0.081 Cl
ATOM     17  C9  JZE d   1       0.619   1.039   7.805  0.00  0.00    -0.033 A 
ATOM     18  C8  JZE d   1       0.646  -0.235   7.259  0.00  0.00     0.035 A 
ATOM     19  H7  JZE d   1       0.920   1.894   7.211  0.00  0.00     0.089 H 
ATOM     20  C11 JZE d   1       0.294  -1.333   8.039  0.00  0.00    -0.033 A 
ATOM     21  C12 JZE d   1      -0.132  -1.176   9.355  0.00  0.00     0.071 A 
ATOM     22  H8  JZE d   1       0.353  -2.328   7.614  0.00  0.00     0.089 H 
ATOM     23 CL2  JZE d   1      -0.595  -2.561  10.316  0.00  0.00    -0.081 Cl
BRANCH  18  24
ATOM     24  N1  JZE d   1       1.078  -0.426   6.010  0.00  0.00    -0.355 N 
ATOM     25  H1  JZE d   1       2.072  -0.673   5.901  0.00  0.00     0.166 HD
BRANCH  24  26
ATOM     26  C7  JZE d   1       0.363  -0.332   4.889  0.00  0.00     0.049 A 
ATOM     27  C2  JZE d   1       0.781   0.522   3.863  0.00  0.00     0.067 A 
ATOM     28  C3  JZE d   1       0.058   0.611   2.686  0.00  0.00    -0.064 A 
ATOM     29  C4  JZE d   1      -1.074  -0.171   2.506  0.00  0.00    -0.082 A 
ATOM     30  H3  JZE d   1       0.376   1.292   1.905  0.00  0.00     0.085 H 
ATOM     31  C5  JZE d   1      -1.480  -1.036   3.509  0.00  0.00    -0.081 A 
ATOM     32  H4  JZE d   1      -1.639  -0.105   1.583  0.00  0.00     0.083 H 
ATOM     33  C6  JZE d   1      -0.764  -1.126   4.698  0.00  0.00    -0.056 A 
ATOM     34  H5  JZE d   1      -2.363  -1.648   3.366  0.00  0.00     0.083 H 
ATOM     35  H6  JZE d   1      -1.083  -1.813   5.474  0.00  0.00     0.086 H 
BRANCH  27  36
ATOM     36  C1  JZE d   1       2.017   1.407   4.025  0.00  0.00     0.211 C 
ATOM     37  O1  JZE d   1       2.626   1.779   2.993  0.00  0.00    -0.644 OA
ATOM     38  O2  JZE d   1       2.343   1.715   5.192  0.00  0.00    -0.644 OA
ENDBRANCH  27  36
ENDBRANCH  24  26
ENDBRANCH  18  24
ENDBRANCH  13  14
ENDBRANCH  10  13
ENDBRANCH   7  10
ENDBRANCH   4   7
ENDBRANCH   1   4
BRANCH   1  39
ATOM     39  C18 JZE d   1      -0.520   0.440  17.060  0.00  0.00    -0.063 C 
ATOM     40  H17 JZE d   1      -1.578   0.553  17.337  0.00  0.00     0.033 H 
ATOM     41  H18 JZE d   1      -0.109   1.420  16.775  0.00  0.00     0.033 H 
BRANCH  39  42
ATOM     42  C19 JZE d   1       0.259  -0.109  18.250  0.00  0.00    -0.045 C 
ATOM     43  H19 JZE d   1       1.200   0.452  18.343  0.00  0.00     0.036 H 
ATOM     44  H20 JZE d   1       0.481  -1.170  18.065  0.00  0.00     0.036 H 
BRANCH  42  45
ATOM     45  C20 JZE d   1      -0.510   0.006  19.569  0.00  0.00     0.026 C 
ATOM     46  H21 JZE d   1      -1.183   0.876  19.556  0.00  0.00     0.075 H 
ATOM     47  H22 JZE d   1      -1.094  -0.906  19.762  0.00  0.00     0.075 H 
BRANCH  45  48
ATOM     48  O4  JZE d   1       0.517   0.171  20.551  0.00  0.00    -0.348 OA
BRANCH  48  49
ATOM     49  C21 JZE d   1       0.198   0.038  21.862  0.00  0.00     0.112 A 
ATOM     50  C22 JZE d   1       0.073  -1.223  22.450  0.00  0.00     0.071 A 
ATOM     51 CL3  JZE d   1       0.263  -2.678  21.504  0.00  0.00    -0.081 Cl
ATOM     52  C23 JZE d   1      -0.235  -1.309  23.810  0.00  0.00    -0.033 A 
ATOM     53  C26 JZE d   1      -0.375  -0.152  24.578  0.00  0.00     0.035 A 
ATOM     54  H23 JZE d   1      -0.366  -2.281  24.272  0.00  0.00     0.089 H 
ATOM     55  C25 JZE d   1      -0.248   1.090  23.979  0.00  0.00    -0.033 A 
ATOM     56  C24 JZE d   1       0.048   1.193  22.629  0.00  0.00     0.071 A 
ATOM     57  H24 JZE d   1      -0.381   1.989  24.570  0.00  0.00     0.089 H 
ATOM     58 CL4  JZE d   1       0.209   2.775  21.926  0.00  0.00    -0.081 Cl
BRANCH  53  59
ATOM     59  N2  JZE d   1      -0.681  -0.187  25.876  0.00  0.00    -0.355 N 
ATOM     60  H2  JZE d   1      -1.637   0.080  26.150  0.00  0.00     0.166 HD
BRANCH  59  61
ATOM     61  C27 JZE d   1       0.167  -0.545  26.845  0.00  0.00     0.049 A 
ATOM     62  C28 JZE d   1       1.163  -1.496  26.656  0.00  0.00    -0.056 A 
ATOM     63  C29 JZE d   1       2.003  -1.849  27.710  0.00  0.00    -0.081 A 
ATOM     64  H25 JZE d   1       1.286  -1.964  25.686  0.00  0.00     0.086 H 
ATOM     65  C30 JZE d   1       1.846  -1.248  28.955  0.00  0.00    -0.082 A 
ATOM     66  H26 JZE d   1       2.779  -2.591  27.560  0.00  0.00     0.083 H 
ATOM     67  C31 JZE d   1       0.845  -0.302  29.149  0.00  0.00    -0.064 A 
ATOM     68  H27 JZE d   1       2.504  -1.517  29.774  0.00  0.00     0.083 H 
ATOM     69  C32 JZE d   1       0.008   0.044  28.094  0.00  0.00     0.067 A 
ATOM     70  H28 JZE d   1       0.718   0.164  30.119  0.00  0.00     0.085 H 
BRANCH  69  71
ATOM     71  C33 JZE d   1      -1.100   1.085  28.264  0.00  0.00     0.211 C 
ATOM     72  O5  JZE d   1      -1.203   1.691  29.356  0.00  0.00    -0.644 OA
ATOM     73  O6  JZE d   1      -1.836   1.283  27.270  0.00  0.00    -0.644 OA
ENDBRANCH  69  71
ENDBRANCH  59  61
ENDBRANCH  53  59
ENDBRANCH  48  49
ENDBRANCH  45  48
ENDBRANCH  42  45
ENDBRANCH  39  42
ENDBRANCH   1  39
TORSDOF 16
