REMARK  12 active torsions:
REMARK  status: ('A' for Active; 'I' for Inactive)
REMARK    1  A    between atoms: C1_1  and  C47_29 
REMARK    2  A    between atoms: C5_4  and  S10_7 
REMARK    3  A    between atoms: S10_7  and  C11_8 
REMARK    4  A    between atoms: C11_8  and  C14_9 
REMARK    5  A    between atoms: C14_9  and  C17_10 
REMARK    6  A    between atoms: C17_10  and  O20_11 
REMARK    7  A    between atoms: O20_11  and  C21_12 
REMARK    8  A    between atoms: C22_13  and  C36_25 
REMARK    9  A    between atoms: C29_18  and  C32_21 
REMARK   10  A    between atoms: C36_25  and  C39_26 
REMARK   11  A    between atoms: C39_26  and  C42_27 
REMARK   12  A    between atoms: C47_29  and  C50_30 
ROOT
ATOM      1  C17 O90 d   1      21.911 -14.576  17.812  0.00  0.00     0.027 C 
ATOM      2  H   O90 d   1      21.736 -14.665  18.884  0.00  0.00     0.075 H 
ATOM      3  H   O90 d   1      21.920 -13.498  17.651  0.00  0.00     0.075 H 
ENDROOT
BRANCH   1   4
ATOM      4  C14 O90 d   1      20.852 -15.284  16.983  0.00  0.00    -0.036 C 
ATOM      5  H   O90 d   1      19.884 -14.814  17.160  0.00  0.00     0.037 H 
ATOM      6  H   O90 d   1      21.114 -15.210  15.928  0.00  0.00     0.037 H 
BRANCH   4   7
ATOM      7  C11 O90 d   1      20.777 -16.749  17.379  0.00  0.00    -0.017 C 
ATOM      8  H   O90 d   1      20.060 -17.254  16.732  0.00  0.00     0.049 H 
ATOM      9  H   O90 d   1      21.767 -17.194  17.276  0.00  0.00     0.049 H 
BRANCH   7  10
ATOM     10  S10 O90 d   1      20.235 -16.916  19.097  0.00  0.00    -0.128 SA
BRANCH  10  11
ATOM     11  C5  O90 d   1      18.552 -16.342  18.993  0.00  0.00     0.022 A 
ATOM     12  C4  O90 d   1      17.516 -17.198  18.688  0.00  0.00     0.051 A 
ATOM     13  C2  O90 d   1      16.181 -16.735  18.621  0.00  0.00    -0.054 A 
ATOM     14 CL46 O90 d   1      18.018 -18.831  18.402  0.00  0.00    -0.083 Cl
ATOM     15  C1  O90 d   1      15.913 -15.358  18.872  0.00  0.00    -0.046 A 
ATOM     16  H   O90 d   1      15.369 -17.422  18.381  0.00  0.00     0.086 H 
ATOM     17  C8  O90 d   1      16.986 -14.519  19.189  0.00  0.00    -0.075 A 
ATOM     18  C6  O90 d   1      18.286 -15.008  19.247  0.00  0.00    -0.065 A 
ATOM     19  H   O90 d   1      16.800 -13.465  19.394  0.00  0.00     0.084 H 
ATOM     20  H   O90 d   1      19.105 -14.333  19.495  0.00  0.00     0.085 H 
BRANCH  15  21
ATOM     21  C47 O90 d   1      14.565 -14.659  18.861  0.00  0.00     0.040 C 
ATOM     22  H   O90 d   1      14.729 -13.766  18.258  0.00  0.00     0.056 H 
ATOM     23  H   O90 d   1      14.298 -14.571  19.914  0.00  0.00     0.056 H 
BRANCH  21  24
ATOM     24  C50 O90 d   1      13.371 -15.321  18.229  0.00  0.00     0.176 C 
ATOM     25  O51 O90 d   1      13.274 -16.414  17.721  0.00  0.00    -0.648 OA
ATOM     26  O52 O90 d   1      12.284 -14.518  18.272  0.00  0.00    -0.648 OA
ENDBRANCH  21  24
ENDBRANCH  15  21
ENDBRANCH  10  11
ENDBRANCH   7  10
ENDBRANCH   4   7
ENDBRANCH   1   4
BRANCH   1  27
ATOM     27  O20 O90 d   1      23.113 -15.201  17.400  0.00  0.00    -0.350 OA
BRANCH  27  28
ATOM     28  C21 O90 d   1      24.294 -14.962  18.026  0.00  0.00     0.077 A 
ATOM     29  C22 O90 d   1      25.184 -16.050  17.924  0.00  0.00     0.012 A 
ATOM     30  C23 O90 d   1      26.418 -15.852  18.528  0.00  0.00     0.122 A 
ATOM     31  C24 O90 d   1      26.772 -14.688  19.189  0.00  0.00     0.036 A 
ATOM     32  O31 O90 d   1      27.415 -16.796  18.529  0.00  0.00    -0.211 OA
ATOM     33  C25 O90 d   1      25.861 -13.628  19.274  0.00  0.00    -0.065 A 
ATOM     34  C29 O90 d   1      28.069 -15.005  19.605  0.00  0.00     0.180 A 
ATOM     35  C27 O90 d   1      24.621 -13.777  18.684  0.00  0.00    -0.049 A 
ATOM     36  H   O90 d   1      26.124 -12.707  19.794  0.00  0.00     0.085 H 
ATOM     37  H   O90 d   1      23.895 -12.965  18.733  0.00  0.00     0.087 H 
ATOM     38  N30 O90 d   1      28.537 -16.224  19.254  0.00  0.00    -0.122 NA
BRANCH  29  39
ATOM     39  C36 O90 d   1      24.855 -17.330  17.187  0.00  0.00    -0.036 C 
ATOM     40  H   O90 d   1      25.735 -17.610  16.608  0.00  0.00     0.040 H 
ATOM     41  H   O90 d   1      23.974 -17.138  16.574  0.00  0.00     0.040 H 
BRANCH  39  42
ATOM     42  C39 O90 d   1      24.525 -18.494  18.108  0.00  0.00    -0.065 C 
ATOM     43  H   O90 d   1      24.106 -18.108  19.037  0.00  0.00     0.032 H 
ATOM     44  H   O90 d   1      25.436 -19.057  18.314  0.00  0.00     0.032 H 
BRANCH  42  45
ATOM     45  C42 O90 d   1      23.511 -19.411  17.446  0.00  0.00    -0.076 C 
ATOM     46  H   O90 d   1      22.600 -18.851  17.235  0.00  0.00     0.027 H 
ATOM     47  H   O90 d   1      23.926 -19.797  16.515  0.00  0.00     0.027 H 
ATOM     48  H   O90 d   1      23.282 -20.241  18.115  0.00  0.00     0.027 H 
ENDBRANCH  42  45
ENDBRANCH  39  42
ENDBRANCH  29  39
BRANCH  34  49
ATOM     49  C32 O90 d   1      28.890 -14.037  20.372  0.00  0.00     0.437 C 
ATOM     50  F33 O90 d   1      30.218 -14.403  20.348  0.00  0.00    -0.164 F 
ATOM     51  F34 O90 d   1      28.542 -14.048  21.696  0.00  0.00    -0.164 F 
ATOM     52  F35 O90 d   1      28.772 -12.749  19.881  0.00  0.00    -0.164 F 
ENDBRANCH  34  49
ENDBRANCH  27  28
ENDBRANCH   1  27
TORSDOF 12
