REMARK  4 active torsions:
REMARK  status: ('A' for Active; 'I' for Inactive)
REMARK    1  A    between atoms: N4_4  and  C10_10 
REMARK    2  A    between atoms: C12_12  and  C15_16 
REMARK    3  A    between atoms: C13_13  and  O13_14 
REMARK    4  A    between atoms: C15_16  and  O16_17 
ROOT
ATOM      1  C10 B86 d   1      28.897  -6.497  19.548  0.00  0.00     0.116 C 
ATOM      2  O11 B86 d   1      28.807  -5.866  20.832  0.00  0.00    -0.356 OA
ATOM      3  C12 B86 d   1      29.981  -5.106  21.112  0.00  0.00     0.086 C 
ATOM      4  C13 B86 d   1      30.846  -5.206  19.892  0.00  0.00     0.066 C 
ATOM      5  C14 B86 d   1      29.929  -5.684  18.786  0.00  0.00     0.002 C 
ATOM      6  H4  B86 d   1      29.267  -7.528  19.644  0.00  0.00     0.118 H 
ATOM      7  H5  B86 d   1      30.504  -5.516  21.988  0.00  0.00     0.090 H 
ATOM      8  H6  B86 d   1      31.315  -4.246  19.632  0.00  0.00     0.087 H 
ATOM      9  H8  B86 d   1      29.461  -4.837  18.263  0.00  0.00     0.043 H 
ATOM     10  H9  B86 d   1      30.472  -6.309  18.061  0.00  0.00     0.043 H 
ENDROOT
BRANCH   1  11
ATOM     11  N4  B86 d   1      27.532  -6.549  19.010  0.00  0.00    -0.279 N 
ATOM     12  C3  B86 d   1      26.981  -7.789  18.586  0.00  0.00     0.330 A 
ATOM     13  N2  B86 d   1      25.712  -7.887  18.121  0.00  0.00    -0.291 N 
ATOM     14  O9  B86 d   1      27.664  -8.822  18.621  0.00  0.00    -0.246 OA
ATOM     15  C1  B86 d   1      24.941  -6.782  18.074  0.00  0.00     0.164 A 
ATOM     16  H1  B86 d   1      25.352  -8.769  17.816  0.00  0.00     0.172 HD
ATOM     17  C6  B86 d   1      25.507  -5.496  18.507  0.00  0.00     0.177 A 
ATOM     18  N7  B86 d   1      23.669  -6.808  17.630  0.00  0.00    -0.281 NA
ATOM     19  C5  B86 d   1      26.804  -5.433  18.967  0.00  0.00     0.028 A 
ATOM     20  F8  B86 d   1      24.732  -4.408  18.425  0.00  0.00    -0.201 F 
ATOM     21  H2  B86 d   1      27.229  -4.484  19.291  0.00  0.00     0.117 H 
ATOM     22  H3  B86 d   1      23.125  -5.960  17.610  0.00  0.00     0.188 HD
ENDBRANCH   1  11
BRANCH   3  23
ATOM     23  C15 B86 d   1      29.612  -3.663  21.368  0.00  0.00     0.043 C 
ATOM     24  H10 B86 d   1      30.526  -3.070  21.521  0.00  0.00     0.078 H 
ATOM     25  H11 B86 d   1      28.977  -3.598  22.264  0.00  0.00     0.078 H 
BRANCH  23  26
ATOM     26  O16 B86 d   1      28.901  -3.162  20.242  0.00  0.00    -0.398 OA
ATOM     27  H12 B86 d   1      28.666  -2.255  20.396  0.00  0.00     0.209 HD
ENDBRANCH  23  26
ENDBRANCH   3  23
BRANCH   4  28
ATOM     28  O13 B86 d   1      31.834  -6.196  20.208  0.00  0.00    -0.393 OA
ATOM     29  H7  B86 d   1      32.332  -5.914  20.966  0.00  0.00     0.210 HD
ENDBRANCH   4  28
TORSDOF 4
