REMARK  4 active torsions:
REMARK  status: ('A' for Active; 'I' for Inactive)
REMARK       I    between atoms: N3_3  and  C6_6 
REMARK    1  A    between atoms: C6_6  and  C8_8 
REMARK    2  A    between atoms: C8_8  and  N9_9 
REMARK    3  A    between atoms: N12_12  and  C15_15 
REMARK    4  A    between atoms: C17_17  and  C21_21 
ROOT
ATOM      1  N9  NON d   1      12.200   9.125  16.257  0.00  0.00    -0.401 N 
ATOM      2  C10 NON d   1      13.505   9.155  15.592  0.00  0.00     0.005 C 
ATOM      3  C11 NON d   1      13.703  10.558  15.031  0.00  0.00     0.011 C 
ATOM      4  N12 NON d   1      13.691  11.456  16.170  0.00  0.00    -0.363 N 
ATOM      5  C13 NON d   1      12.645  11.383  17.179  0.00  0.00     0.011 C 
ATOM      6  C14 NON d   1      11.587  10.324  16.831  0.00  0.00     0.005 C 
ATOM      7  H   NON d   1      13.541   8.416  14.791  0.00  0.00     0.066 H 
ATOM      8  H   NON d   1      14.298   8.912  16.299  0.00  0.00     0.066 H 
ATOM      9  H   NON d   1      12.915  10.812  14.322  0.00  0.00     0.066 H 
ATOM     10  H   NON d   1      14.642  10.632  14.482  0.00  0.00     0.066 H 
ATOM     11  H   NON d   1      12.152  12.354  17.232  0.00  0.00     0.066 H 
ATOM     12  H   NON d   1      13.104  11.108  18.129  0.00  0.00     0.066 H 
ATOM     13  H   NON d   1      11.066  10.042  17.746  0.00  0.00     0.066 H 
ATOM     14  H   NON d   1      10.902  10.748  16.097  0.00  0.00     0.066 H 
ENDROOT
BRANCH   4  15
ATOM     15  C15 NON d   1      14.695  12.424  16.299  0.00  0.00     0.129 A 
ATOM     16  C16 NON d   1      15.906  12.298  15.616  0.00  0.00    -0.010 A 
ATOM     17  C17 NON d   1      16.879  13.289  15.771  0.00  0.00     0.079 A 
ATOM     18  H   NON d   1      16.090  11.439  14.971  0.00  0.00     0.093 H 
ATOM     19  N18 NON d   1      16.616  14.346  16.576  0.00  0.00    -0.241 NA
ATOM     20  C19 NON d   1      15.444  14.455  17.218  0.00  0.00     0.089 A 
ATOM     21  N20 NON d   1      14.492  13.514  17.089  0.00  0.00    -0.225 NA
ATOM     22  H   NON d   1      15.260  15.320  17.855  0.00  0.00     0.146 H 
BRANCH  17  23
ATOM     23  C21 NON d   1      18.198  13.204  15.050  0.00  0.00     0.035 A 
ATOM     24  S22 NON d   1      19.278  14.533  15.404  0.00  0.00    -0.087 SA
ATOM     25  C23 NON d   1      20.511  14.007  14.408  0.00  0.00     0.016 A 
ATOM     26  C24 NON d   1      20.091  12.754  13.759  0.00  0.00    -0.018 A 
ATOM     27  C26 NON d   1      21.744  14.614  14.190  0.00  0.00    -0.066 A 
ATOM     28  C25 NON d   1      18.762  12.301  14.131  0.00  0.00    -0.053 A 
ATOM     29  C29 NON d   1      21.003  12.168  12.885  0.00  0.00    -0.072 A 
ATOM     30  H   NON d   1      18.277  11.400  13.756  0.00  0.00     0.087 H 
ATOM     31  C28 NON d   1      22.250  12.780  12.669  0.00  0.00    -0.082 A 
ATOM     32  H   NON d   1      20.752  11.240  12.371  0.00  0.00     0.084 H 
ATOM     33  C27 NON d   1      22.618  13.978  13.302  0.00  0.00    -0.082 A 
ATOM     34  H   NON d   1      22.956  12.308  11.986  0.00  0.00     0.083 H 
ATOM     35  H   NON d   1      23.595  14.417  13.099  0.00  0.00     0.083 H 
ATOM     36  H   NON d   1      22.017  15.544  14.689  0.00  0.00     0.085 H 
ENDBRANCH  17  23
ENDBRANCH   4  15
BRANCH   1  37
ATOM     37  C8  NON d   1      11.473   7.868  16.342  0.00  0.00     0.065 C 
ATOM     38  H   NON d   1      10.456   8.077  16.675  0.00  0.00     0.078 H 
ATOM     39  H   NON d   1      11.479   7.396  15.359  0.00  0.00     0.078 H 
BRANCH  37  40
ATOM     40  C6  NON d   1      12.122   6.923  17.335  0.00  0.00     0.245 C 
ATOM     41  N3  NON d   1      11.554   5.735  17.523  0.00  0.00    -0.302 N 
ATOM     42  C2  NON d   1      10.326   5.308  16.847  0.00  0.00    -0.013 C 
ATOM     43  C4  NON d   1      12.118   4.754  18.446  0.00  0.00    -0.013 C 
ATOM     44  C1  NON d   1      10.119   3.872  17.308  0.00  0.00    -0.066 C 
ATOM     45  H   NON d   1       9.702   5.888  16.167  0.00  0.00     0.112 H 
ATOM     46  C5  NON d   1      11.139   3.589  18.406  0.00  0.00    -0.066 C 
ATOM     47  H   NON d   1       9.377   3.173  16.923  0.00  0.00     0.085 H 
ATOM     48  H   NON d   1      11.163   2.709  19.048  0.00  0.00     0.085 H 
ATOM     49  H   NON d   1      13.034   4.837  19.032  0.00  0.00     0.112 H 
ATOM     50  O7  NON d   1      13.129   7.260  17.942  0.00  0.00    -0.271 OA
ENDBRANCH  37  40
ENDBRANCH   1  37
TORSDOF 4
