REMARK  18 active torsions:
REMARK  status: ('A' for Active; 'I' for Inactive)
REMARK    1  A    between atoms: N_1  and  CA_2 
REMARK    2  A    between atoms: CA_2  and  C_3 
REMARK    3  A    between atoms: CA_2  and  CB_5 
REMARK       I    between atoms: C_3  and  N_9 
REMARK    4  A    between atoms: CB_5  and  CG_6 
REMARK       I    between atoms: CG_6  and  ND2_8 
REMARK    5  A    between atoms: N_9  and  CA_10 
REMARK    6  A    between atoms: CA_10  and  C_11 
REMARK    7  A    between atoms: CA_10  and  CB_13 
REMARK       I    between atoms: C_11  and  N_23 
REMARK    8  A    between atoms: CB_13  and  CG_14 
REMARK    9  A    between atoms: N_23  and  CA_24 
REMARK   10  A    between atoms: CA_24  and  C_25 
REMARK   11  A    between atoms: CA_24  and  CB_27 
REMARK       I    between atoms: C_25  and  N_31 
REMARK   12  A    between atoms: CB_27  and  CG_28 
REMARK       I    between atoms: CG_28  and  ND2_30 
REMARK   13  A    between atoms: N_31  and  CA_32 
REMARK   14  A    between atoms: CA_32  and  C_33 
REMARK   15  A    between atoms: CA_32  and  CB_35 
REMARK   16  A    between atoms: CB_35  and  CG1_36 
REMARK   17  A    between atoms: CB_35  and  CG2_37 
REMARK   18  A    between atoms: CG1_36  and  CD1_38 
ROOT
ATOM      1  CA  TRP d   1      21.628   1.429  41.562  0.00  0.00     0.093 C 
ATOM      2  H10 TRP d   1      21.793   1.947  40.605  0.00  0.00     0.088 H 
ENDROOT
BRANCH   1   3
ATOM      3  N   TRP d   1      21.279   2.439  42.568  0.00  0.00    -0.346 N 
ATOM      4  C   ASN d   1      20.697   3.596  42.251  0.00  0.00     0.249 C 
ATOM      5  O   ASN d   1      20.510   3.970  41.088  0.00  0.00    -0.271 OA
ATOM      6  H9  TRP d   1      21.486   2.252  43.528  0.00  0.00     0.163 HD
BRANCH   4   7
ATOM      7  CA  ASN d   1      20.248   4.465  43.426  0.00  0.00     0.183 C 
ATOM      8  H4  ASN d   1      19.246   4.851  43.186  0.00  0.00     0.099 H 
BRANCH   7   9
ATOM      9  N   ASN d   1      20.129   3.668  44.689  0.00  0.00    -0.066 N 
ATOM     10  H1  ASN d   1      19.832   4.271  45.440  0.00  0.00     0.275 HD
ATOM     11  H2  ASN d   1      21.024   3.264  44.917  0.00  0.00     0.275 HD
ATOM     12  H3  ASN d   1      19.451   2.933  44.560  0.00  0.00     0.275 HD
ENDBRANCH   7   9
BRANCH   7  13
ATOM     13  CB  ASN d   1      21.177   5.677  43.607  0.00  0.00     0.044 C 
ATOM     14  H5  ASN d   1      20.632   6.457  44.159  0.00  0.00     0.051 H 
ATOM     15  H6  ASN d   1      21.455   6.057  42.613  0.00  0.00     0.051 H 
BRANCH  13  16
ATOM     16  CG  ASN d   1      22.454   5.339  44.374  0.00  0.00     0.217 C 
ATOM     17  OD1 ASN d   1      22.483   4.412  45.193  0.00  0.00    -0.274 OA
ATOM     18  ND2 ASN d   1      23.515   6.105  44.125  0.00  0.00    -0.370 N 
ATOM     19  H7  ASN d   1      24.379   5.931  44.597  0.00  0.00     0.159 HD
ATOM     20  H8  ASN d   1      23.447   6.854  43.466  0.00  0.00     0.159 HD
ENDBRANCH  13  16
ENDBRANCH   7  13
ENDBRANCH   4   7
ENDBRANCH   1   3
BRANCH   1  21
ATOM     21  C   TRP d   1      20.493   0.413  41.370  0.00  0.00     0.241 C 
ATOM     22  O   TRP d   1      20.575  -0.463  40.500  0.00  0.00    -0.271 OA
ATOM     23  N   ASN d   1      19.449   0.515  42.193  0.00  0.00    -0.346 N 
ATOM     24  H19 ASN d   1      19.471   1.180  42.940  0.00  0.00     0.163 HD
BRANCH  23  25
ATOM     25  CA  ASN d   1      18.272  -0.336  42.015  0.00  0.00     0.097 C 
ATOM     26  H20 ASN d   1      18.623  -1.329  41.696  0.00  0.00     0.088 H 
BRANCH  25  27
ATOM     27  C   ASN d   1      17.395   0.229  40.891  0.00  0.00     0.241 C 
ATOM     28  O   ASN d   1      16.416   0.951  41.118  0.00  0.00    -0.271 OA
ATOM     29  N   ILE d   1      17.798  -0.088  39.665  0.00  0.00    -0.344 N 
ATOM     30  H25 ILE d   1      18.584  -0.699  39.567  0.00  0.00     0.163 HD
BRANCH  29  31
ATOM     31  CA  ILE d   1      17.154   0.408  38.458  0.00  0.00     0.099 C 
ATOM     32  H26 ILE d   1      16.387   1.145  38.736  0.00  0.00     0.090 H 
BRANCH  31  33
ATOM     33  C   ILE d   1      16.454  -0.785  37.791  0.00  0.00     0.197 C 
ATOM     34  O   ILE d   1      16.861  -1.930  37.978  0.00  0.00    -0.646 OA
ATOM     35  OXT ILE d   1      15.441  -0.640  37.106  0.00  0.00    -0.646 OA
ENDBRANCH  31  33
BRANCH  31  36
ATOM     36  CB  ILE d   1      18.200   1.131  37.554  0.00  0.00    -0.029 C 
ATOM     37  H27 ILE d   1      19.173   0.638  37.694  0.00  0.00     0.043 H 
BRANCH  36  38
ATOM     38  CG1 ILE d   1      18.333   2.601  38.001  0.00  0.00    -0.063 C 
ATOM     39  H28 ILE d   1      18.425   2.615  39.097  0.00  0.00     0.033 H 
ATOM     40  H29 ILE d   1      17.416   3.131  37.703  0.00  0.00     0.033 H 
BRANCH  38  41
ATOM     41  CD1 ILE d   1      19.535   3.364  37.413  0.00  0.00    -0.076 C 
ATOM     42  H33 ILE d   1      19.536   4.396  37.794  0.00  0.00     0.027 H 
ATOM     43  H34 ILE d   1      19.459   3.378  36.316  0.00  0.00     0.027 H 
ATOM     44  H35 ILE d   1      20.468   2.863  37.710  0.00  0.00     0.027 H 
ENDBRANCH  38  41
ENDBRANCH  36  38
BRANCH  36  45
ATOM     45  CG2 ILE d   1      17.841   1.036  36.089  0.00  0.00    -0.070 C 
ATOM     46  H30 ILE d   1      17.753  -0.022  35.801  0.00  0.00     0.028 H 
ATOM     47  H31 ILE d   1      18.627   1.516  35.487  0.00  0.00     0.028 H 
ATOM     48  H32 ILE d   1      16.882   1.545  35.913  0.00  0.00     0.028 H 
ENDBRANCH  36  45
ENDBRANCH  31  36
ENDBRANCH  29  31
ENDBRANCH  25  27
BRANCH  25  49
ATOM     49  CB  ASN d   1      17.501  -0.531  43.318  0.00  0.00     0.036 C 
ATOM     50  H21 ASN d   1      16.844   0.338  43.472  0.00  0.00     0.051 H 
ATOM     51  H22 ASN d   1      18.221  -0.598  44.147  0.00  0.00     0.051 H 
BRANCH  49  52
ATOM     52  CG  ASN d   1      16.647  -1.794  43.310  0.00  0.00     0.217 C 
ATOM     53  OD1 ASN d   1      16.996  -2.809  42.680  0.00  0.00    -0.274 OA
ATOM     54  ND2 ASN d   1      15.516  -1.737  44.006  0.00  0.00    -0.370 N 
ATOM     55  H23 ASN d   1      14.910  -2.532  44.042  0.00  0.00     0.159 HD
ATOM     56  H24 ASN d   1      15.271  -0.899  44.494  0.00  0.00     0.159 HD
ENDBRANCH  49  52
ENDBRANCH  25  49
ENDBRANCH  23  25
ENDBRANCH   1  21
BRANCH   1  57
ATOM     57  CB  TRP d   1      22.922   0.690  41.940  0.00  0.00    -0.012 C 
ATOM     58  H11 TRP d   1      23.138  -0.044  41.150  0.00  0.00     0.044 H 
ATOM     59  H12 TRP d   1      22.749   0.165  42.891  0.00  0.00     0.044 H 
BRANCH  57  60
ATOM     60  CG  TRP d   1      24.136   1.568  42.106  0.00  0.00    -0.028 A 
ATOM     61  CD1 TRP d   1      24.257   2.892  41.764  0.00  0.00    -0.015 A 
ATOM     62  NE1 TRP d   1      25.525   3.340  42.054  0.00  0.00    -0.365 N 
ATOM     63  H13 TRP d   1      23.465   3.499  41.327  0.00  0.00     0.112 H 
ATOM     64  CE2 TRP d   1      26.263   2.306  42.574  0.00  0.00     0.042 A 
ATOM     65  H14 TRP d   1      25.867   4.300  41.904  0.00  0.00     0.165 HD
ATOM     66  CD2 TRP d   1      25.419   1.168  42.624  0.00  0.00    -0.002 A 
ATOM     67  CZ2 TRP d   1      27.601   2.273  43.009  0.00  0.00    -0.056 A 
ATOM     68  CE3 TRP d   1      25.934  -0.039  43.129  0.00  0.00    -0.070 A 
ATOM     69  CZ3 TRP d   1      27.264  -0.072  43.563  0.00  0.00    -0.082 A 
ATOM     70  H15 TRP d   1      25.313  -0.926  43.181  0.00  0.00     0.084 H 
ATOM     71  CH2 TRP d   1      28.080   1.084  43.500  0.00  0.00    -0.081 A 
ATOM     72  H17 TRP d   1      27.676  -0.996  43.953  0.00  0.00     0.083 H 
ATOM     73  H18 TRP d   1      29.105   1.028  43.847  0.00  0.00     0.083 H 
ATOM     74  H16 TRP d   1      28.230   3.154  42.958  0.00  0.00     0.086 H 
ENDBRANCH  57  60
ENDBRANCH   1  57
TORSDOF 18
