REMARK  15 active torsions:
REMARK  status: ('A' for Active; 'I' for Inactive)
REMARK    1  A    between atoms: N_1  and  CA_2 
REMARK    2  A    between atoms: CA_2  and  C_3 
REMARK    3  A    between atoms: CA_2  and  CB_5 
REMARK       I    between atoms: C_3  and  N_13 
REMARK    4  A    between atoms: CB_5  and  CG_6 
REMARK    5  A    between atoms: CZ_11  and  OH_12 
REMARK    6  A    between atoms: N_13  and  CA_14 
REMARK    7  A    between atoms: CA_14  and  C_15 
REMARK    8  A    between atoms: CA_14  and  CB_17 
REMARK       I    between atoms: C_15  and  N_21 
REMARK    9  A    between atoms: CB_17  and  CG_18 
REMARK   10  A    between atoms: N_21  and  CA_22 
REMARK   11  A    between atoms: CA_22  and  C_23 
REMARK   12  A    between atoms: CA_22  and  CB_25 
REMARK   13  A    between atoms: CB_25  and  CG1_26 
REMARK   14  A    between atoms: CB_25  and  CG2_27 
REMARK   15  A    between atoms: CG1_26  and  CD1_28 
ROOT
ATOM      1  CA  ASP d   1      16.251   2.116  41.694  0.00  0.00     0.098 C 
ATOM      2  H13 ASP d   1      16.459   1.171  42.218  0.00  0.00     0.088 H 
ENDROOT
BRANCH   1   3
ATOM      3  N   ASP d   1      17.365   3.032  41.951  0.00  0.00    -0.345 N 
ATOM      4  C   TYR d   1      18.455   2.685  42.643  0.00  0.00     0.249 C 
ATOM      5  O   TYR d   1      18.663   1.537  43.055  0.00  0.00    -0.271 OA
ATOM      6  H12 ASP d   1      17.307   3.963  41.591  0.00  0.00     0.163 HD
BRANCH   4   7
ATOM      7  CA  TYR d   1      19.467   3.807  42.905  0.00  0.00     0.179 C 
ATOM      8  H4  TYR d   1      18.899   4.730  43.092  0.00  0.00     0.099 H 
BRANCH   7   9
ATOM      9  N   TYR d   1      20.297   3.536  44.121  0.00  0.00    -0.066 N 
ATOM     10  H1  TYR d   1      20.948   4.293  44.259  0.00  0.00     0.275 HD
ATOM     11  H2  TYR d   1      20.806   2.675  43.996  0.00  0.00     0.275 HD
ATOM     12  H3  TYR d   1      19.697   3.458  44.927  0.00  0.00     0.275 HD
ENDBRANCH   7   9
BRANCH   7  13
ATOM     13  CB  TYR d   1      20.346   4.042  41.663  0.00  0.00    -0.006 C 
ATOM     14  H5  TYR d   1      20.871   5.000  41.790  0.00  0.00     0.043 H 
ATOM     15  H6  TYR d   1      19.689   4.098  40.783  0.00  0.00     0.043 H 
BRANCH  13  16
ATOM     16  CG  TYR d   1      21.387   2.959  41.411  0.00  0.00    -0.056 A 
ATOM     17  CD1 TYR d   1      21.055   1.785  40.718  0.00  0.00    -0.074 A 
ATOM     18  CE1 TYR d   1      22.006   0.792  40.491  0.00  0.00    -0.051 A 
ATOM     19  H7  TYR d   1      20.043   1.648  40.354  0.00  0.00     0.084 H 
ATOM     20  CZ  TYR d   1      23.302   0.962  40.970  0.00  0.00     0.065 A 
ATOM     21  H9  TYR d   1      21.739  -0.106  39.946  0.00  0.00     0.087 H 
ATOM     22  CE2 TYR d   1      23.662   2.113  41.658  0.00  0.00    -0.051 A 
ATOM     23  CD2 TYR d   1      22.703   3.106  41.874  0.00  0.00    -0.074 A 
ATOM     24  H10 TYR d   1      24.675   2.240  42.023  0.00  0.00     0.087 H 
ATOM     25  H8  TYR d   1      22.981   4.007  42.409  0.00  0.00     0.084 H 
BRANCH  20  26
ATOM     26  OH  TYR d   1      24.239  -0.015  40.748  0.00  0.00    -0.361 OA
ATOM     27  H11 TYR d   1      23.840  -0.732  40.269  0.00  0.00     0.217 HD
ENDBRANCH  20  26
ENDBRANCH  13  16
ENDBRANCH   7  13
ENDBRANCH   4   7
ENDBRANCH   1   3
BRANCH   1  28
ATOM     28  C   ASP d   1      16.109   1.809  40.197  0.00  0.00     0.241 C 
ATOM     29  O   ASP d   1      15.183   2.304  39.550  0.00  0.00    -0.271 OA
ATOM     30  N   ILE d   1      17.004   0.987  39.651  0.00  0.00    -0.344 N 
ATOM     31  H16 ILE d   1      17.669   0.520  40.234  0.00  0.00     0.163 HD
BRANCH  30  32
ATOM     32  CA  ILE d   1      17.023   0.760  38.194  0.00  0.00     0.099 C 
ATOM     33  H17 ILE d   1      16.191   1.363  37.803  0.00  0.00     0.090 H 
BRANCH  32  34
ATOM     34  C   ILE d   1      16.709  -0.681  37.751  0.00  0.00     0.197 C 
ATOM     35  O   ILE d   1      17.431  -1.650  38.015  0.00  0.00    -0.646 OA
ATOM     36  OXT ILE d   1      15.687  -0.887  37.099  0.00  0.00    -0.646 OA
ENDBRANCH  32  34
BRANCH  32  37
ATOM     37  CB  ILE d   1      18.310   1.337  37.514  0.00  0.00    -0.029 C 
ATOM     38  H18 ILE d   1      19.187   0.810  37.918  0.00  0.00     0.043 H 
BRANCH  37  39
ATOM     39  CG1 ILE d   1      18.446   2.843  37.842  0.00  0.00    -0.063 C 
ATOM     40  H19 ILE d   1      18.323   2.961  38.929  0.00  0.00     0.033 H 
ATOM     41  H20 ILE d   1      17.635   3.373  37.322  0.00  0.00     0.033 H 
BRANCH  39  42
ATOM     42  CD1 ILE d   1      19.777   3.515  37.444  0.00  0.00    -0.076 C 
ATOM     43  H24 ILE d   1      19.751   4.577  37.728  0.00  0.00     0.027 H 
ATOM     44  H25 ILE d   1      19.920   3.429  36.357  0.00  0.00     0.027 H 
ATOM     45  H26 ILE d   1      20.609   3.017  37.964  0.00  0.00     0.027 H 
ENDBRANCH  39  42
ENDBRANCH  37  39
BRANCH  37  46
ATOM     46  CG2 ILE d   1      18.265   1.110  36.000  0.00  0.00    -0.070 C 
ATOM     47  H21 ILE d   1      18.168   0.034  35.793  0.00  0.00     0.028 H 
ATOM     48  H22 ILE d   1      19.192   1.489  35.545  0.00  0.00     0.028 H 
ATOM     49  H23 ILE d   1      17.402   1.644  35.575  0.00  0.00     0.028 H 
ENDBRANCH  37  46
ENDBRANCH  32  37
ENDBRANCH  30  32
ENDBRANCH   1  28
BRANCH   1  50
ATOM     50  CB  ASP d   1      14.930   2.698  42.252  0.00  0.00     0.043 C 
ATOM     51  H14 ASP d   1      14.126   1.967  42.081  0.00  0.00     0.052 H 
ATOM     52  H15 ASP d   1      14.701   3.628  41.711  0.00  0.00     0.052 H 
BRANCH  50  53
ATOM     53  CG  ASP d   1      14.995   3.012  43.762  0.00  0.00     0.175 C 
ATOM     54  OD1 ASP d   1      15.883   3.779  44.204  0.00  0.00    -0.648 OA
ATOM     55  OD2 ASP d   1      14.131   2.507  44.509  0.00  0.00    -0.648 OA
ENDBRANCH  50  53
ENDBRANCH   1  50
TORSDOF 15
