REMARK WARNING: 32 MAX_TORS EXCEEDED!!!
REMARK  33 active torsions:
REMARK  status: ('A' for Active; 'I' for Inactive)
REMARK    1  A    between atoms: N_1  and  CA_2 
REMARK    2  A    between atoms: CA_2  and  C_3 
REMARK    3  A    between atoms: CA_2  and  CB_5 
REMARK       I    between atoms: C_3  and  N_10 
REMARK    4  A    between atoms: CB_5  and  CG_6 
REMARK    5  A    between atoms: CG_6  and  CD_7 
REMARK       I    between atoms: CD_7  and  NE2_9 
REMARK    6  A    between atoms: N_10  and  CA_11 
REMARK    7  A    between atoms: CA_11  and  C_12 
REMARK    8  A    between atoms: CA_11  and  CB_14 
REMARK       I    between atoms: C_12  and  N_15 
REMARK    9  A    between atoms: N_15  and  CA_16 
REMARK   10  A    between atoms: CA_16  and  C_17 
REMARK   11  A    between atoms: CA_16  and  CB_19 
REMARK       I    between atoms: C_17  and  N_21 
REMARK   12  A    between atoms: CB_19  and  OG_20 
REMARK   13  A    between atoms: N_21  and  CA_22 
REMARK   14  A    between atoms: CA_22  and  C_23 
REMARK   15  A    between atoms: CA_22  and  CB_25 
REMARK       I    between atoms: C_23  and  N_28 
REMARK   16  A    between atoms: CB_25  and  OG1_26 
REMARK   17  A    between atoms: CB_25  and  CG2_27 
REMARK   18  A    between atoms: N_28  and  CA_29 
REMARK   19  A    between atoms: CA_29  and  CB_30 
REMARK   20  A    between atoms: CA_29  and  C_32 
REMARK   21  A    between atoms: CB_30  and  OG_31 
REMARK   22  A    between atoms: OG_31  and  P_34 
REMARK       I    between atoms: C_32  and  N_38 
REMARK   23  A    between atoms: N_38  and  CA_39 
REMARK   24  A    between atoms: CA_39  and  C_40 
REMARK   25  A    between atoms: CA_39  and  CB_42 
REMARK       I    between atoms: C_40  and  N_45 
REMARK   26  A    between atoms: CB_42  and  OG1_43 
REMARK   27  A    between atoms: CB_42  and  CG2_44 
REMARK   28  A    between atoms: CA_46  and  C_47 
REMARK   29  A    between atoms: N_52  and  CA_53 
REMARK   30  A    between atoms: CA_53  and  C_54 
REMARK   31  A    between atoms: CA_53  and  CB_56 
REMARK   32  A    between atoms: C_54  and  O_55 
REMARK   33  A    between atoms: CB_56  and  CG_57 
REMARK       I    between atoms: CG_57  and  ND2_59 
ROOT
ATOM      1  CA  SEP d   1     -16.156 -15.983   9.751  0.00  0.00     0.110 C 
ATOM      2  H29 SEP d   1     -15.867 -16.894  10.296  0.00  0.00     0.090 H 
ENDROOT
BRANCH   1   3
ATOM      3  N   SEP d   1     -15.255 -14.874  10.172  0.00  0.00    -0.344 N 
ATOM      4  C   THR d   1     -14.167 -15.091  10.836  0.00  0.00     0.243 C 
ATOM      5  O   THR d   1     -13.877 -16.167  11.268  0.00  0.00    -0.271 OA
ATOM      6  H28 SEP d   1     -15.499 -13.934   9.934  0.00  0.00     0.163 HD
BRANCH   4   7
ATOM      7  CA  THR d   1     -13.209 -13.883  11.036  0.00  0.00     0.113 C 
ATOM      8  H22 THR d   1     -13.706 -12.962  10.696  0.00  0.00     0.091 H 
BRANCH   7   9
ATOM      9  N   THR d   1     -12.939 -13.768  12.452  0.00  0.00    -0.344 N 
ATOM     10  C   SER d   1     -13.606 -12.999  13.294  0.00  0.00     0.243 C 
ATOM     11  O   SER d   1     -14.600 -12.341  12.906  0.00  0.00    -0.271 OA
ATOM     12  H21 THR d   1     -12.188 -14.314  12.823  0.00  0.00     0.163 HD
BRANCH  10  13
ATOM     13  CA  SER d   1     -13.114 -12.995  14.748  0.00  0.00     0.109 C 
ATOM     14  H17 SER d   1     -12.030 -13.178  14.780  0.00  0.00     0.090 H 
BRANCH  13  15
ATOM     15  N   SER d   1     -13.437 -11.741  15.345  0.00  0.00    -0.344 N 
ATOM     16  C   ARG d   1     -12.918 -10.634  14.940  0.00  0.00     0.240 C 
ATOM     17  O   ARG d   1     -12.066 -10.566  14.025  0.00  0.00    -0.271 OA
ATOM     18  H16 SER d   1     -14.088 -11.720  16.104  0.00  0.00     0.163 HD
BRANCH  16  19
ATOM     19  CA  ARG d   1     -13.488  -9.424  15.764  0.00  0.00     0.086 C 
ATOM     20  H12 ARG d   1     -13.654  -9.793  16.787  0.00  0.00     0.086 H 
BRANCH  19  21
ATOM     21  N   ARG d   1     -12.509  -8.346  15.868  0.00  0.00    -0.346 N 
ATOM     22  C   GLN d   1     -11.468  -8.411  16.718  0.00  0.00     0.248 C 
ATOM     23  O   GLN d   1     -11.477  -9.123  17.728  0.00  0.00    -0.271 OA
ATOM     24  H11 ARG d   1     -12.615  -7.536  15.291  0.00  0.00     0.163 HD
BRANCH  22  25
ATOM     25  CA  GLN d   1     -10.300  -7.454  16.487  0.00  0.00     0.176 C 
ATOM     26  H4  GLN d   1     -10.660  -6.557  15.962  0.00  0.00     0.099 H 
BRANCH  25  27
ATOM     27  N   GLN d   1      -9.764  -7.055  17.835  0.00  0.00    -0.066 N 
ATOM     28  H1  GLN d   1      -8.989  -6.421  17.714  0.00  0.00     0.275 HD
ATOM     29  H2  GLN d   1      -9.452  -7.876  18.329  0.00  0.00     0.275 HD
ATOM     30  H3  GLN d   1     -10.491  -6.600  18.364  0.00  0.00     0.275 HD
ENDBRANCH  25  27
BRANCH  25  31
ATOM     31  CB  GLN d   1      -9.227  -8.128  15.624  0.00  0.00    -0.022 C 
ATOM     32  H5  GLN d   1      -9.704  -8.492  14.702  0.00  0.00     0.037 H 
ATOM     33  H6  GLN d   1      -8.817  -8.980  16.186  0.00  0.00     0.037 H 
BRANCH  31  34
ATOM     34  CG  GLN d   1      -8.116  -7.246  15.251  0.00  0.00     0.011 C 
ATOM     35  H7  GLN d   1      -7.719  -6.788  16.169  0.00  0.00     0.047 H 
ATOM     36  H8  GLN d   1      -8.509  -6.460  14.589  0.00  0.00     0.047 H 
BRANCH  34  37
ATOM     37  CD  GLN d   1      -6.958  -7.949  14.526  0.00  0.00     0.215 C 
ATOM     38  OE1 GLN d   1      -6.584  -9.080  14.851  0.00  0.00    -0.274 OA
ATOM     39  NE2 GLN d   1      -6.370  -7.249  13.526  0.00  0.00    -0.370 N 
ATOM     40  H9  GLN d   1      -5.610  -7.650  13.014  0.00  0.00     0.159 HD
ATOM     41  H10 GLN d   1      -6.696  -6.331  13.300  0.00  0.00     0.159 HD
ENDBRANCH  34  37
ENDBRANCH  31  34
ENDBRANCH  25  31
ENDBRANCH  22  25
ENDBRANCH  19  21
BRANCH  19  42
ATOM     42  CB  ARG d   1     -14.878  -8.944  15.246  0.00  0.00    -0.049 C 
ATOM     43  H13 ARG d   1     -15.565  -9.801  15.192  0.00  0.00     0.030 H 
ATOM     44  H14 ARG d   1     -14.764  -8.502  14.245  0.00  0.00     0.030 H 
ATOM     45  H15 ARG d   1     -15.286  -8.190  15.936  0.00  0.00     0.030 H 
ENDBRANCH  19  42
ENDBRANCH  16  19
ENDBRANCH  13  15
BRANCH  13  46
ATOM     46  CB  SER d   1     -13.854 -14.035  15.553  0.00  0.00     0.044 C 
ATOM     47  H18 SER d   1     -13.620 -15.035  15.159  0.00  0.00     0.077 H 
ATOM     48  H19 SER d   1     -14.936 -13.854  15.474  0.00  0.00     0.077 H 
BRANCH  46  49
ATOM     49  OG  SER d   1     -13.470 -13.965  16.895  0.00  0.00    -0.398 OA
ATOM     50  H20 SER d   1     -13.673 -13.102  17.237  0.00  0.00     0.209 HD
ENDBRANCH  46  49
ENDBRANCH  13  46
ENDBRANCH  10  13
ENDBRANCH   7   9
BRANCH   7  51
ATOM     51  CB  THR d   1     -11.968 -14.082  10.211  0.00  0.00     0.060 C 
ATOM     52  H23 THR d   1     -11.514 -15.031  10.534  0.00  0.00     0.086 H 
BRANCH  51  53
ATOM     53  OG1 THR d   1     -11.013 -13.075  10.501  0.00  0.00    -0.393 OA
ATOM     54  H24 THR d   1     -10.236 -13.215   9.972  0.00  0.00     0.210 HD
ENDBRANCH  51  53
BRANCH  51  55
ATOM     55  CG2 THR d   1     -12.323 -14.267   8.755  0.00  0.00    -0.050 C 
ATOM     56  H25 THR d   1     -11.403 -14.411   8.169  0.00  0.00     0.031 H 
ATOM     57  H26 THR d   1     -12.854 -13.375   8.391  0.00  0.00     0.031 H 
ATOM     58  H27 THR d   1     -12.970 -15.150   8.645  0.00  0.00     0.031 H 
ENDBRANCH  51  55
ENDBRANCH   7  51
ENDBRANCH   4   7
ENDBRANCH   1   3
BRANCH   1  59
ATOM     59  CB  SEP d   1     -17.570 -15.693  10.113  0.00  0.00     0.059 C 
ATOM     60  H30 SEP d   1     -17.658 -15.603  11.206  0.00  0.00     0.079 H 
ATOM     61  H31 SEP d   1     -18.215 -16.511   9.760  0.00  0.00     0.079 H 
BRANCH  59  62
ATOM     62  OG  SEP d   1     -17.984 -14.440   9.485  0.00  0.00    -0.280 OA
BRANCH  62  63
ATOM     63  P   SEP d   1     -19.408 -13.852   9.875  0.00  0.00     0.422 P 
ATOM     64  O1P SEP d   1     -19.372 -13.477  11.373  0.00  0.00    -0.617 OA
ATOM     65  O2P SEP d   1     -20.470 -14.885   9.523  0.00  0.00    -0.617 OA
ATOM     66  O3P SEP d   1     -19.503 -12.602   9.010  0.00  0.00    -0.617 OA
ENDBRANCH  62  63
ENDBRANCH  59  62
ENDBRANCH   1  59
BRANCH   1  67
ATOM     67  C   SEP d   1     -15.902 -16.232   8.261  0.00  0.00     0.243 C 
ATOM     68  O   SEP d   1     -15.072 -15.583   7.603  0.00  0.00    -0.271 OA
ATOM     69  N   THR d   1     -16.604 -17.213   7.704  0.00  0.00    -0.344 N 
ATOM     70  H32 THR d   1     -17.351 -17.644   8.210  0.00  0.00     0.163 HD
BRANCH  69  71
ATOM     71  CA  THR d   1     -16.285 -17.656   6.364  0.00  0.00     0.114 C 
ATOM     72  H33 THR d   1     -15.227 -17.944   6.277  0.00  0.00     0.091 H 
BRANCH  71  73
ATOM     73  C   THR d   1     -16.674 -16.592   5.417  0.00  0.00     0.245 C 
ATOM     74  O   THR d   1     -17.770 -16.049   5.484  0.00  0.00    -0.271 OA
ATOM     75  N   PRO d   1     -15.808 -16.283   4.445  0.00  0.00    -0.338 N 
ATOM     76  CA  PRO d   1     -16.146 -15.246   3.478  0.00  0.00     0.079 C 
ATOM     77  CD  PRO d   1     -14.419 -16.792   4.261  0.00  0.00    -0.001 C 
ATOM     78  CB  PRO d   1     -14.755 -14.791   3.003  0.00  0.00    -0.037 C 
ATOM     79  H39 PRO d   1     -16.695 -14.420   3.954  0.00  0.00     0.086 H 
ATOM     80  CG  PRO d   1     -13.954 -16.216   2.955  0.00  0.00    -0.048 C 
ATOM     81  H40 PRO d   1     -14.293 -14.093   3.717  0.00  0.00     0.036 H 
ATOM     82  H41 PRO d   1     -14.802 -14.321   2.009  0.00  0.00     0.036 H 
ATOM     83  H42 PRO d   1     -12.863 -16.075   2.932  0.00  0.00     0.035 H 
ATOM     84  H43 PRO d   1     -14.263 -16.834   2.099  0.00  0.00     0.035 H 
ATOM     85  H44 PRO d   1     -14.414 -17.891   4.221  0.00  0.00     0.064 H 
ATOM     86  H45 PRO d   1     -13.772 -16.452   5.083  0.00  0.00     0.064 H 
BRANCH  76  87
ATOM     87  C   PRO d   1     -16.976 -15.809   2.319  0.00  0.00     0.174 C 
ATOM     88  O   PRO d   1     -17.151 -17.095   2.179  0.00  0.00    -0.175 OA
ATOM     89  N   ASN d   1     -17.495 -14.931   1.468  0.00  0.00    -0.363 N 
ATOM     90  H46 ASN d   1     -17.490 -13.960   1.708  0.00  0.00     0.162 HD
BRANCH  89  91
ATOM     91  CA  ASN d   1     -18.081 -15.350   0.173  0.00  0.00     0.039 C 
ATOM     92  H47 ASN d   1     -18.949 -15.994   0.377  0.00  0.00     0.076 H 
BRANCH  91  93
ATOM     93  C   ASN d   1     -17.082 -16.156  -0.718  0.00  0.00     0.036 C 
ATOM     94  H48 ASN d   1     -17.402 -16.057  -1.766  0.00  0.00     0.077 H 
ATOM     95  H49 ASN d   1     -17.133 -17.213  -0.418  0.00  0.00     0.077 H 
BRANCH  93  96
ATOM     96  O   ASN d   1     -15.929 -15.799  -0.642  0.00  0.00    -0.399 OA
ATOM     97  H50 ASN d   1     -15.393 -16.338  -1.212  0.00  0.00     0.209 HD
ENDBRANCH  93  96
ENDBRANCH  91  93
BRANCH  91  98
ATOM     98  CB  ASN d   1     -18.556 -14.093  -0.559  0.00  0.00     0.030 C 
ATOM     99  H51 ASN d   1     -18.814 -14.370  -1.592  0.00  0.00     0.050 H 
ATOM    100  H52 ASN d   1     -17.731 -13.365  -0.570  0.00  0.00     0.050 H 
BRANCH  98 101
ATOM    101  CG  ASN d   1     -19.781 -13.427   0.085  0.00  0.00     0.217 C 
ATOM    102  OD1 ASN d   1     -20.633 -14.037   0.773  0.00  0.00    -0.274 OA
ATOM    103  ND2 ASN d   1     -19.824 -12.131  -0.120  0.00  0.00    -0.370 N 
ATOM    104  H53 ASN d   1     -20.578 -11.591   0.253  0.00  0.00     0.159 HD
ATOM    105  H54 ASN d   1     -19.103 -11.684  -0.649  0.00  0.00     0.159 HD
ENDBRANCH  98 101
ENDBRANCH  91  98
ENDBRANCH  89  91
ENDBRANCH  76  87
ENDBRANCH  71  73
BRANCH  71 106
ATOM    106  CB  THR d   1     -17.254 -18.795   5.957  0.00  0.00     0.060 C 
ATOM    107  H34 THR d   1     -18.293 -18.441   6.034  0.00  0.00     0.086 H 
BRANCH 106 108
ATOM    108  OG1 THR d   1     -17.028 -19.847   6.818  0.00  0.00    -0.393 OA
ATOM    109  H35 THR d   1     -16.125 -20.131   6.739  0.00  0.00     0.210 HD
ENDBRANCH 106 108
BRANCH 106 110
ATOM    110  CG2 THR d   1     -16.992 -19.320   4.551  0.00  0.00    -0.050 C 
ATOM    111  H36 THR d   1     -17.708 -20.123   4.320  0.00  0.00     0.031 H 
ATOM    112  H37 THR d   1     -15.967 -19.715   4.492  0.00  0.00     0.031 H 
ATOM    113  H38 THR d   1     -17.112 -18.502   3.826  0.00  0.00     0.031 H 
ENDBRANCH 106 110
ENDBRANCH  71 106
ENDBRANCH  69  71
ENDBRANCH   1  67
TORSDOF 33
