REMARK WARNING: 32 MAX_TORS EXCEEDED!!!
REMARK  46 active torsions:
REMARK  status: ('A' for Active; 'I' for Inactive)
REMARK    1  A    between atoms: N_1  and  CA_2 
REMARK    2  A    between atoms: CA_2  and  C_3 
REMARK    3  A    between atoms: CA_2  and  CB_5 
REMARK       I    between atoms: C_3  and  N_8 
REMARK    4  A    between atoms: CB_5  and  OG1_6 
REMARK    5  A    between atoms: CB_5  and  CG2_7 
REMARK    6  A    between atoms: N_8  and  CA_9 
REMARK    7  A    between atoms: CA_9  and  C_10 
REMARK    8  A    between atoms: CA_9  and  CB_12 
REMARK       I    between atoms: C_10  and  N_17 
REMARK    9  A    between atoms: CB_12  and  CG_13 
REMARK   10  A    between atoms: CG_13  and  CD_14 
REMARK   11  A    between atoms: CD_14  and  CE_15 
REMARK   12  A    between atoms: CE_15  and  NZ_16 
REMARK   13  A    between atoms: N_17  and  CA_18 
REMARK   14  A    between atoms: CA_18  and  C_19 
REMARK   15  A    between atoms: CA_18  and  CB_21 
REMARK       I    between atoms: C_19  and  N_25 
REMARK   16  A    between atoms: CB_21  and  CG1_22 
REMARK   17  A    between atoms: CB_21  and  CG2_23 
REMARK   18  A    between atoms: CG1_22  and  CD1_24 
REMARK   19  A    between atoms: N_25  and  CA_26 
REMARK   20  A    between atoms: CA_26  and  C_27 
REMARK   21  A    between atoms: CA_26  and  CB_29 
REMARK       I    between atoms: C_27  and  N_33 
REMARK   22  A    between atoms: CB_29  and  CG_30 
REMARK   23  A    between atoms: N_33  and  CA_34 
REMARK   24  A    between atoms: CA_34  and  C_35 
REMARK   25  A    between atoms: CA_34  and  CB_37 
REMARK       I    between atoms: C_35  and  N_47 
REMARK   26  A    between atoms: CB_37  and  CG_38 
REMARK   27  A    between atoms: N_47  and  CA_48 
REMARK   28  A    between atoms: CA_48  and  C_49 
REMARK   29  A    between atoms: CA_48  and  CB_51 
REMARK       I    between atoms: C_49  and  N_55 
REMARK   30  A    between atoms: CB_51  and  CG_52 
REMARK       I    between atoms: CG_52  and  ND2_54 
REMARK   31  A    between atoms: N_55  and  CA_56 
REMARK   32  A    between atoms: CA_56  and  C_57 
REMARK   33  A    between atoms: CA_56  and  CB_59 
REMARK       I    between atoms: C_57  and  N_64 
REMARK   34  A    between atoms: CB_59  and  CG_60 
REMARK   35  A    between atoms: CG_60  and  CD_61 
REMARK   36  A    between atoms: CD_61  and  CE_62 
REMARK   37  A    between atoms: CE_62  and  NZ_63 
REMARK   38  A    between atoms: N_64  and  CA_65 
REMARK   39  A    between atoms: CA_65  and  C_66 
REMARK   40  A    between atoms: CA_65  and  CB_68 
REMARK       I    between atoms: C_66  and  N_72 
REMARK   41  A    between atoms: CB_68  and  CG1_69 
REMARK   42  A    between atoms: CB_68  and  CG2_70 
REMARK   43  A    between atoms: CG1_69  and  CD1_71 
REMARK   44  A    between atoms: N_72  and  CA_73 
REMARK   45  A    between atoms: CA_73  and  C_74 
REMARK   46  A    between atoms: CA_73  and  CB_76 
ROOT
ATOM      1  CA  TRP d   1      10.361  13.666  12.464  0.00  0.00     0.093 C 
ATOM      2  H39 TRP d   1       9.880  13.117  11.641  0.00  0.00     0.088 H 
ENDROOT
BRANCH   1   3
ATOM      3  N   TRP d   1       9.901  13.158  13.761  0.00  0.00    -0.346 N 
ATOM      4  C   ASP d   1       9.285  11.981  13.990  0.00  0.00     0.241 C 
ATOM      5  O   ASP d   1       9.862  11.116  14.632  0.00  0.00    -0.271 OA
ATOM      6  H38 TRP d   1      10.060  13.744  14.556  0.00  0.00     0.163 HD
BRANCH   4   7
ATOM      7  CA  ASP d   1       7.939  11.586  13.319  0.00  0.00     0.098 C 
ATOM      8  H35 ASP d   1       8.117  11.365  12.256  0.00  0.00     0.088 H 
BRANCH   7   9
ATOM      9  N   ASP d   1       7.331  10.447  13.986  0.00  0.00    -0.345 N 
ATOM     10  C   ILE d   1       7.321   9.216  13.489  0.00  0.00     0.241 C 
ATOM     11  O   ILE d   1       8.299   8.636  12.981  0.00  0.00    -0.271 OA
ATOM     12  H34 ASP d   1       6.894  10.600  14.872  0.00  0.00     0.163 HD
BRANCH  10  13
ATOM     13  CA  ILE d   1       6.003   8.517  13.642  0.00  0.00     0.092 C 
ATOM     14  H24 ILE d   1       6.003   7.788  14.466  0.00  0.00     0.088 H 
BRANCH  13  15
ATOM     15  N   ILE d   1       4.968   9.531  13.811  0.00  0.00    -0.346 N 
ATOM     16  C   LYS d   1       4.177   9.652  14.864  0.00  0.00     0.241 C 
ATOM     17  O   LYS d   1       4.469   9.286  15.987  0.00  0.00    -0.271 OA
ATOM     18  H23 ILE d   1       4.846  10.190  13.069  0.00  0.00     0.163 HD
BRANCH  16  19
ATOM     19  CA  LYS d   1       2.859  10.342  14.564  0.00  0.00     0.089 C 
ATOM     20  H11 LYS d   1       2.836  10.499  13.476  0.00  0.00     0.087 H 
BRANCH  19  21
ATOM     21  N   LYS d   1       1.714   9.486  14.879  0.00  0.00    -0.346 N 
ATOM     22  C   THR d   1       1.490   8.388  14.158  0.00  0.00     0.251 C 
ATOM     23  O   THR d   1       2.274   8.002  13.292  0.00  0.00    -0.271 OA
ATOM     24  H10 LYS d   1       1.102   9.725  15.633  0.00  0.00     0.163 HD
BRANCH  22  25
ATOM     25  CA  THR d   1       0.198   7.610  14.435  0.00  0.00     0.199 C 
ATOM     26  H4  THR d   1      -0.276   8.022  15.338  0.00  0.00     0.103 H 
BRANCH  25  27
ATOM     27  N   THR d   1      -0.746   7.771  13.286  0.00  0.00    -0.064 N 
ATOM     28  H1  THR d   1      -0.938   8.750  13.143  0.00  0.00     0.275 HD
ATOM     29  H2  THR d   1      -1.606   7.286  13.488  0.00  0.00     0.275 HD
ATOM     30  H3  THR d   1      -0.330   7.385  12.453  0.00  0.00     0.275 HD
ENDBRANCH  25  27
BRANCH  25  31
ATOM     31  CB  THR d   1       0.518   6.110  14.686  0.00  0.00     0.068 C 
ATOM     32  H5  THR d   1      -0.433   5.563  14.765  0.00  0.00     0.086 H 
BRANCH  31  33
ATOM     33  OG1 THR d   1       1.245   5.957  15.915  0.00  0.00    -0.393 OA
ATOM     34  H6  THR d   1       1.434   5.037  16.057  0.00  0.00     0.210 HD
ENDBRANCH  31  33
BRANCH  31  35
ATOM     35  CG2 THR d   1       1.345   5.495  13.528  0.00  0.00    -0.050 C 
ATOM     36  H7  THR d   1       1.549   4.436  13.745  0.00  0.00     0.031 H 
ATOM     37  H8  THR d   1       2.296   6.038  13.428  0.00  0.00     0.031 H 
ATOM     38  H9  THR d   1       0.777   5.574  12.589  0.00  0.00     0.031 H 
ENDBRANCH  31  35
ENDBRANCH  25  31
ENDBRANCH  22  25
ENDBRANCH  19  21
BRANCH  19  39
ATOM     39  CB  LYS d   1       2.754  11.725  15.190  0.00  0.00    -0.038 C 
ATOM     40  H12 LYS d   1       3.720  12.242  15.086  0.00  0.00     0.036 H 
ATOM     41  H13 LYS d   1       2.507  11.620  16.257  0.00  0.00     0.036 H 
BRANCH  39  42
ATOM     42  CG  LYS d   1       1.681  12.543  14.513  0.00  0.00    -0.061 C 
ATOM     43  H14 LYS d   1       0.820  12.614  15.194  0.00  0.00     0.033 H 
ATOM     44  H15 LYS d   1       1.379  12.022  13.593  0.00  0.00     0.033 H 
BRANCH  42  45
ATOM     45  CD  LYS d   1       2.114  13.949  14.144  0.00  0.00    -0.043 C 
ATOM     46  H16 LYS d   1       3.075  13.902  13.611  0.00  0.00     0.035 H 
ATOM     47  H17 LYS d   1       2.232  14.543  15.062  0.00  0.00     0.035 H 
BRANCH  45  48
ATOM     48  CE  LYS d   1       1.066  14.625  13.237  0.00  0.00     0.080 C 
ATOM     49  H18 LYS d   1       0.570  13.850  12.635  0.00  0.00     0.075 H 
ATOM     50  H19 LYS d   1       1.582  15.333  12.571  0.00  0.00     0.075 H 
BRANCH  48  51
ATOM     51  NZ  LYS d   1       0.029  15.365  14.006  0.00  0.00    -0.079 N 
ATOM     52  H20 LYS d   1      -0.627  15.785  13.367  0.00  0.00     0.274 HD
ATOM     53  H21 LYS d   1       0.469  16.085  14.557  0.00  0.00     0.274 HD
ATOM     54  H22 LYS d   1      -0.458  14.726  14.615  0.00  0.00     0.274 HD
ENDBRANCH  48  51
ENDBRANCH  45  48
ENDBRANCH  42  45
ENDBRANCH  39  42
ENDBRANCH  19  39
ENDBRANCH  16  19
ENDBRANCH  13  15
BRANCH  13  55
ATOM     55  CB  ILE d   1       5.778   7.871  12.280  0.00  0.00    -0.030 C 
ATOM     56  H25 ILE d   1       4.747   8.105  11.974  0.00  0.00     0.043 H 
BRANCH  55  57
ATOM     57  CG1 ILE d   1       5.899   6.362  12.328  0.00  0.00    -0.063 C 
ATOM     58  H26 ILE d   1       5.019   5.946  12.841  0.00  0.00     0.033 H 
ATOM     59  H27 ILE d   1       6.809   6.091  12.883  0.00  0.00     0.033 H 
BRANCH  57  60
ATOM     60  CD1 ILE d   1       5.977   5.793  10.956  0.00  0.00    -0.076 C 
ATOM     61  H31 ILE d   1       6.064   4.698  11.018  0.00  0.00     0.027 H 
ATOM     62  H32 ILE d   1       6.857   6.202  10.439  0.00  0.00     0.027 H 
ATOM     63  H33 ILE d   1       5.067   6.058  10.397  0.00  0.00     0.027 H 
ENDBRANCH  57  60
ENDBRANCH  55  57
BRANCH  55  64
ATOM     64  CG2 ILE d   1       6.719   8.473  11.228  0.00  0.00    -0.071 C 
ATOM     65  H28 ILE d   1       6.607   9.567  11.219  0.00  0.00     0.028 H 
ATOM     66  H29 ILE d   1       6.466   8.070  10.236  0.00  0.00     0.028 H 
ATOM     67  H30 ILE d   1       7.759   8.213  11.475  0.00  0.00     0.028 H 
ENDBRANCH  55  64
ENDBRANCH  13  55
ENDBRANCH  10  13
ENDBRANCH   7   9
BRANCH   7  68
ATOM     68  CB  ASP d   1       6.888  12.691  13.474  0.00  0.00     0.043 C 
ATOM     69  H36 ASP d   1       7.150  13.302  14.351  0.00  0.00     0.052 H 
ATOM     70  H37 ASP d   1       5.907  12.220  13.635  0.00  0.00     0.052 H 
BRANCH  68  71
ATOM     71  CG  ASP d   1       6.794  13.592  12.276  0.00  0.00     0.175 C 
ATOM     72  OD1 ASP d   1       7.545  13.378  11.309  0.00  0.00    -0.648 OA
ATOM     73  OD2 ASP d   1       5.968  14.519  12.291  0.00  0.00    -0.648 OA
ENDBRANCH  68  71
ENDBRANCH   7  68
ENDBRANCH   4   7
ENDBRANCH   1   3
BRANCH   1  74
ATOM     74  C   TRP d   1      11.864  13.434  12.504  0.00  0.00     0.241 C 
ATOM     75  O   TRP d   1      12.510  13.352  11.471  0.00  0.00    -0.271 OA
ATOM     76  N   ASN d   1      12.417  13.345  13.714  0.00  0.00    -0.346 N 
ATOM     77  H48 ASN d   1      11.825  13.416  14.517  0.00  0.00     0.163 HD
BRANCH  76  78
ATOM     78  CA  ASN d   1      13.856  13.148  13.919  0.00  0.00     0.097 C 
ATOM     79  H49 ASN d   1      14.408  13.776  13.204  0.00  0.00     0.088 H 
BRANCH  78  80
ATOM     80  C   ASN d   1      14.213  11.690  13.683  0.00  0.00     0.241 C 
ATOM     81  O   ASN d   1      15.384  11.306  13.708  0.00  0.00    -0.271 OA
ATOM     82  N   LYS d   1      13.179  10.893  13.417  0.00  0.00    -0.346 N 
ATOM     83  H54 LYS d   1      12.322  11.308  13.112  0.00  0.00     0.163 HD
BRANCH  82  84
ATOM     84  CA  LYS d   1      13.243   9.444  13.551  0.00  0.00     0.089 C 
ATOM     85  H55 LYS d   1      13.937   9.294  14.391  0.00  0.00     0.087 H 
BRANCH  84  86
ATOM     86  C   LYS d   1      13.844   8.569  12.427  0.00  0.00     0.241 C 
ATOM     87  O   LYS d   1      14.685   7.737  12.773  0.00  0.00    -0.271 OA
ATOM     88  N   ILE d   1      13.529   8.681  11.120  0.00  0.00    -0.346 N 
ATOM     89  H67 ILE d   1      13.546   7.807  10.635  0.00  0.00     0.163 HD
BRANCH  88  90
ATOM     90  CA  ILE d   1      13.158   9.839  10.238  0.00  0.00     0.092 C 
ATOM     91  H68 ILE d   1      12.998   9.320   9.281  0.00  0.00     0.088 H 
BRANCH  90  92
ATOM     92  C   ILE d   1      14.339  10.777   9.847  0.00  0.00     0.241 C 
ATOM     93  O   ILE d   1      15.356  10.290   9.326  0.00  0.00    -0.271 OA
ATOM     94  N   LEU d   1      14.177  12.092  10.057  0.00  0.00    -0.345 N 
ATOM     95  H78 LEU d   1      13.288  12.388  10.406  0.00  0.00     0.163 HD
BRANCH  94  96
ATOM     96  CA  LEU d   1      15.191  13.149   9.821  0.00  0.00     0.093 C 
ATOM     97  H79 LEU d   1      15.257  13.727  10.754  0.00  0.00     0.089 H 
BRANCH  96  98
ATOM     98  C   LEU d   1      14.776  14.137   8.719  0.00  0.00     0.196 C 
ATOM     99  O   LEU d   1      13.808  14.900   8.865  0.00  0.00    -0.646 OA
ATOM    100  OXT LEU d   1      15.395  14.206   7.645  0.00  0.00    -0.646 OA
ENDBRANCH  96  98
BRANCH  96 101
ATOM    101  CB  LEU d   1      16.594  12.584   9.555  0.00  0.00    -0.048 C 
ATOM    102  H80 LEU d   1      17.298  13.413   9.388  0.00  0.00     0.030 H 
ATOM    103  H81 LEU d   1      16.567  11.941   8.663  0.00  0.00     0.030 H 
ATOM    104  H82 LEU d   1      16.922  11.993  10.423  0.00  0.00     0.030 H 
ENDBRANCH  96 101
ENDBRANCH  94  96
ENDBRANCH  90  92
BRANCH  90 105
ATOM    105  CB  ILE d   1      11.721  10.465  10.449  0.00  0.00    -0.030 C 
ATOM    106  H69 ILE d   1      11.719  11.065  11.371  0.00  0.00     0.043 H 
BRANCH 105 107
ATOM    107  CG1 ILE d   1      10.653   9.370  10.537  0.00  0.00    -0.063 C 
ATOM    108  H70 ILE d   1       9.717   9.832  10.885  0.00  0.00     0.033 H 
ATOM    109  H71 ILE d   1      10.989   8.623  11.271  0.00  0.00     0.033 H 
BRANCH 107 110
ATOM    110  CD1 ILE d   1      10.360   8.635   9.200  0.00  0.00    -0.076 C 
ATOM    111  H75 ILE d   1       9.585   7.872   9.363  0.00  0.00     0.027 H 
ATOM    112  H76 ILE d   1      11.280   8.152   8.838  0.00  0.00     0.027 H 
ATOM    113  H77 ILE d   1      10.008   9.361   8.452  0.00  0.00     0.027 H 
ENDBRANCH 107 110
ENDBRANCH 105 107
BRANCH 105 114
ATOM    114  CG2 ILE d   1      11.350  11.338   9.255  0.00  0.00    -0.071 C 
ATOM    115  H72 ILE d   1      12.090  12.145   9.147  0.00  0.00     0.028 H 
ATOM    116  H73 ILE d   1      10.353  11.774   9.415  0.00  0.00     0.028 H 
ATOM    117  H74 ILE d   1      11.340  10.725   8.342  0.00  0.00     0.028 H 
ENDBRANCH 105 114
ENDBRANCH  90 105
ENDBRANCH  88  90
ENDBRANCH  84  86
BRANCH  84 118
ATOM    118  CB  LYS d   1      11.891   8.876  14.029  0.00  0.00    -0.038 C 
ATOM    119  H56 LYS d   1      11.233   8.783  13.153  0.00  0.00     0.036 H 
ATOM    120  H57 LYS d   1      11.454   9.592  14.741  0.00  0.00     0.036 H 
BRANCH 118 121
ATOM    121  CG  LYS d   1      11.961   7.506  14.717  0.00  0.00    -0.061 C 
ATOM    122  H58 LYS d   1      12.728   7.538  15.505  0.00  0.00     0.033 H 
ATOM    123  H59 LYS d   1      12.232   6.743  13.973  0.00  0.00     0.033 H 
BRANCH 121 124
ATOM    124  CD  LYS d   1      10.611   7.138  15.345  0.00  0.00    -0.043 C 
ATOM    125  H60 LYS d   1       9.814   7.350  14.617  0.00  0.00     0.035 H 
ATOM    126  H61 LYS d   1      10.460   7.754  16.244  0.00  0.00     0.035 H 
BRANCH 124 127
ATOM    127  CE  LYS d   1      10.532   5.656  15.744  0.00  0.00     0.080 C 
ATOM    128  H62 LYS d   1      11.096   5.508  16.677  0.00  0.00     0.075 H 
ATOM    129  H63 LYS d   1      10.980   5.048  14.944  0.00  0.00     0.075 H 
BRANCH 127 130
ATOM    130  NZ  LYS d   1       9.109   5.205  15.959  0.00  0.00    -0.079 N 
ATOM    131  H64 LYS d   1       9.101   4.231  16.218  0.00  0.00     0.274 HD
ATOM    132  H65 LYS d   1       8.585   5.330  15.107  0.00  0.00     0.274 HD
ATOM    133  H66 LYS d   1       8.691   5.752  16.695  0.00  0.00     0.274 HD
ENDBRANCH 127 130
ENDBRANCH 124 127
ENDBRANCH 121 124
ENDBRANCH 118 121
ENDBRANCH  84 118
ENDBRANCH  82  84
ENDBRANCH  78  80
BRANCH  78 134
ATOM    134  CB  ASN d   1      14.258  13.544  15.347  0.00  0.00     0.036 C 
ATOM    135  H50 ASN d   1      15.297  13.904  15.332  0.00  0.00     0.051 H 
ATOM    136  H51 ASN d   1      14.187  12.655  15.991  0.00  0.00     0.051 H 
BRANCH 134 137
ATOM    137  CG  ASN d   1      13.372  14.641  15.933  0.00  0.00     0.217 C 
ATOM    138  OD1 ASN d   1      12.253  14.381  16.392  0.00  0.00    -0.274 OA
ATOM    139  ND2 ASN d   1      13.876  15.871  15.926  0.00  0.00    -0.370 N 
ATOM    140  H52 ASN d   1      13.343  16.632  16.296  0.00  0.00     0.159 HD
ATOM    141  H53 ASN d   1      14.788  16.035  15.550  0.00  0.00     0.159 HD
ENDBRANCH 134 137
ENDBRANCH  78 134
ENDBRANCH  76  78
ENDBRANCH   1  74
BRANCH   1 142
ATOM    142  CB  TRP d   1      10.148  15.180  12.282  0.00  0.00    -0.012 C 
ATOM    143  H40 TRP d   1      11.109  15.625  11.984  0.00  0.00     0.044 H 
ATOM    144  H41 TRP d   1       9.835  15.598  13.250  0.00  0.00     0.044 H 
BRANCH 142 145
ATOM    145  CG  TRP d   1       9.106  15.573  11.242  0.00  0.00    -0.028 A 
ATOM    146  CD1 TRP d   1       8.063  16.447  11.415  0.00  0.00    -0.015 A 
ATOM    147  NE1 TRP d   1       7.321  16.543  10.260  0.00  0.00    -0.365 N 
ATOM    148  H42 TRP d   1       7.852  16.988  12.336  0.00  0.00     0.112 H 
ATOM    149  CE2 TRP d   1       7.873  15.728   9.309  0.00  0.00     0.042 A 
ATOM    150  H43 TRP d   1       6.486  17.132  10.132  0.00  0.00     0.165 HD
ATOM    151  CD2 TRP d   1       9.006  15.102   9.886  0.00  0.00    -0.002 A 
ATOM    152  CZ2 TRP d   1       7.474  15.489   7.993  0.00  0.00    -0.056 A 
ATOM    153  CE3 TRP d   1       9.750  14.207   9.112  0.00  0.00    -0.070 A 
ATOM    154  CZ3 TRP d   1       9.354  13.971   7.806  0.00  0.00    -0.082 A 
ATOM    155  H44 TRP d   1      10.619  13.708   9.525  0.00  0.00     0.084 H 
ATOM    156  CH2 TRP d   1       8.225  14.614   7.257  0.00  0.00    -0.081 A 
ATOM    157  H46 TRP d   1       9.922  13.279   7.194  0.00  0.00     0.083 H 
ATOM    158  H47 TRP d   1       7.946  14.410   6.229  0.00  0.00     0.083 H 
ATOM    159  H45 TRP d   1       6.603  15.977   7.571  0.00  0.00     0.086 H 
ENDBRANCH 142 145
ENDBRANCH   1 142
TORSDOF 46
