REMARK  30 active torsions:
REMARK  status: ('A' for Active; 'I' for Inactive)
REMARK    1  A    between atoms: N_1  and  CA_2 
REMARK    2  A    between atoms: CA_2  and  C_3 
REMARK    3  A    between atoms: CA_2  and  CB_5 
REMARK       I    between atoms: C_3  and  N_10 
REMARK    4  A    between atoms: CB_5  and  CG_6 
REMARK    5  A    between atoms: CG_6  and  CD_7 
REMARK       I    between atoms: CD_7  and  NE2_9 
REMARK    6  A    between atoms: N_10  and  CA_11 
REMARK    7  A    between atoms: CA_11  and  C_12 
REMARK    8  A    between atoms: CA_11  and  CB_14 
REMARK       I    between atoms: C_12  and  N_21 
REMARK    9  A    between atoms: CB_14  and  CG_15 
REMARK   10  A    between atoms: CG_15  and  CD_16 
REMARK   11  A    between atoms: CD_16  and  NE_17 
REMARK       I    between atoms: NE_17  and  CZ_18 
REMARK       I    between atoms: CZ_18  and  NH1_19 
REMARK   12  A    between atoms: N_21  and  CA_22 
REMARK   13  A    between atoms: CA_22  and  C_23 
REMARK   14  A    between atoms: CA_22  and  CB_25 
REMARK       I    between atoms: C_23  and  N_27 
REMARK   15  A    between atoms: CB_25  and  OG_26 
REMARK   16  A    between atoms: N_27  and  CA_28 
REMARK   17  A    between atoms: CA_28  and  C_29 
REMARK   18  A    between atoms: CA_28  and  CB_31 
REMARK       I    between atoms: C_29  and  N_34 
REMARK   19  A    between atoms: CB_31  and  OG1_32 
REMARK   20  A    between atoms: CB_31  and  CG2_33 
REMARK   21  A    between atoms: N_34  and  CA_35 
REMARK   22  A    between atoms: CA_35  and  CB_36 
REMARK   23  A    between atoms: CA_35  and  C_38 
REMARK   24  A    between atoms: CB_36  and  OG_37 
REMARK   25  A    between atoms: OG_37  and  P_40 
REMARK       I    between atoms: C_38  and  N_44 
REMARK   26  A    between atoms: N_44  and  CA_45 
REMARK   27  A    between atoms: CA_45  and  C_46 
REMARK   28  A    between atoms: CA_45  and  CB_48 
REMARK   29  A    between atoms: CB_48  and  OG1_49 
REMARK   30  A    between atoms: CB_48  and  CG2_50 
ROOT
ATOM      1  CA  SER d   1     -13.320 -12.449  14.477  0.00  0.00     0.109 C 
ATOM      2  H25 SER d   1     -12.283 -12.812  14.538  0.00  0.00     0.090 H 
ENDROOT
BRANCH   1   3
ATOM      3  N   SER d   1     -13.359 -11.043  14.916  0.00  0.00    -0.344 N 
ATOM      4  C   ARG d   1     -12.624 -10.110  14.271  0.00  0.00     0.241 C 
ATOM      5  O   ARG d   1     -11.774 -10.406  13.406  0.00  0.00    -0.271 OA
ATOM      6  H24 SER d   1     -13.931 -10.778  15.693  0.00  0.00     0.163 HD
BRANCH   4   7
ATOM      7  CA  ARG d   1     -12.952  -8.659  14.545  0.00  0.00     0.089 C 
ATOM      8  H12 ARG d   1     -13.130  -8.539  15.624  0.00  0.00     0.087 H 
BRANCH   7   9
ATOM      9  N   ARG d   1     -11.811  -7.813  14.155  0.00  0.00    -0.346 N 
ATOM     10  C   GLN d   1     -10.865  -7.542  15.028  0.00  0.00     0.249 C 
ATOM     11  O   GLN d   1     -10.947  -7.854  16.233  0.00  0.00    -0.271 OA
ATOM     12  H11 ARG d   1     -11.755  -7.445  13.227  0.00  0.00     0.163 HD
BRANCH  10  13
ATOM     13  CA  GLN d   1      -9.687  -6.755  14.476  0.00  0.00     0.176 C 
ATOM     14  H4  GLN d   1      -9.900  -6.469  13.435  0.00  0.00     0.099 H 
BRANCH  13  15
ATOM     15  N   GLN d   1      -9.445  -5.484  15.265  0.00  0.00    -0.066 N 
ATOM     16  H1  GLN d   1      -8.659  -4.989  14.872  0.00  0.00     0.275 HD
ATOM     17  H2  GLN d   1      -9.249  -5.717  16.226  0.00  0.00     0.275 HD
ATOM     18  H3  GLN d   1     -10.265  -4.900  15.222  0.00  0.00     0.275 HD
ENDBRANCH  13  15
BRANCH  13  19
ATOM     19  CB  GLN d   1      -8.494  -7.705  14.492  0.00  0.00    -0.022 C 
ATOM     20  H5  GLN d   1      -8.483  -8.234  15.456  0.00  0.00     0.037 H 
ATOM     21  H6  GLN d   1      -7.574  -7.110  14.390  0.00  0.00     0.037 H 
BRANCH  19  22
ATOM     22  CG  GLN d   1      -8.525  -8.736  13.379  0.00  0.00     0.011 C 
ATOM     23  H7  GLN d   1      -8.591  -8.215  12.412  0.00  0.00     0.047 H 
ATOM     24  H8  GLN d   1      -9.409  -9.377  13.512  0.00  0.00     0.047 H 
BRANCH  22  25
ATOM     25  CD  GLN d   1      -7.291  -9.598  13.385  0.00  0.00     0.215 C 
ATOM     26  OE1 GLN d   1      -6.192  -9.107  13.767  0.00  0.00    -0.274 OA
ATOM     27  NE2 GLN d   1      -7.426 -10.883  12.932  0.00  0.00    -0.370 N 
ATOM     28  H9  GLN d   1      -6.634 -11.494  12.917  0.00  0.00     0.159 HD
ATOM     29  H10 GLN d   1      -8.316 -11.211  12.616  0.00  0.00     0.159 HD
ENDBRANCH  22  25
ENDBRANCH  19  22
ENDBRANCH  13  19
ENDBRANCH  10  13
ENDBRANCH   7   9
BRANCH   7  30
ATOM     30  CB  ARG d   1     -14.215  -8.217  13.793  0.00  0.00    -0.036 C 
ATOM     31  H13 ARG d   1     -14.960  -9.024  13.845  0.00  0.00     0.036 H 
ATOM     32  H14 ARG d   1     -13.954  -8.026  12.742  0.00  0.00     0.036 H 
BRANCH  30  33
ATOM     33  CG  ARG d   1     -14.815  -6.957  14.386  0.00  0.00    -0.048 C 
ATOM     34  H15 ARG d   1     -14.055  -6.163  14.347  0.00  0.00     0.035 H 
ATOM     35  H16 ARG d   1     -15.077  -7.162  15.434  0.00  0.00     0.035 H 
BRANCH  33  36
ATOM     36  CD  ARG d   1     -16.075  -6.451  13.666  0.00  0.00     0.009 C 
ATOM     37  H17 ARG d   1     -15.772  -5.999  12.710  0.00  0.00     0.064 H 
ATOM     38  H18 ARG d   1     -16.554  -5.688  14.297  0.00  0.00     0.064 H 
BRANCH  36  39
ATOM     39  NE  ARG d   1     -17.057  -7.512  13.390  0.00  0.00    -0.227 N 
ATOM     40  CZ  ARG d   1     -17.197  -8.154  12.233  0.00  0.00     0.665 C 
ATOM     41  NH1 ARG d   1     -16.486  -7.794  11.154  0.00  0.00    -0.235 N 
ATOM     42  NH2 ARG d   1     -18.106  -9.123  12.172  0.00  0.00    -0.235 N 
ATOM     43  H20 ARG d   1     -16.606  -8.301  10.265  0.00  0.00     0.174 HD
ATOM     44  H21 ARG d   1     -15.820  -7.010  11.214  0.00  0.00     0.174 HD
ATOM     45  H22 ARG d   1     -18.640  -9.382  13.014  0.00  0.00     0.174 HD
ATOM     46  H23 ARG d   1     -18.276  -9.614  11.283  0.00  0.00     0.174 HD
ATOM     47  H19 ARG d   1     -17.689  -7.780  14.158  0.00  0.00     0.177 HD
ENDBRANCH  36  39
ENDBRANCH  33  36
ENDBRANCH  30  33
ENDBRANCH   7  30
ENDBRANCH   4   7
ENDBRANCH   1   3
BRANCH   1  48
ATOM     48  C   SER d   1     -13.786 -12.548  13.037  0.00  0.00     0.243 C 
ATOM     49  O   SER d   1     -14.724 -11.844  12.634  0.00  0.00    -0.271 OA
ATOM     50  N   THR d   1     -13.137 -13.409  12.243  0.00  0.00    -0.344 N 
ATOM     51  H29 THR d   1     -12.379 -13.936  12.628  0.00  0.00     0.163 HD
BRANCH  50  52
ATOM     52  CA  THR d   1     -13.481 -13.609  10.863  0.00  0.00     0.113 C 
ATOM     53  H30 THR d   1     -13.962 -12.689  10.500  0.00  0.00     0.091 H 
BRANCH  52  54
ATOM     54  C   THR d   1     -14.463 -14.810  10.639  0.00  0.00     0.243 C 
ATOM     55  O   THR d   1     -14.221 -15.859  11.167  0.00  0.00    -0.271 OA
ATOM     56  N   SEP d   1     -15.509 -14.592   9.826  0.00  0.00    -0.344 N 
ATOM     57  H36 SEP d   1     -15.653 -13.675   9.454  0.00  0.00     0.163 HD
BRANCH  56  58
ATOM     58  CA  SEP d   1     -16.449 -15.667   9.468  0.00  0.00     0.110 C 
ATOM     59  H37 SEP d   1     -16.114 -16.625   9.891  0.00  0.00     0.090 H 
BRANCH  58  60
ATOM     60  CB  SEP d   1     -17.783 -15.312  10.021  0.00  0.00     0.059 C 
ATOM     61  H38 SEP d   1     -17.709 -15.220  11.115  0.00  0.00     0.079 H 
ATOM     62  H39 SEP d   1     -18.503 -16.104   9.768  0.00  0.00     0.079 H 
BRANCH  60  63
ATOM     63  OG  SEP d   1     -18.241 -14.059   9.468  0.00  0.00    -0.280 OA
BRANCH  63  64
ATOM     64  P   SEP d   1     -19.607 -13.416   9.939  0.00  0.00     0.422 P 
ATOM     65  O1P SEP d   1     -19.528 -13.152  11.446  0.00  0.00    -0.617 OA
ATOM     66  O2P SEP d   1     -20.698 -14.394   9.571  0.00  0.00    -0.617 OA
ATOM     67  O3P SEP d   1     -19.649 -12.120   9.158  0.00  0.00    -0.617 OA
ENDBRANCH  63  64
ENDBRANCH  60  63
ENDBRANCH  58  60
BRANCH  58  68
ATOM     68  C   SEP d   1     -16.497 -15.762   7.987  0.00  0.00     0.243 C 
ATOM     69  O   SEP d   1     -15.876 -14.925   7.325  0.00  0.00    -0.271 OA
ATOM     70  N   THR d   1     -17.172 -16.748   7.435  0.00  0.00    -0.342 N 
ATOM     71  H40 THR d   1     -17.556 -17.446   8.039  0.00  0.00     0.163 HD
BRANCH  70  72
ATOM     72  CA  THR d   1     -17.396 -16.889   6.014  0.00  0.00     0.120 C 
ATOM     73  H41 THR d   1     -17.179 -15.918   5.544  0.00  0.00     0.093 H 
BRANCH  72  74
ATOM     74  C   THR d   1     -18.819 -17.281   5.626  0.00  0.00     0.199 C 
ATOM     75  O   THR d   1     -19.127 -17.241   4.409  0.00  0.00    -0.646 OA
ATOM     76  OXT THR d   1     -19.686 -17.590   6.455  0.00  0.00    -0.646 OA
ENDBRANCH  72  74
BRANCH  72  77
ATOM     77  CB  THR d   1     -16.418 -17.933   5.465  0.00  0.00     0.061 C 
ATOM     78  H42 THR d   1     -15.432 -17.779   5.929  0.00  0.00     0.086 H 
BRANCH  77  79
ATOM     79  OG1 THR d   1     -16.265 -17.668   4.072  0.00  0.00    -0.393 OA
ATOM     80  H43 THR d   1     -15.921 -16.790   3.954  0.00  0.00     0.210 HD
ENDBRANCH  77  79
BRANCH  77  81
ATOM     81  CG2 THR d   1     -16.927 -19.404   5.932  0.00  0.00    -0.050 C 
ATOM     82  H44 THR d   1     -16.237 -20.170   5.548  0.00  0.00     0.031 H 
ATOM     83  H45 THR d   1     -17.936 -19.586   5.534  0.00  0.00     0.031 H 
ATOM     84  H46 THR d   1     -16.952 -19.452   7.031  0.00  0.00     0.031 H 
ENDBRANCH  77  81
ENDBRANCH  72  77
ENDBRANCH  70  72
ENDBRANCH  58  68
ENDBRANCH  56  58
ENDBRANCH  52  54
BRANCH  52  85
ATOM     85  CB  THR d   1     -12.221 -13.896  10.002  0.00  0.00     0.060 C 
ATOM     86  H31 THR d   1     -11.791 -14.859  10.315  0.00  0.00     0.086 H 
BRANCH  85  87
ATOM     87  OG1 THR d   1     -11.252 -12.879  10.170  0.00  0.00    -0.393 OA
ATOM     88  H32 THR d   1     -10.492 -13.076   9.635  0.00  0.00     0.210 HD
ENDBRANCH  85  87
BRANCH  85  89
ATOM     89  CG2 THR d   1     -12.573 -13.963   8.596  0.00  0.00    -0.050 C 
ATOM     90  H33 THR d   1     -11.670 -14.167   8.001  0.00  0.00     0.031 H 
ATOM     91  H34 THR d   1     -13.011 -13.004   8.281  0.00  0.00     0.031 H 
ATOM     92  H35 THR d   1     -13.305 -14.769   8.439  0.00  0.00     0.031 H 
ENDBRANCH  85  89
ENDBRANCH  52  85
ENDBRANCH  50  52
ENDBRANCH   1  48
BRANCH   1  93
ATOM     93  CB  SER d   1     -14.193 -13.308  15.393  0.00  0.00     0.044 C 
ATOM     94  H26 SER d   1     -14.190 -14.345  15.027  0.00  0.00     0.077 H 
ATOM     95  H27 SER d   1     -15.222 -12.918  15.383  0.00  0.00     0.077 H 
BRANCH  93  96
ATOM     96  OG  SER d   1     -13.693 -13.280  16.732  0.00  0.00    -0.398 OA
ATOM     97  H28 SER d   1     -13.697 -12.385  17.052  0.00  0.00     0.209 HD
ENDBRANCH  93  96
ENDBRANCH   1  93
TORSDOF 30
