REMARK  15 active torsions:
REMARK  status: ('A' for Active; 'I' for Inactive)
REMARK    1  A    between atoms: OAS_19  and  CAA_1 
REMARK    2  A    between atoms: SAV_22  and  CAB_2 
REMARK    3  A    between atoms: CAY_25  and  CAC_3 
REMARK    4  A    between atoms: CAZ_26  and  CAD_4 
REMARK    5  A    between atoms: CBA_27  and  CAE_5 
REMARK    6  A    between atoms: NBJ_36  and  CAF_6 
REMARK    7  A    between atoms: CAI_9  and  CAN_14 
REMARK    8  A    between atoms: CAN_14  and  CAO_15 
REMARK    9  A    between atoms: CAO_15  and  CAP_16 
REMARK   10  A    between atoms: CAP_16  and  CBD_30 
REMARK   11  A    between atoms: CBF_32  and  OAS_19 
REMARK   12  A    between atoms: CAW_23  and  SAV_22 
REMARK   13  A    between atoms: CBE_31  and  CAW_23 
REMARK   14  A    between atoms: CAX_24  and  CBB_28 
REMARK   15  A    between atoms: CBC_29  and  CAX_24 
ROOT
ATOM      1  CAI UDR d   1     -47.866 -28.563 -39.773  0.00  0.00    -0.091 C 
ATOM      2  CAX UDR d   1     -48.454 -29.813 -39.608  0.00  0.00    -0.019 C 
ATOM      3  H   UDR d   1     -47.325 -28.402 -40.705  0.00  0.00     0.078 H 
ENDROOT
BRANCH   2   4
ATOM      4  CBB UDR d   1     -49.126 -30.136 -38.446  0.00  0.00    -0.024 A 
ATOM      5  CAJ UDR d   1     -48.671 -31.186 -37.648  0.00  0.00    -0.064 A 
ATOM      6  CAY UDR d   1     -49.311 -31.485 -36.450  0.00  0.00    -0.027 A 
ATOM      7  H   UDR d   1     -47.810 -31.775 -37.965  0.00  0.00     0.085 H 
ATOM      8  CBF UDR d   1     -50.413 -30.743 -36.049  0.00  0.00     0.088 A 
ATOM      9  CBE UDR d   1     -50.885 -29.705 -36.851  0.00  0.00     0.056 A 
ATOM     10  CAL UDR d   1     -50.242 -29.403 -38.045  0.00  0.00    -0.055 A 
ATOM     11  H   UDR d   1     -50.611 -28.590 -38.670  0.00  0.00     0.086 H 
BRANCH   6  12
ATOM     12  CAC UDR d   1     -48.785 -32.617 -35.565  0.00  0.00    -0.049 C 
ATOM     13  H   UDR d   1     -48.492 -32.213 -34.596  0.00  0.00     0.033 H 
ATOM     14  H   UDR d   1     -49.568 -33.362 -35.427  0.00  0.00     0.033 H 
ATOM     15  H   UDR d   1     -47.922 -33.079 -36.044  0.00  0.00     0.033 H 
ENDBRANCH   6  12
BRANCH   8  16
ATOM     16  OAS UDR d   1     -51.018 -31.006 -34.860  0.00  0.00    -0.354 OA
BRANCH  16  17
ATOM     17  CAA UDR d   1     -52.076 -31.941 -35.070  0.00  0.00     0.010 C 
ATOM     18  H   UDR d   1     -52.801 -31.517 -35.765  0.00  0.00     0.066 H 
ATOM     19  H   UDR d   1     -51.668 -32.862 -35.486  0.00  0.00     0.066 H 
ATOM     20  H   UDR d   1     -52.564 -32.155 -34.119  0.00  0.00     0.066 H 
ENDBRANCH  16  17
ENDBRANCH   8  16
BRANCH   9  21
ATOM     21  CAW UDR d   1     -52.136 -28.933 -36.418  0.00  0.00     0.221 C 
ATOM     22  OAG UDR d   1     -52.566 -29.018 -35.273  0.00  0.00    -0.280 OA
BRANCH  21  23
ATOM     23  SAV UDR d   1     -52.960 -27.894 -37.565  0.00  0.00    -0.092 SA
BRANCH  23  24
ATOM     24  CAB UDR d   1     -54.551 -28.604 -37.926  0.00  0.00    -0.027 C 
ATOM     25  H   UDR d   1     -54.416 -29.598 -38.353  0.00  0.00     0.042 H 
ATOM     26  H   UDR d   1     -55.131 -28.678 -37.006  0.00  0.00     0.042 H 
ATOM     27  H   UDR d   1     -55.077 -27.969 -38.639  0.00  0.00     0.042 H 
ENDBRANCH  23  24
ENDBRANCH  21  23
ENDBRANCH   9  21
ENDBRANCH   2   4
BRANCH   2  28
ATOM     28  CBC UDR d   1     -48.306 -30.777 -40.614  0.00  0.00    -0.022 A 
ATOM     29  CAK UDR d   1     -47.283 -30.673 -41.546  0.00  0.00    -0.064 A 
ATOM     30  CBA UDR d   1     -47.154 -31.641 -42.543  0.00  0.00    -0.025 A 
ATOM     31  H   UDR d   1     -46.583 -29.839 -41.499  0.00  0.00     0.085 H 
ATOM     32  CBI UDR d   1     -48.041 -32.697 -42.597  0.00  0.00     0.114 A 
ATOM     33  OAU UDR d   1     -48.146 -33.777 -43.444  0.00  0.00    -0.258 OA
ATOM     34  CBH UDR d   1     -49.064 -32.799 -41.662  0.00  0.00     0.074 A 
ATOM     35  CBG UDR d   1     -49.220 -34.495 -43.005  0.00  0.00     0.372 A 
ATOM     36  OAH UDR d   1     -49.642 -35.535 -43.514  0.00  0.00    -0.238 OA
ATOM     37  NBJ UDR d   1     -49.758 -33.903 -41.945  0.00  0.00    -0.295 N 
ATOM     38  CAM UDR d   1     -49.200 -31.838 -40.671  0.00  0.00    -0.043 A 
ATOM     39  H   UDR d   1     -50.005 -31.915 -39.940  0.00  0.00     0.088 H 
BRANCH  30  40
ATOM     40  CAE UDR d   1     -46.034 -31.523 -43.585  0.00  0.00    -0.049 C 
ATOM     41  H   UDR d   1     -45.396 -32.405 -43.532  0.00  0.00     0.033 H 
ATOM     42  H   UDR d   1     -46.472 -31.448 -44.580  0.00  0.00     0.033 H 
ATOM     43  H   UDR d   1     -45.441 -30.632 -43.380  0.00  0.00     0.033 H 
ENDBRANCH  30  40
BRANCH  37  44
ATOM     44  CAF UDR d   1     -50.936 -34.392 -41.197  0.00  0.00    -0.009 C 
ATOM     45  H   UDR d   1     -51.794 -34.443 -41.867  0.00  0.00     0.057 H 
ATOM     46  H   UDR d   1     -50.725 -35.384 -40.798  0.00  0.00     0.057 H 
ATOM     47  H   UDR d   1     -51.154 -33.708 -40.377  0.00  0.00     0.057 H 
ENDBRANCH  37  44
ENDBRANCH   2  28
BRANCH   1  48
ATOM     48  CAN UDR d   1     -47.891 -27.494 -38.881  0.00  0.00    -0.049 C 
ATOM     49  H   UDR d   1     -47.021 -27.565 -38.228  0.00  0.00     0.038 H 
ATOM     50  H   UDR d   1     -48.818 -27.540 -38.309  0.00  0.00     0.038 H 
BRANCH  48  51
ATOM     51  CAO UDR d   1     -47.839 -26.157 -39.620  0.00  0.00    -0.055 C 
ATOM     52  H   UDR d   1     -47.178 -26.254 -40.481  0.00  0.00     0.034 H 
ATOM     53  H   UDR d   1     -47.470 -25.390 -38.939  0.00  0.00     0.034 H 
BRANCH  51  54
ATOM     54  CAP UDR d   1     -49.231 -25.760 -40.106  0.00  0.00    -0.002 C 
ATOM     55  H   UDR d   1     -49.774 -26.662 -40.387  0.00  0.00     0.045 H 
ATOM     56  H   UDR d   1     -49.126 -25.087 -40.957  0.00  0.00     0.045 H 
BRANCH  54  57
ATOM     57  CBD UDR d   1     -50.008 -25.042 -39.006  0.00  0.00     0.169 A 
ATOM     58  NAR UDR d   1     -49.727 -23.846 -38.470  0.00  0.00    -0.127 NA
ATOM     59  NAQ UDR d   1     -50.610 -23.524 -37.671  0.00  0.00    -0.127 NA
ATOM     60  CAZ UDR d   1     -51.522 -24.489 -37.634  0.00  0.00     0.165 A 
ATOM     61  OAT UDR d   1     -51.175 -25.491 -38.470  0.00  0.00    -0.278 OA
BRANCH  60  62
ATOM     62  CAD UDR d   1     -52.804 -24.425 -36.770  0.00  0.00    -0.013 C 
ATOM     63  H   UDR d   1     -52.528 -24.333 -35.719  0.00  0.00     0.038 H 
ATOM     64  H   UDR d   1     -53.399 -23.562 -37.068  0.00  0.00     0.038 H 
ATOM     65  H   UDR d   1     -53.385 -25.336 -36.916  0.00  0.00     0.038 H 
ENDBRANCH  60  62
ENDBRANCH  54  57
ENDBRANCH  51  54
ENDBRANCH  48  51
ENDBRANCH   1  48
TORSDOF 15
