REMARK  18 active torsions:
REMARK  status: ('A' for Active; 'I' for Inactive)
REMARK    1  A    between atoms: C3_5  and  O1_2 
REMARK    2  A    between atoms: O1_2  and  C22_27 
REMARK    3  A    between atoms: C2_3  and  C7_11 
REMARK    4  A    between atoms: C10_15  and  O2_4 
REMARK    5  A    between atoms: O2_4  and  C23_28 
REMARK    6  A    between atoms: C20_25  and  O3_6 
REMARK    7  A    between atoms: O3_6  and  C21_26 
REMARK    8  A    between atoms: C7_11  and  O5_9 
REMARK    9  A    between atoms: O5_9  and  C24_29 
REMARK   10  A    between atoms: C8_13  and  C6_10 
REMARK   11  A    between atoms: C16_21  and  O7_12 
REMARK   12  A    between atoms: O7_12  and  C25_30 
REMARK   13  A    between atoms: C8_13  and  C13_18 
REMARK   14  A    between atoms: C17_22  and  C9_14 
REMARK   15  A    between atoms: C15_20  and  C16_21 
REMARK   16  A    between atoms: C18_23  and  C17_22 
REMARK   17  A    between atoms: C19_24  and  C18_23 
REMARK   18  A    between atoms: C19_24  and  C20_25 
ROOT
ATOM      1  C1  AC7 d   1      50.078 -28.732  38.223  0.00  0.00    -0.054 A 
ATOM      2  C2  AC7 d   1      50.880 -29.092  37.094  0.00  0.00     0.075 A 
ATOM      3  C3  AC7 d   1      50.402 -30.107  36.183  0.00  0.00     0.105 A 
ATOM      4  C4  AC7 d   1      49.081 -30.638  36.372  0.00  0.00     0.079 A 
ATOM      5  C5  AC7 d   1      48.314 -30.269  37.484  0.00  0.00    -0.049 A 
ATOM      6  C6  AC7 d   1      48.763 -29.287  38.409  0.00  0.00    -0.023 A 
ATOM      7  N69 AC7 d   1      48.174 -32.342  34.886  0.00  0.00    -0.191 NA
ATOM      8  C77 AC7 d   1      48.602 -31.538  35.597  0.00  0.00     0.102 C 
ATOM      9  H   AC7 d   1      50.470 -28.025  38.955  0.00  0.00     0.086 H 
ATOM     10  H   AC7 d   1      47.348 -30.747  37.645  0.00  0.00     0.087 H 
ENDROOT
BRANCH   3  11
ATOM     11  O1  AC7 d   1      51.161 -30.481  35.062  0.00  0.00    -0.353 OA
BRANCH  11  12
ATOM     12  C22 AC7 d   1      51.012 -29.890  33.754  0.00  0.00     0.010 C 
ATOM     13  H   AC7 d   1      49.994 -30.049  33.399  0.00  0.00     0.066 H 
ATOM     14  H   AC7 d   1      51.214 -28.821  33.815  0.00  0.00     0.066 H 
ATOM     15  H   AC7 d   1      51.716 -30.355  33.064  0.00  0.00     0.066 H 
ENDBRANCH  11  12
ENDBRANCH   3  11
BRANCH   2  16
ATOM     16  C7  AC7 d   1      52.260 -28.457  36.945  0.00  0.00     0.295 C 
ATOM     17  O35 AC7 d   1      52.996 -28.719  35.990  0.00  0.00    -0.259 OA
BRANCH  16  18
ATOM     18  O5  AC7 d   1      52.723 -27.486  37.932  0.00  0.00    -0.322 OA
BRANCH  18  19
ATOM     19  C24 AC7 d   1      53.992 -27.651  38.572  0.00  0.00     0.013 C 
ATOM     20  H   AC7 d   1      54.004 -28.597  39.113  0.00  0.00     0.067 H 
ATOM     21  H   AC7 d   1      54.780 -27.651  37.819  0.00  0.00     0.067 H 
ATOM     22  H   AC7 d   1      54.155 -26.830  39.270  0.00  0.00     0.067 H 
ENDBRANCH  18  19
ENDBRANCH  16  18
ENDBRANCH   2  16
BRANCH   6  23
ATOM     23  C8  AC7 d   1      47.862 -28.875  39.616  0.00  0.00    -0.019 C 
ATOM     24  C9  AC7 d   1      47.397 -27.595  39.791  0.00  0.00    -0.091 C 
ATOM     25  H   AC7 d   1      46.770 -27.411  40.664  0.00  0.00     0.078 H 
BRANCH  24  26
ATOM     26  C17 AC7 d   1      47.676 -26.412  38.880  0.00  0.00    -0.049 C 
ATOM     27  H   AC7 d   1      46.791 -25.777  38.854  0.00  0.00     0.038 H 
ATOM     28  H   AC7 d   1      47.921 -26.788  37.887  0.00  0.00     0.038 H 
BRANCH  26  29
ATOM     29  C18 AC7 d   1      48.843 -25.593  39.388  0.00  0.00    -0.054 C 
ATOM     30  H   AC7 d   1      49.742 -26.209  39.407  0.00  0.00     0.034 H 
ATOM     31  H   AC7 d   1      48.630 -25.239  40.397  0.00  0.00     0.034 H 
BRANCH  29  32
ATOM     32  C19 AC7 d   1      49.060 -24.398  38.459  0.00  0.00     0.016 C 
ATOM     33  H   AC7 d   1      49.142 -23.493  39.062  0.00  0.00     0.048 H 
ATOM     34  H   AC7 d   1      48.217 -24.328  37.772  0.00  0.00     0.048 H 
BRANCH  32  35
ATOM     35  C20 AC7 d   1      50.336 -24.569  37.655  0.00  0.00     0.258 C 
ATOM     36  O37 AC7 d   1      50.915 -25.654  37.596  0.00  0.00    -0.265 OA
BRANCH  35  37
ATOM     37  O3  AC7 d   1      50.884 -23.429  36.935  0.00  0.00    -0.326 OA
BRANCH  37  38
ATOM     38  C21 AC7 d   1      52.117 -23.499  36.209  0.00  0.00     0.013 C 
ATOM     39  H   AC7 d   1      52.925 -23.762  36.892  0.00  0.00     0.067 H 
ATOM     40  H   AC7 d   1      52.036 -24.258  35.431  0.00  0.00     0.067 H 
ATOM     41  H   AC7 d   1      52.325 -22.530  35.754  0.00  0.00     0.067 H 
ENDBRANCH  37  38
ENDBRANCH  35  37
ENDBRANCH  32  35
ENDBRANCH  29  32
ENDBRANCH  26  29
ENDBRANCH  24  26
BRANCH  23  42
ATOM     42  C13 AC7 d   1      47.439 -29.964  40.624  0.00  0.00    -0.023 A 
ATOM     43  C12 AC7 d   1      46.331 -29.776  41.507  0.00  0.00    -0.049 A 
ATOM     44  C11 AC7 d   1      45.941 -30.801  42.427  0.00  0.00     0.079 A 
ATOM     45  H   AC7 d   1      45.775 -28.839  41.480  0.00  0.00     0.087 H 
ATOM     46  C10 AC7 d   1      46.650 -32.064  42.430  0.00  0.00     0.105 A 
ATOM     47  C82 AC7 d   1      44.921 -30.579  43.215  0.00  0.00     0.102 C 
ATOM     48  C15 AC7 d   1      47.775 -32.230  41.540  0.00  0.00     0.075 A 
ATOM     49  C14 AC7 d   1      48.122 -31.197  40.659  0.00  0.00    -0.054 A 
ATOM     50  H   AC7 d   1      48.954 -31.353  39.972  0.00  0.00     0.086 H 
ATOM     51  N74 AC7 d   1      44.019 -30.367  43.928  0.00  0.00    -0.191 NA
BRANCH  46  52
ATOM     52  O2  AC7 d   1      46.277 -33.078  43.310  0.00  0.00    -0.353 OA
BRANCH  52  53
ATOM     53  C23 AC7 d   1      45.257 -34.032  42.922  0.00  0.00     0.010 C 
ATOM     54  H   AC7 d   1      44.326 -33.503  42.717  0.00  0.00     0.066 H 
ATOM     55  H   AC7 d   1      45.580 -34.563  42.027  0.00  0.00     0.066 H 
ATOM     56  H   AC7 d   1      45.101 -34.744  43.732  0.00  0.00     0.066 H 
ENDBRANCH  52  53
ENDBRANCH  46  52
BRANCH  48  57
ATOM     57  C16 AC7 d   1      48.631 -33.481  41.421  0.00  0.00     0.295 C 
ATOM     58  O36 AC7 d   1      49.516 -33.531  40.561  0.00  0.00    -0.259 OA
BRANCH  57  59
ATOM     59  O7  AC7 d   1      48.485 -34.645  42.263  0.00  0.00    -0.322 OA
BRANCH  59  60
ATOM     60  C25 AC7 d   1      49.161 -35.851  41.870  0.00  0.00     0.013 C 
ATOM     61  H   AC7 d   1      48.803 -36.163  40.889  0.00  0.00     0.067 H 
ATOM     62  H   AC7 d   1      50.234 -35.666  41.825  0.00  0.00     0.067 H 
ATOM     63  H   AC7 d   1      48.956 -36.635  42.599  0.00  0.00     0.067 H 
ENDBRANCH  59  60
ENDBRANCH  57  59
ENDBRANCH  48  57
ENDBRANCH  23  42
ENDBRANCH   6  23
TORSDOF 18
