REMARK WARNING: 32 MAX_TORS EXCEEDED!!!
REMARK  78 active torsions:
REMARK  status: ('A' for Active; 'I' for Inactive)
REMARK    1  A    between atoms: CA_2  and  C_3 
REMARK       I    between atoms: C_3  and  N_8 
REMARK    2  A    between atoms: N_8  and  CA_9 
REMARK    3  A    between atoms: CA_9  and  C_10 
REMARK    4  A    between atoms: CA_9  and  CB_12 
REMARK       I    between atoms: C_10  and  N_16 
REMARK    5  A    between atoms: CB_12  and  CG_13 
REMARK    6  A    between atoms: CG_13  and  CD1_14 
REMARK    7  A    between atoms: CG_13  and  CD2_15 
REMARK    8  A    between atoms: N_16  and  CA_17 
REMARK    9  A    between atoms: CA_17  and  C_18 
REMARK   10  A    between atoms: CA_17  and  CB_20 
REMARK       I    between atoms: C_18  and  N_25 
REMARK   11  A    between atoms: CB_20  and  CG_21 
REMARK   12  A    between atoms: CG_21  and  CD_22 
REMARK   13  A    between atoms: N_25  and  CA_26 
REMARK   14  A    between atoms: CA_26  and  C_27 
REMARK   15  A    between atoms: CA_26  and  CB_29 
REMARK       I    between atoms: C_27  and  N_34 
REMARK   16  A    between atoms: CB_29  and  CG_30 
REMARK   17  A    between atoms: CG_30  and  CD_31 
REMARK   18  A    between atoms: CD_31  and  CE_32 
REMARK   19  A    between atoms: CE_32  and  NZ_33 
REMARK   20  A    between atoms: N_34  and  CA_35 
REMARK   21  A    between atoms: CA_35  and  C_36 
REMARK   22  A    between atoms: CA_35  and  CB_38 
REMARK       I    between atoms: C_36  and  N_39 
REMARK   23  A    between atoms: N_39  and  CA_40 
REMARK   24  A    between atoms: CA_40  and  C_41 
REMARK   25  A    between atoms: CA_40  and  CB_43 
REMARK       I    between atoms: C_41  and  N_45 
REMARK   26  A    between atoms: CB_43  and  OG_44 
REMARK   27  A    between atoms: N_45  and  CA_46 
REMARK   28  A    between atoms: CA_46  and  C_47 
REMARK   29  A    between atoms: CA_46  and  CB_49 
REMARK       I    between atoms: C_47  and  N_52 
REMARK   30  A    between atoms: CB_49  and  CG1_50 
REMARK   31  A    between atoms: CB_49  and  CG2_51 
REMARK   32  A    between atoms: N_52  and  CA_53 
REMARK   33  A    between atoms: CA_53  and  C_54 
REMARK   34  A    between atoms: CA_53  and  CB_56 
REMARK       I    between atoms: C_54  and  N_59 
REMARK   35  A    between atoms: CB_56  and  CG1_57 
REMARK   36  A    between atoms: CB_56  and  CG2_58 
REMARK   37  A    between atoms: N_59  and  CA_60 
REMARK   38  A    between atoms: CA_60  and  C_61 
REMARK   39  A    between atoms: CA_60  and  CB_63 
REMARK       I    between atoms: C_61  and  N_65 
REMARK   40  A    between atoms: CB_63  and  OG_64 
REMARK   41  A    between atoms: N_65  and  CA_66 
REMARK   42  A    between atoms: CA_66  and  C_67 
REMARK   43  A    between atoms: CA_66  and  CB_69 
REMARK       I    between atoms: C_67  and  N_74 
REMARK   44  A    between atoms: CB_69  and  CG_70 
REMARK   45  A    between atoms: CG_70  and  CD_71 
REMARK   46  A    between atoms: CD_71  and  CE_72 
REMARK   47  A    between atoms: CE_72  and  NZ_73 
REMARK   48  A    between atoms: N_74  and  CA_75 
REMARK   49  A    between atoms: CA_75  and  C_76 
REMARK   50  A    between atoms: CA_75  and  CB_78 
REMARK       I    between atoms: C_76  and  N_82 
REMARK   51  A    between atoms: CB_78  and  CG_79 
REMARK   52  A    between atoms: CG_79  and  CD1_80 
REMARK   53  A    between atoms: CG_79  and  CD2_81 
REMARK   54  A    between atoms: N_82  and  CA_83 
REMARK   55  A    between atoms: CA_83  and  C_84 
REMARK   56  A    between atoms: CA_83  and  CB_86 
REMARK       I    between atoms: C_84  and  N_93 
REMARK   57  A    between atoms: CB_86  and  CG_87 
REMARK   58  A    between atoms: N_93  and  CA_94 
REMARK   59  A    between atoms: CA_94  and  C_95 
REMARK   60  A    between atoms: CA_94  and  CB_97 
REMARK       I    between atoms: C_95  and  N_104 
REMARK   61  A    between atoms: CB_97  and  CG_98 
REMARK   62  A    between atoms: N_104  and  CA_105 
REMARK   63  A    between atoms: CA_105  and  C_106 
REMARK   64  A    between atoms: CA_105  and  CB_108 
REMARK       I    between atoms: C_106  and  N_110 
REMARK   65  A    between atoms: CB_108  and  OG_109 
REMARK   66  A    between atoms: N_110  and  CA_111 
REMARK   67  A    between atoms: CA_111  and  C_112 
REMARK   68  A    between atoms: CA_111  and  CB_114 
REMARK       I    between atoms: C_112  and  N_124 
REMARK   69  A    between atoms: CB_114  and  CG_115 
REMARK   70  A    between atoms: N_124  and  CA_125 
REMARK   71  A    between atoms: CA_125  and  C_126 
REMARK   72  A    between atoms: CA_125  and  CB_128 
REMARK       I    between atoms: C_126  and  N_131 
REMARK   73  A    between atoms: CB_128  and  OG1_129 
REMARK   74  A    between atoms: CB_128  and  CG2_130 
REMARK   75  A    between atoms: N_131  and  CA_132 
REMARK   76  A    between atoms: CA_132  and  C_133 
REMARK   77  A    between atoms: CA_132  and  CB_135 
REMARK       I    between atoms: C_133  and  N_136 
REMARK   78  A    between atoms: CA_137  and  C_138 
ROOT
ATOM      1  CA  LYS d   1     -29.941   8.198  19.548  0.00  0.00     0.089 C 
ATOM      2  H   LYS d   1     -29.525   8.483  18.582  0.00  0.00     0.087 H 
ENDROOT
BRANCH   1   3
ATOM      3  N   LYS d   1     -30.650   9.396  20.002  0.00  0.00    -0.346 N 
ATOM      4  C   SER d   1     -30.500  10.539  19.335  0.00  0.00     0.243 C 
ATOM      5  O   SER d   1     -29.779  10.635  18.359  0.00  0.00    -0.271 OA
ATOM      6  H   LYS d   1     -31.254   9.355  20.823  0.00  0.00     0.163 HD
BRANCH   4   7
ATOM      7  CA  SER d   1     -31.254  11.751  19.810  0.00  0.00     0.109 C 
ATOM      8  H   SER d   1     -31.793  11.534  20.732  0.00  0.00     0.090 H 
BRANCH   7   9
ATOM      9  N   SER d   1     -30.301  12.826  20.038  0.00  0.00    -0.344 N 
ATOM     10  C   VAL d   1     -29.998  13.321  21.238  0.00  0.00     0.241 C 
ATOM     11  O   VAL d   1     -30.418  12.851  22.298  0.00  0.00    -0.271 OA
ATOM     12  H   SER d   1     -29.833  13.228  19.225  0.00  0.00     0.163 HD
BRANCH  10  13
ATOM     13  CA  VAL d   1     -29.078  14.545  21.233  0.00  0.00     0.092 C 
ATOM     14  H   VAL d   1     -28.786  14.801  20.215  0.00  0.00     0.088 H 
BRANCH  13  15
ATOM     15  N   VAL d   1     -29.779  15.706  21.778  0.00  0.00    -0.346 N 
ATOM     16  C   VAL d   1     -29.895  16.858  21.126  0.00  0.00     0.241 C 
ATOM     17  O   VAL d   1     -29.392  17.063  20.031  0.00  0.00    -0.271 OA
ATOM     18  H   VAL d   1     -30.200  15.628  22.704  0.00  0.00     0.163 HD
BRANCH  16  19
ATOM     19  CA  VAL d   1     -30.676  17.952  21.839  0.00  0.00     0.092 C 
ATOM     20  H   VAL d   1     -30.735  17.730  22.904  0.00  0.00     0.088 H 
BRANCH  19  21
ATOM     21  N   VAL d   1     -30.004  19.241  21.733  0.00  0.00    -0.346 N 
ATOM     22  C   SER d   1     -29.053  19.607  22.588  0.00  0.00     0.243 C 
ATOM     23  O   SER d   1     -28.727  18.931  23.562  0.00  0.00    -0.271 OA
ATOM     24  H   VAL d   1     -30.270  19.879  20.983  0.00  0.00     0.163 HD
BRANCH  22  25
ATOM     25  CA  SER d   1     -28.349  20.912  22.295  0.00  0.00     0.109 C 
ATOM     26  H   SER d   1     -29.079  21.627  21.916  0.00  0.00     0.090 H 
BRANCH  25  27
ATOM     27  N   SER d   1     -27.757  21.458  23.516  0.00  0.00    -0.344 N 
ATOM     28  C   ALA d   1     -27.719  22.771  23.754  0.00  0.00     0.240 C 
ATOM     29  O   ALA d   1     -28.066  23.619  22.920  0.00  0.00    -0.271 OA
ATOM     30  H   SER d   1     -27.362  20.818  24.205  0.00  0.00     0.163 HD
BRANCH  28  31
ATOM     31  CA  ALA d   1     -27.206  23.204  25.131  0.00  0.00     0.086 C 
ATOM     32  H   ALA d   1     -26.679  22.372  25.599  0.00  0.00     0.086 H 
BRANCH  31  33
ATOM     33  N   ALA d   1     -26.285  24.319  24.976  0.00  0.00    -0.346 N 
ATOM     34  C   LYS d   1     -25.001  24.166  25.250  0.00  0.00     0.241 C 
ATOM     35  O   LYS d   1     -24.572  23.166  25.820  0.00  0.00    -0.271 OA
ATOM     36  H   ALA d   1     -26.631  25.223  24.654  0.00  0.00     0.163 HD
BRANCH  34  37
ATOM     37  CA  LYS d   1     -24.058  25.312  24.847  0.00  0.00     0.089 C 
ATOM     38  H   LYS d   1     -24.622  26.137  24.413  0.00  0.00     0.087 H 
BRANCH  37  39
ATOM     39  N   LYS d   1     -23.360  25.819  26.056  0.00  0.00    -0.346 N 
ATOM     40  C   GLU d   1     -23.744  26.906  26.753  0.00  0.00     0.241 C 
ATOM     41  O   GLU d   1     -24.526  27.780  26.333  0.00  0.00    -0.271 OA
ATOM     42  H   LYS d   1     -22.537  25.311  26.380  0.00  0.00     0.163 HD
BRANCH  40  43
ATOM     43  CA  GLU d   1     -23.161  27.026  28.153  0.00  0.00     0.090 C 
ATOM     44  H   GLU d   1     -22.152  26.613  28.133  0.00  0.00     0.087 H 
BRANCH  43  45
ATOM     45  N   GLU d   1     -22.975  28.410  28.617  0.00  0.00    -0.346 N 
ATOM     46  C   LEU d   1     -22.011  29.198  28.163  0.00  0.00     0.241 C 
ATOM     47  O   LEU d   1     -21.178  28.825  27.323  0.00  0.00    -0.271 OA
ATOM     48  H   GLU d   1     -23.616  28.779  29.319  0.00  0.00     0.163 HD
BRANCH  46  49
ATOM     49  CA  LEU d   1     -21.935  30.613  28.751  0.00  0.00     0.089 C 
ATOM     50  H   LEU d   1     -22.230  31.261  27.926  0.00  0.00     0.087 H 
BRANCH  49  51
ATOM     51  N   LEU d   1     -22.903  31.019  29.802  0.00  0.00    -0.346 N 
ATOM     52  C   PRO d   1     -23.765  32.033  29.615  0.00  0.00     0.249 C 
ATOM     53  O   PRO d   1     -24.040  32.501  28.489  0.00  0.00    -0.271 OA
ATOM     54  H   LEU d   1     -22.914  30.515  30.689  0.00  0.00     0.163 HD
BRANCH  52  55
ATOM     55  CA  PRO d   1     -24.462  32.619  30.877  0.00  0.00     0.178 C 
ATOM     56  N   PRO d   1     -23.965  33.976  31.239  0.00  0.00    -0.062 N 
ATOM     57  CD  PRO d   1     -24.831  35.073  30.750  0.00  0.00     0.083 C 
ATOM     58  H   PRO d   1     -23.049  34.092  30.805  0.00  0.00     0.278 HD
ATOM     59  H   PRO d   1     -23.944  34.033  32.257  0.00  0.00     0.278 HD
ATOM     60  CG  PRO d   1     -26.159  34.372  30.401  0.00  0.00    -0.040 C 
ATOM     61  H   PRO d   1     -24.399  35.590  29.893  0.00  0.00     0.075 H 
ATOM     62  H   PRO d   1     -24.962  35.859  31.494  0.00  0.00     0.075 H 
ATOM     63  CB  PRO d   1     -25.979  32.835  30.638  0.00  0.00    -0.028 C 
ATOM     64  H   PRO d   1     -26.962  34.756  31.030  0.00  0.00     0.035 H 
ATOM     65  H   PRO d   1     -26.420  34.562  29.360  0.00  0.00     0.035 H 
ATOM     66  H   PRO d   1     -26.567  32.494  31.490  0.00  0.00     0.036 H 
ATOM     67  H   PRO d   1     -26.332  32.258  29.783  0.00  0.00     0.036 H 
ATOM     68  H   PRO d   1     -24.249  31.890  31.659  0.00  0.00     0.099 H 
ENDBRANCH  52  55
ENDBRANCH  49  51
BRANCH  49  69
ATOM     69  CB  LEU d   1     -20.505  30.822  29.253  0.00  0.00    -0.035 C 
ATOM     70  H   LEU d   1     -19.883  30.550  28.400  0.00  0.00     0.037 H 
ATOM     71  H   LEU d   1     -20.464  30.252  30.181  0.00  0.00     0.037 H 
BRANCH  69  72
ATOM     72  CG  LEU d   1     -20.008  32.205  29.647  0.00  0.00    -0.059 C 
ATOM     73  H   LEU d   1     -20.625  32.600  30.454  0.00  0.00     0.038 H 
BRANCH  72  74
ATOM     74  CD1 LEU d   1     -18.565  32.068  30.116  0.00  0.00    -0.073 C 
ATOM     75  H   LEU d   1     -18.525  31.394  30.972  0.00  0.00     0.028 H 
ATOM     76  H   LEU d   1     -17.958  31.665  29.306  0.00  0.00     0.028 H 
ATOM     77  H   LEU d   1     -18.184  33.047  30.405  0.00  0.00     0.028 H 
ENDBRANCH  72  74
BRANCH  72  78
ATOM     78  CD2 LEU d   1     -20.138  33.218  28.487  0.00  0.00    -0.073 C 
ATOM     79  H   LEU d   1     -19.549  32.873  27.637  0.00  0.00     0.028 H 
ATOM     80  H   LEU d   1     -21.185  33.302  28.195  0.00  0.00     0.028 H 
ATOM     81  H   LEU d   1     -19.771  34.191  28.813  0.00  0.00     0.028 H 
ENDBRANCH  72  78
ENDBRANCH  69  72
ENDBRANCH  49  69
ENDBRANCH  46  49
ENDBRANCH  43  45
BRANCH  43  82
ATOM     82  CB  GLU d   1     -24.072  26.231  29.112  0.00  0.00    -0.029 C 
ATOM     83  H   GLU d   1     -23.429  25.501  29.604  0.00  0.00     0.037 H 
ATOM     84  H   GLU d   1     -24.880  25.832  28.499  0.00  0.00     0.037 H 
BRANCH  82  85
ATOM     85  CG  GLU d   1     -24.743  27.028  30.233  0.00  0.00     0.018 C 
ATOM     86  H   GLU d   1     -23.967  27.639  30.694  0.00  0.00     0.049 H 
ATOM     87  H   GLU d   1     -25.212  26.304  30.899  0.00  0.00     0.049 H 
BRANCH  85  88
ATOM     88  CD  GLU d   1     -25.835  27.975  29.775  0.00  0.00     0.172 C 
ATOM     89  OE1 GLU d   1     -26.488  27.690  28.745  0.00  0.00    -0.648 OA
ATOM     90  OE2 GLU d   1     -26.042  29.014  30.454  0.00  0.00    -0.648 OA
ENDBRANCH  85  88
ENDBRANCH  82  85
ENDBRANCH  43  82
ENDBRANCH  40  43
ENDBRANCH  37  39
BRANCH  37  91
ATOM     91  CB  LYS d   1     -23.063  24.804  23.781  0.00  0.00    -0.038 C 
ATOM     92  H   LYS d   1     -22.203  25.474  23.793  0.00  0.00     0.036 H 
ATOM     93  H   LYS d   1     -23.590  24.784  22.827  0.00  0.00     0.036 H 
BRANCH  91  94
ATOM     94  CG  LYS d   1     -22.533  23.357  24.053  0.00  0.00    -0.061 C 
ATOM     95  H   LYS d   1     -23.416  22.725  24.145  0.00  0.00     0.033 H 
ATOM     96  H   LYS d   1     -21.893  23.430  24.932  0.00  0.00     0.033 H 
BRANCH  94  97
ATOM     97  CD  LYS d   1     -21.656  22.714  22.933  0.00  0.00    -0.043 C 
ATOM     98  H   LYS d   1     -21.753  23.309  22.025  0.00  0.00     0.035 H 
ATOM     99  H   LYS d   1     -21.996  21.692  22.763  0.00  0.00     0.035 H 
BRANCH  97 100
ATOM    100  CE  LYS d   1     -20.163  22.682  23.354  0.00  0.00     0.080 C 
ATOM    101  H   LYS d   1     -20.172  22.430  24.414  0.00  0.00     0.075 H 
ATOM    102  H   LYS d   1     -19.762  23.649  23.051  0.00  0.00     0.075 H 
BRANCH 100 103
ATOM    103  NZ  LYS d   1     -19.252  21.660  22.714  0.00  0.00    -0.079 N 
ATOM    104  H   LYS d   1     -18.310  21.763  23.090  0.00  0.00     0.274 HD
ATOM    105  H   LYS d   1     -19.599  20.723  22.916  0.00  0.00     0.274 HD
ATOM    106  H   LYS d   1     -19.234  21.807  21.705  0.00  0.00     0.274 HD
ENDBRANCH 100 103
ENDBRANCH  97 100
ENDBRANCH  94  97
ENDBRANCH  91  94
ENDBRANCH  37  91
ENDBRANCH  34  37
ENDBRANCH  31  33
BRANCH  31 107
ATOM    107  CB  ALA d   1     -28.357  23.587  26.017  0.00  0.00    -0.049 C 
ATOM    108  H   ALA d   1     -27.979  23.872  26.999  0.00  0.00     0.030 H 
ATOM    109  H   ALA d   1     -28.891  24.427  25.574  0.00  0.00     0.030 H 
ATOM    110  H   ALA d   1     -29.033  22.738  26.119  0.00  0.00     0.030 H 
ENDBRANCH  31 107
ENDBRANCH  28  31
ENDBRANCH  25  27
BRANCH  25 111
ATOM    111  CB  SER d   1     -27.263  20.694  21.227  0.00  0.00     0.044 C 
ATOM    112  H   SER d   1     -26.929  21.670  20.874  0.00  0.00     0.077 H 
ATOM    113  H   SER d   1     -27.690  20.097  20.421  0.00  0.00     0.077 H 
BRANCH 111 114
ATOM    114  OG  SER d   1     -26.140  20.000  21.751  0.00  0.00    -0.398 OA
ATOM    115  H   SER d   1     -25.486  19.883  21.058  0.00  0.00     0.209 HD
ENDBRANCH 111 114
ENDBRANCH  25 111
ENDBRANCH  22  25
ENDBRANCH  19  21
BRANCH  19 116
ATOM    116  CB  VAL d   1     -32.056  17.993  21.265  0.00  0.00    -0.033 C 
ATOM    117  H   VAL d   1     -32.008  17.959  20.177  0.00  0.00     0.042 H 
BRANCH 116 118
ATOM    118  CG1 VAL d   1     -32.824  16.791  21.780  0.00  0.00    -0.071 C 
ATOM    119  H   VAL d   1     -32.317  15.877  21.470  0.00  0.00     0.028 H 
ATOM    120  H   VAL d   1     -32.871  16.830  22.868  0.00  0.00     0.028 H 
ATOM    121  H   VAL d   1     -33.834  16.805  21.371  0.00  0.00     0.028 H 
ENDBRANCH 116 118
BRANCH 116 122
ATOM    122  CG2 VAL d   1     -32.762  19.299  21.659  0.00  0.00    -0.071 C 
ATOM    123  H   VAL d   1     -32.827  19.362  22.745  0.00  0.00     0.028 H 
ATOM    124  H   VAL d   1     -32.193  20.147  21.278  0.00  0.00     0.028 H 
ATOM    125  H   VAL d   1     -33.765  19.311  21.232  0.00  0.00     0.028 H 
ENDBRANCH 116 122
ENDBRANCH  19 116
ENDBRANCH  16  19
ENDBRANCH  13  15
BRANCH  13 126
ATOM    126  CB  VAL d   1     -27.832  14.210  22.027  0.00  0.00    -0.033 C 
ATOM    127  H   VAL d   1     -28.128  13.863  23.017  0.00  0.00     0.042 H 
BRANCH 126 128
ATOM    128  CG1 VAL d   1     -27.057  13.122  21.329  0.00  0.00    -0.071 C 
ATOM    129  H   VAL d   1     -27.680  12.232  21.243  0.00  0.00     0.028 H 
ATOM    130  H   VAL d   1     -26.770  13.463  20.334  0.00  0.00     0.028 H 
ATOM    131  H   VAL d   1     -26.163  12.887  21.906  0.00  0.00     0.028 H 
ENDBRANCH 126 128
BRANCH 126 132
ATOM    132  CG2 VAL d   1     -26.975  15.424  22.173  0.00  0.00    -0.071 C 
ATOM    133  H   VAL d   1     -26.685  15.783  21.186  0.00  0.00     0.028 H 
ATOM    134  H   VAL d   1     -27.534  16.201  22.694  0.00  0.00     0.028 H 
ATOM    135  H   VAL d   1     -26.083  15.171  22.745  0.00  0.00     0.028 H 
ENDBRANCH 126 132
ENDBRANCH  13 126
ENDBRANCH  10  13
ENDBRANCH   7   9
BRANCH   7 136
ATOM    136  CB  SER d   1     -32.240  12.164  18.727  0.00  0.00     0.044 C 
ATOM    137  H   SER d   1     -32.968  11.361  18.612  0.00  0.00     0.077 H 
ATOM    138  H   SER d   1     -31.677  12.351  17.813  0.00  0.00     0.077 H 
BRANCH 136 139
ATOM    139  OG  SER d   1     -32.949  13.358  19.059  0.00  0.00    -0.398 OA
ATOM    140  H   SER d   1     -32.324  14.077  19.180  0.00  0.00     0.209 HD
ENDBRANCH 136 139
ENDBRANCH   7 136
ENDBRANCH   4   7
ENDBRANCH   1   3
BRANCH   1 141
ATOM    141  C   LYS d   1     -30.825   6.968  19.276  0.00  0.00     0.241 C 
ATOM    142  O   LYS d   1     -31.895   6.799  19.882  0.00  0.00    -0.271 OA
ATOM    143  N   LEU d   1     -30.355   6.153  18.322  0.00  0.00    -0.346 N 
ATOM    144  H   LEU d   1     -29.567   6.488  17.767  0.00  0.00     0.163 HD
BRANCH 143 145
ATOM    145  CA  LEU d   1     -30.874   4.830  18.011  0.00  0.00     0.089 C 
ATOM    146  H   LEU d   1     -31.475   4.461  18.842  0.00  0.00     0.087 H 
BRANCH 145 147
ATOM    147  C   LEU d   1     -29.672   3.939  17.730  0.00  0.00     0.241 C 
ATOM    148  O   LEU d   1     -28.645   4.413  17.270  0.00  0.00    -0.271 OA
ATOM    149  N   PHE d   1     -29.785   2.651  18.031  0.00  0.00    -0.346 N 
ATOM    150  H   PHE d   1     -30.671   2.298  18.393  0.00  0.00     0.163 HD
BRANCH 149 151
ATOM    151  CA  PHE d   1     -28.667   1.730  17.854  0.00  0.00     0.093 C 
ATOM    152  H   PHE d   1     -27.890   2.226  17.273  0.00  0.00     0.088 H 
BRANCH 151 153
ATOM    153  C   PHE d   1     -29.173   0.490  17.147  0.00  0.00     0.241 C 
ATOM    154  O   PHE d   1     -30.355   0.155  17.248  0.00  0.00    -0.271 OA
ATOM    155  N   PHE d   1     -28.277  -0.210  16.458  0.00  0.00    -0.346 N 
ATOM    156  H   PHE d   1     -27.310   0.108  16.401  0.00  0.00     0.163 HD
BRANCH 155 157
ATOM    157  CA  PHE d   1     -28.683  -1.422  15.793  0.00  0.00     0.093 C 
ATOM    158  H   PHE d   1     -29.537  -1.837  16.328  0.00  0.00     0.088 H 
BRANCH 157 159
ATOM    159  C   PHE d   1     -27.565  -2.400  15.791  0.00  0.00     0.241 C 
ATOM    160  O   PHE d   1     -26.632  -2.240  15.031  0.00  0.00    -0.271 OA
ATOM    161  N   SER d   1     -27.673  -3.435  16.604  0.00  0.00    -0.344 N 
ATOM    162  H   SER d   1     -28.506  -3.534  17.185  0.00  0.00     0.163 HD
BRANCH 161 163
ATOM    163  CA  SER d   1     -26.622  -4.434  16.682  0.00  0.00     0.109 C 
ATOM    164  H   SER d   1     -25.761  -4.115  16.095  0.00  0.00     0.090 H 
BRANCH 163 165
ATOM    165  C   SER d   1     -27.177  -5.738  16.151  0.00  0.00     0.243 C 
ATOM    166  O   SER d   1     -28.356  -6.029  16.362  0.00  0.00    -0.271 OA
ATOM    167  N   TRP d   1     -26.328  -6.521  15.481  0.00  0.00    -0.346 N 
ATOM    168  H   TRP d   1     -25.340  -6.267  15.464  0.00  0.00     0.163 HD
BRANCH 167 169
ATOM    169  CA  TRP d   1     -26.750  -7.725  14.771  0.00  0.00     0.093 C 
ATOM    170  H   TRP d   1     -27.610  -8.161  15.279  0.00  0.00     0.088 H 
BRANCH 169 171
ATOM    171  C   TRP d   1     -25.586  -8.674  14.762  0.00  0.00     0.241 C 
ATOM    172  O   TRP d   1     -24.552  -8.356  15.296  0.00  0.00    -0.271 OA
ATOM    173  N   THR d   1     -25.744  -9.810  14.090  0.00  0.00    -0.344 N 
ATOM    174  H   THR d   1     -26.445  -9.845  13.350  0.00  0.00     0.163 HD
BRANCH 173 175
ATOM    175  CA  THR d   1     -24.962 -11.006  14.362  0.00  0.00     0.113 C 
ATOM    176  H   THR d   1     -24.088 -10.698  14.936  0.00  0.00     0.091 H 
BRANCH 175 177
ATOM    177  C   THR d   1     -24.448 -11.696  13.105  0.00  0.00     0.243 C 
ATOM    178  O   THR d   1     -24.924 -11.416  12.002  0.00  0.00    -0.271 OA
ATOM    179  N   ALA d   1     -23.514 -12.631  13.292  0.00  0.00    -0.346 N 
ATOM    180  H   ALA d   1     -23.289 -12.902  14.249  0.00  0.00     0.163 HD
BRANCH 179 181
ATOM    181  CA  ALA d   1     -22.787 -13.296  12.191  0.00  0.00     0.086 C 
ATOM    182  H   ALA d   1     -22.375 -12.459  11.628  0.00  0.00     0.086 H 
BRANCH 181 183
ATOM    183  C   ALA d   1     -23.634 -14.032  11.133  0.00  0.00     0.243 C 
ATOM    184  O   ALA d   1     -24.071 -13.396  10.183  0.00  0.00    -0.271 OA
ATOM    185  N   PRO d   1     -23.918 -15.350  11.310  0.00  0.00    -0.336 N 
ATOM    186  CA  PRO d   1     -24.017 -16.220  10.084  0.00  0.00     0.098 C 
ATOM    187  CD  PRO d   1     -24.262 -16.090  12.547  0.00  0.00    -0.001 C 
ATOM    188  CB  PRO d   1     -24.068 -17.654  10.643  0.00  0.00    -0.035 C 
ATOM    189  H   PRO d   1     -23.177 -16.020   9.419  0.00  0.00     0.089 H 
ATOM    190  CG  PRO d   1     -24.721 -17.498  12.016  0.00  0.00    -0.048 C 
ATOM    191  H   PRO d   1     -23.078 -18.106  10.707  0.00  0.00     0.036 H 
ATOM    192  H   PRO d   1     -24.628 -18.328   9.995  0.00  0.00     0.036 H 
ATOM    193  H   PRO d   1     -24.419 -18.297  12.693  0.00  0.00     0.035 H 
ATOM    194  H   PRO d   1     -25.807 -17.564  11.950  0.00  0.00     0.035 H 
ATOM    195  H   PRO d   1     -25.035 -15.591  13.131  0.00  0.00     0.064 H 
ATOM    196  H   PRO d   1     -23.424 -16.158  13.241  0.00  0.00     0.064 H 
BRANCH 186 197
ATOM    197  C   PRO d   1     -25.248 -15.964   9.232  0.00  0.00     0.196 C 
ATOM    198  O   PRO d   1     -25.399 -14.867   8.697  0.00  0.00    -0.646 OA
ATOM    199  O1  PRO d   1     -26.109 -16.870   9.074  0.00  0.00    -0.646 OA
ENDBRANCH 186 197
ENDBRANCH 181 183
BRANCH 181 200
ATOM    200  CB  ALA d   1     -21.616 -14.187  12.726  0.00  0.00    -0.049 C 
ATOM    201  H   ALA d   1     -20.911 -13.565  13.278  0.00  0.00     0.030 H 
ATOM    202  H   ALA d   1     -22.018 -14.956  13.386  0.00  0.00     0.030 H 
ATOM    203  H   ALA d   1     -21.107 -14.658  11.886  0.00  0.00     0.030 H 
ENDBRANCH 181 200
ENDBRANCH 179 181
ENDBRANCH 175 177
BRANCH 175 204
ATOM    204  CB  THR d   1     -25.846 -11.988  15.125  0.00  0.00     0.060 C 
ATOM    205  H   THR d   1     -26.671 -11.442  15.582  0.00  0.00     0.086 H 
BRANCH 204 206
ATOM    206  OG1 THR d   1     -25.067 -12.616  16.140  0.00  0.00    -0.393 OA
ATOM    207  H   THR d   1     -25.616 -13.236  16.625  0.00  0.00     0.210 HD
ENDBRANCH 204 206
BRANCH 204 208
ATOM    208  CG2 THR d   1     -26.463 -13.023  14.195  0.00  0.00    -0.050 C 
ATOM    209  H   THR d   1     -27.074 -12.519  13.446  0.00  0.00     0.031 H 
ATOM    210  H   THR d   1     -25.670 -13.584  13.701  0.00  0.00     0.031 H 
ATOM    211  H   THR d   1     -27.086 -13.705  14.774  0.00  0.00     0.031 H 
ENDBRANCH 204 208
ENDBRANCH 175 204
ENDBRANCH 173 175
ENDBRANCH 169 171
BRANCH 169 212
ATOM    212  CB  TRP d   1     -27.201  -7.421  13.332  0.00  0.00    -0.012 C 
ATOM    213  H   TRP d   1     -27.868  -6.559  13.361  0.00  0.00     0.044 H 
ATOM    214  H   TRP d   1     -27.692  -8.310  12.936  0.00  0.00     0.044 H 
BRANCH 212 215
ATOM    215  CG  TRP d   1     -26.056  -7.090  12.442  0.00  0.00    -0.028 A 
ATOM    216  CD1 TRP d   1     -25.310  -7.960  11.669  0.00  0.00    -0.015 A 
ATOM    217  NE1 TRP d   1     -24.297  -7.277  11.021  0.00  0.00    -0.365 N 
ATOM    218  H   TRP d   1     -25.494  -9.031  11.583  0.00  0.00     0.112 H 
ATOM    219  CE2 TRP d   1     -24.405  -5.951  11.350  0.00  0.00     0.042 A 
ATOM    220  H   TRP d   1     -23.594  -7.688  10.407  0.00  0.00     0.165 HD
ATOM    221  CD2 TRP d   1     -25.494  -5.810  12.250  0.00  0.00    -0.002 A 
ATOM    222  CZ2 TRP d   1     -23.630  -4.874  10.953  0.00  0.00    -0.056 A 
ATOM    223  CE3 TRP d   1     -25.796  -4.550  12.748  0.00  0.00    -0.070 A 
ATOM    224  CZ3 TRP d   1     -25.027  -3.497  12.363  0.00  0.00    -0.082 A 
ATOM    225  H   TRP d   1     -26.632  -4.408  13.433  0.00  0.00     0.084 H 
ATOM    226  CH2 TRP d   1     -23.951  -3.662  11.466  0.00  0.00    -0.081 A 
ATOM    227  H   TRP d   1     -25.247  -2.504  12.756  0.00  0.00     0.083 H 
ATOM    228  H   TRP d   1     -23.362  -2.791  11.178  0.00  0.00     0.083 H 
ATOM    229  H   TRP d   1     -22.799  -4.996  10.259  0.00  0.00     0.086 H 
ENDBRANCH 212 215
ENDBRANCH 169 212
ENDBRANCH 167 169
ENDBRANCH 163 165
BRANCH 163 230
ATOM    230  CB  SER d   1     -26.175  -4.621  18.135  0.00  0.00     0.044 C 
ATOM    231  H   SER d   1     -25.111  -4.857  18.135  0.00  0.00     0.077 H 
ATOM    232  H   SER d   1     -26.773  -5.420  18.574  0.00  0.00     0.077 H 
BRANCH 230 233
ATOM    233  OG  SER d   1     -26.368  -3.448  18.909  0.00  0.00    -0.398 OA
ATOM    234  H   SER d   1     -27.300  -3.216  18.910  0.00  0.00     0.209 HD
ENDBRANCH 230 233
ENDBRANCH 163 230
ENDBRANCH 161 163
ENDBRANCH 157 159
BRANCH 157 235
ATOM    235  CB  PHE d   1     -29.082  -1.124  14.340  0.00  0.00    -0.014 C 
ATOM    236  H   PHE d   1     -28.181  -0.811  13.812  0.00  0.00     0.043 H 
ATOM    237  H   PHE d   1     -29.861  -0.362  14.365  0.00  0.00     0.043 H 
BRANCH 235 238
ATOM    238  CG  PHE d   1     -29.639  -2.312  13.614  0.00  0.00    -0.056 A 
ATOM    239  CD1 PHE d   1     -28.797  -3.170  12.897  0.00  0.00    -0.077 A 
ATOM    240  CE1 PHE d   1     -29.303  -4.291  12.225  0.00  0.00    -0.082 A 
ATOM    241  H   PHE d   1     -27.728  -2.962  12.861  0.00  0.00     0.084 H 
ATOM    242  CZ  PHE d   1     -30.652  -4.541  12.264  0.00  0.00    -0.083 A 
ATOM    243  H   PHE d   1     -28.634  -4.956  11.678  0.00  0.00     0.083 H 
ATOM    244  CE2 PHE d   1     -31.511  -3.687  12.971  0.00  0.00    -0.082 A 
ATOM    245  H   PHE d   1     -31.058  -5.408  11.743  0.00  0.00     0.083 H 
ATOM    246  CD2 PHE d   1     -30.997  -2.580  13.644  0.00  0.00    -0.077 A 
ATOM    247  H   PHE d   1     -32.582  -3.889  12.994  0.00  0.00     0.083 H 
ATOM    248  H   PHE d   1     -31.668  -1.922  14.197  0.00  0.00     0.084 H 
ENDBRANCH 235 238
ENDBRANCH 157 235
ENDBRANCH 155 157
ENDBRANCH 151 153
BRANCH 151 249
ATOM    249  CB  PHE d   1     -28.087   1.316  19.201  0.00  0.00    -0.014 C 
ATOM    250  H   PHE d   1     -27.279   0.613  18.999  0.00  0.00     0.043 H 
ATOM    251  H   PHE d   1     -28.906   0.902  19.789  0.00  0.00     0.043 H 
BRANCH 249 252
ATOM    252  CG  PHE d   1     -27.497   2.454  20.001  0.00  0.00    -0.056 A 
ATOM    253  CD1 PHE d   1     -28.307   3.420  20.566  0.00  0.00    -0.077 A 
ATOM    254  CE1 PHE d   1     -27.765   4.444  21.291  0.00  0.00    -0.082 A 
ATOM    255  H   PHE d   1     -29.387   3.365  20.433  0.00  0.00     0.084 H 
ATOM    256  CZ  PHE d   1     -26.393   4.517  21.464  0.00  0.00    -0.083 A 
ATOM    257  H   PHE d   1     -28.412   5.202  21.732  0.00  0.00     0.083 H 
ATOM    258  CE2 PHE d   1     -25.554   3.551  20.929  0.00  0.00    -0.082 A 
ATOM    259  H   PHE d   1     -25.966   5.346  22.029  0.00  0.00     0.083 H 
ATOM    260  CD2 PHE d   1     -26.104   2.530  20.212  0.00  0.00    -0.077 A 
ATOM    261  H   PHE d   1     -24.476   3.607  21.079  0.00  0.00     0.083 H 
ATOM    262  H   PHE d   1     -25.456   1.759  19.795  0.00  0.00     0.084 H 
ENDBRANCH 249 252
ENDBRANCH 151 249
ENDBRANCH 149 151
ENDBRANCH 145 147
BRANCH 145 263
ATOM    263  CB  LEU d   1     -31.744   4.869  16.777  0.00  0.00    -0.035 C 
ATOM    264  H   LEU d   1     -31.096   4.513  15.976  0.00  0.00     0.037 H 
ATOM    265  H   LEU d   1     -32.135   5.886  16.753  0.00  0.00     0.037 H 
BRANCH 263 266
ATOM    266  CG  LEU d   1     -32.995   3.974  16.684  0.00  0.00    -0.059 C 
ATOM    267  H   LEU d   1     -33.774   4.500  17.236  0.00  0.00     0.038 H 
BRANCH 266 268
ATOM    268  CD1 LEU d   1     -33.378   3.777  15.228  0.00  0.00    -0.073 C 
ATOM    269  H   LEU d   1     -33.592   4.745  14.776  0.00  0.00     0.028 H 
ATOM    270  H   LEU d   1     -32.553   3.301  14.698  0.00  0.00     0.028 H 
ATOM    271  H   LEU d   1     -34.263   3.143  15.169  0.00  0.00     0.028 H 
ENDBRANCH 266 268
BRANCH 266 272
ATOM    272  CD2 LEU d   1     -32.843   2.622  17.332  0.00  0.00    -0.073 C 
ATOM    273  H   LEU d   1     -32.028   2.080  16.853  0.00  0.00     0.028 H 
ATOM    274  H   LEU d   1     -32.622   2.751  18.392  0.00  0.00     0.028 H 
ATOM    275  H   LEU d   1     -33.770   2.060  17.219  0.00  0.00     0.028 H 
ENDBRANCH 266 272
ENDBRANCH 263 266
ENDBRANCH 145 263
ENDBRANCH 143 145
ENDBRANCH   1 141
BRANCH   1 276
ATOM    276  CB  LYS d   1     -28.851   7.825  20.517  0.00  0.00    -0.038 C 
ATOM    277  H   LYS d   1     -28.292   7.005  20.066  0.00  0.00     0.036 H 
ATOM    278  H   LYS d   1     -29.336   7.579  21.462  0.00  0.00     0.036 H 
BRANCH 276 279
ATOM    279  CG  LYS d   1     -27.879   8.907  20.799  0.00  0.00    -0.061 C 
ATOM    280  H   LYS d   1     -28.345   9.684  21.405  0.00  0.00     0.033 H 
ATOM    281  H   LYS d   1     -27.542   9.363  19.868  0.00  0.00     0.033 H 
BRANCH 279 282
ATOM    282  CD  LYS d   1     -26.723   8.309  21.528  0.00  0.00    -0.043 C 
ATOM    283  H   LYS d   1     -26.116   7.752  20.814  0.00  0.00     0.035 H 
ATOM    284  H   LYS d   1     -27.109   7.662  22.315  0.00  0.00     0.035 H 
BRANCH 282 285
ATOM    285  CE  LYS d   1     -25.860   9.371  22.163  0.00  0.00     0.080 C 
ATOM    286  H   LYS d   1     -26.488  10.138  22.616  0.00  0.00     0.075 H 
ATOM    287  H   LYS d   1     -25.231   9.841  21.407  0.00  0.00     0.075 H 
BRANCH 285 288
ATOM    288  NZ  LYS d   1     -25.004   8.725  23.211  0.00  0.00    -0.079 N 
ATOM    289  H   LYS d   1     -24.414   9.432  23.650  0.00  0.00     0.274 HD
ATOM    290  H   LYS d   1     -25.601   8.293  23.916  0.00  0.00     0.274 HD
ATOM    291  H   LYS d   1     -24.417   8.012  22.777  0.00  0.00     0.274 HD
ENDBRANCH 285 288
ENDBRANCH 282 285
ENDBRANCH 279 282
ENDBRANCH 276 279
ENDBRANCH   1 276
TORSDOF 78
