REMARK  6 active torsions:
REMARK  status: ('A' for Active; 'I' for Inactive)
REMARK    1  A    between atoms: C1_1  and  C2_4 
REMARK    2  A    between atoms: C2_4  and  C3_5 
REMARK    3  A    between atoms: C3_5  and  O7_6 
REMARK    4  A    between atoms: C3_5  and  C4_7 
REMARK    5  A    between atoms: C3_5  and  C6_11 
REMARK    6  A    between atoms: C4_7  and  C5_8 
ROOT
ATOM      1  C3  CIT d   1     -28.108 -29.968 -22.348  0.00  0.00     0.164 C 
ENDROOT
BRANCH   1   2
ATOM      2  C2  CIT d   1     -28.611 -31.300 -21.788  0.00  0.00     0.054 C 
ATOM      3  H1  CIT d   1     -29.703 -31.250 -21.663  0.00  0.00     0.054 H 
ATOM      4  H2  CIT d   1     -28.359 -32.106 -22.493  0.00  0.00     0.054 H 
BRANCH   2   5
ATOM      5  C1  CIT d   1     -27.977 -31.590 -20.463  0.00  0.00     0.176 C 
ATOM      6  O1  CIT d   1     -27.554 -30.720 -19.737  0.00  0.00    -0.648 OA
ATOM      7  O2  CIT d   1     -27.935 -32.859 -20.026  0.00  0.00    -0.648 OA
ENDBRANCH   2   5
ENDBRANCH   1   2
BRANCH   1   8
ATOM      8  O7  CIT d   1     -26.688 -29.896 -22.417  0.00  0.00    -0.378 OA
ATOM      9  H3  CIT d   1     -26.364 -30.588 -22.981  0.00  0.00     0.211 HD
ENDBRANCH   1   8
BRANCH   1  10
ATOM     10  C4  CIT d   1     -28.651 -29.784 -23.777  0.00  0.00     0.054 C 
ATOM     11  H4  CIT d   1     -28.239 -28.869 -24.229  0.00  0.00     0.054 H 
ATOM     12  H5  CIT d   1     -29.749 -29.725 -23.765  0.00  0.00     0.054 H 
BRANCH  10  13
ATOM     13  C5  CIT d   1     -28.197 -31.004 -24.549  0.00  0.00     0.176 C 
ATOM     14  O3  CIT d   1     -27.020 -31.272 -24.635  0.00  0.00    -0.648 OA
ATOM     15  O4  CIT d   1     -29.126 -31.715 -25.204  0.00  0.00    -0.648 OA
ENDBRANCH  10  13
ENDBRANCH   1  10
BRANCH   1  16
ATOM     16  C6  CIT d   1     -28.705 -28.824 -21.553  0.00  0.00     0.210 C 
ATOM     17  O5  CIT d   1     -28.002 -27.917 -21.166  0.00  0.00    -0.646 OA
ATOM     18  O6  CIT d   1     -30.016 -28.904 -21.288  0.00  0.00    -0.646 OA
ENDBRANCH   1  16
TORSDOF 6
