REMARK  5 active torsions:
REMARK  status: ('A' for Active; 'I' for Inactive)
REMARK    1  A    between atoms: N3_2  and  C4_3 
REMARK    2  A    between atoms: C7_6  and  N4_22 
REMARK    3  A    between atoms: N5_15  and  C19_14 
REMARK       I    between atoms: C18_16  and  N5_15 
REMARK    4  A    between atoms: C14_18  and  C18_16 
REMARK    5  A    between atoms: N4_22  and  C12_21 
ROOT
ATOM      1  N4  P66 d   1       3.659  32.370  30.136  0.00  0.00    -0.337 N 
ATOM      2  H12 P66 d   1       3.956  33.303  29.816  0.00  0.00     0.167 HD
ENDROOT
BRANCH   1   3
ATOM      3  C7  P66 d   1       2.404  32.210  30.585  0.00  0.00     0.164 A 
ATOM      4  N1  P66 d   1       1.983  31.008  31.048  0.00  0.00    -0.131 NA
ATOM      5  N6  P66 d   1       0.835  30.812  31.477  0.00  0.00    -0.158 NA
ATOM      6  C11 P66 d   1      -0.095  31.764  31.522  0.00  0.00     0.052 A 
ATOM      7  C1  P66 d   1       0.220  33.044  31.069  0.00  0.00     0.094 A 
ATOM      8  H13 P66 d   1      -1.085  31.546  31.906  0.00  0.00     0.121 H 
ATOM      9  N3  P66 d   1      -0.430  34.202  30.969  0.00  0.00    -0.226 N 
ATOM     10  C2  P66 d   1       1.495  33.277  30.589  0.00  0.00     0.061 A 
ATOM     11  N2  P66 d   1       0.307  35.076  30.489  0.00  0.00    -0.178 NA
ATOM     12  C3  P66 d   1       1.516  34.562  30.232  0.00  0.00     0.038 A 
ATOM     13  H14 P66 d   1       2.364  35.097  29.808  0.00  0.00     0.119 H 
BRANCH   9  14
ATOM     14  C4  P66 d   1      -1.704  34.397  31.339  0.00  0.00     0.136 A 
ATOM     15  C5  P66 d   1      -2.750  34.134  30.456  0.00  0.00     0.148 A 
ATOM     16  C8  P66 d   1      -4.072  34.338  30.849  0.00  0.00    -0.043 A 
ATOM     17  F1  P66 d   1      -2.487  33.675  29.220  0.00  0.00    -0.203 F 
ATOM     18  C9  P66 d   1      -4.364  34.815  32.129  0.00  0.00    -0.077 A 
ATOM     19  H1  P66 d   1      -4.878  34.125  30.157  0.00  0.00     0.088 H 
ATOM     20  C10 P66 d   1      -3.325  35.081  33.018  0.00  0.00    -0.043 A 
ATOM     21  H15 P66 d   1      -5.393  34.977  32.429  0.00  0.00     0.083 H 
ATOM     22  C6  P66 d   1      -2.002  34.870  32.621  0.00  0.00     0.148 A 
ATOM     23  H2  P66 d   1      -3.542  35.450  34.014  0.00  0.00     0.088 H 
ATOM     24  F2  P66 d   1      -1.010  35.125  33.489  0.00  0.00    -0.203 F 
ENDBRANCH   9  14
ENDBRANCH   1   3
BRANCH   1  25
ATOM     25  C12 P66 d   1       4.539  31.362  30.089  0.00  0.00     0.056 A 
ATOM     26  C13 P66 d   1       4.468  30.445  29.039  0.00  0.00    -0.040 A 
ATOM     27  C14 P66 d   1       5.370  29.382  28.956  0.00  0.00     0.034 A 
ATOM     28  H3  P66 d   1       3.704  30.559  28.279  0.00  0.00     0.088 H 
ATOM     29  C15 P66 d   1       6.365  29.237  29.925  0.00  0.00    -0.066 A 
ATOM     30  C16 P66 d   1       6.445  30.149  30.978  0.00  0.00    -0.059 A 
ATOM     31  H4  P66 d   1       7.073  28.419  29.859  0.00  0.00     0.085 H 
ATOM     32  C17 P66 d   1       5.534  31.208  31.065  0.00  0.00     0.060 A 
ATOM     33  H11 P66 d   1       7.216  30.037  31.732  0.00  0.00     0.086 H 
ATOM     34 CL1  P66 d   1       5.677  32.317  32.389  0.00  0.00    -0.082 Cl
BRANCH  27  35
ATOM     35  C18 P66 d   1       5.257  28.399  27.780  0.00  0.00     0.252 C 
ATOM     36  N5  P66 d   1       6.179  27.427  27.750  0.00  0.00    -0.352 N 
ATOM     37  H10 P66 d   1       6.862  27.402  28.480  0.00  0.00     0.163 HD
ATOM     38  O1  P66 d   1       4.368  28.549  26.940  0.00  0.00    -0.268 OA
BRANCH  36  39
ATOM     39  C19 P66 d   1       6.244  26.392  26.702  0.00  0.00     0.012 A 
ATOM     40  C20 P66 d   1       6.509  26.903  25.283  0.00  0.00    -0.044 A 
ATOM     41  C21 P66 d   1       7.619  26.193  26.050  0.00  0.00    -0.044 A 
ATOM     42  H5  P66 d   1       6.032  26.409  24.424  0.00  0.00     0.036 H 
ATOM     43  H6  P66 d   1       6.578  27.984  25.093  0.00  0.00     0.036 H 
ATOM     44  H7  P66 d   1       8.487  26.762  26.413  0.00  0.00     0.036 H 
ATOM     45  H8  P66 d   1       7.942  25.187  25.744  0.00  0.00     0.036 H 
ATOM     46  H9  P66 d   1       5.564  25.552  26.906  0.00  0.00     0.072 H 
ENDBRANCH  36  39
ENDBRANCH  27  35
ENDBRANCH   1  25
TORSDOF 5
