REMARK  2 active torsions:
REMARK  status: ('A' for Active; 'I' for Inactive)
REMARK    1  A    between atoms: CA_2  and  C_3 
REMARK    2  A    between atoms: CD_7  and  C1_9 
ROOT
ATOM      1  C1  FCD d   1     -35.869 -29.839  -6.668  0.00  0.00     0.019 C 
ATOM      2  C2  FCD d   1     -36.582 -28.588  -6.669  0.00  0.00    -0.069 C 
ATOM      3  C3  FCD d   1     -37.460 -28.334  -7.729  0.00  0.00    -0.082 C 
ATOM      4  C4  FCD d   1     -37.693 -29.243  -8.752  0.00  0.00    -0.081 C 
ATOM      5  C5  FCD d   1     -37.078 -30.472  -8.711  0.00  0.00    -0.061 C 
ATOM      6  C6  FCD d   1     -36.074 -30.717  -7.707  0.00  0.00     0.047 C 
ATOM      7 CL2  FCD d   1     -35.277 -32.265  -7.741  0.00  0.00    -0.083 Cl
ATOM      8  H3  FCD d   1     -36.443 -27.865  -5.873  0.00  0.00     0.085 H 
ATOM      9  H4  FCD d   1     -37.982 -27.384  -7.752  0.00  0.00     0.083 H 
ATOM     10  H5  FCD d   1     -38.352 -28.987  -9.574  0.00  0.00     0.083 H 
ATOM     11  H6  FCD d   1     -37.344 -31.245  -9.423  0.00  0.00     0.086 H 
ENDROOT
BRANCH   1  12
ATOM     12  CD  FCD d   1     -34.888 -30.028  -5.563  0.00  0.00     0.088 A 
ATOM     13  OA  FCD d   1     -35.164 -29.472  -4.373  0.00  0.00    -0.303 OA
ATOM     14  CA  FCD d   1     -34.103 -29.692  -3.594  0.00  0.00     0.152 A 
ATOM     15  CB  FCD d   1     -33.058 -30.341  -4.302  0.00  0.00    -0.041 A 
ATOM     16  CG  FCD d   1     -33.599 -30.565  -5.565  0.00  0.00    -0.046 A 
ATOM     17  H1  FCD d   1     -32.064 -30.603  -3.941  0.00  0.00     0.088 H 
ATOM     18  H2  FCD d   1     -33.109 -31.065  -6.399  0.00  0.00     0.087 H 
BRANCH  14  19
ATOM     19  C   FCD d   1     -34.093 -29.245  -2.227  0.00  0.00     0.234 C 
ATOM     20  OB  FCD d   1     -35.093 -28.518  -1.816  0.00  0.00    -0.642 OA
ATOM     21  OXT FCD d   1     -33.178 -29.449  -1.386  0.00  0.00    -0.642 OA
ENDBRANCH  14  19
ENDBRANCH   1  12
TORSDOF 2
