REMARK  3 active torsions:
REMARK  status: ('A' for Active; 'I' for Inactive)
REMARK    1  A    between atoms: C7_12  and  S_2 
REMARK    2  A    between atoms: S_2  and  C9_14 
REMARK    3  A    between atoms: C1_3  and  C7_12 
ROOT
ATOM      1  F   T03 d   1       6.754  46.465   8.477  0.00  0.00    -0.206 F 
ATOM      2  C1  T03 d   1       9.698  45.251   5.796  0.00  0.00    -0.048 A 
ATOM      3  C2  T03 d   1      10.057  45.404   7.165  0.00  0.00    -0.073 A 
ATOM      4  C3  T03 d   1       9.047  45.789   8.087  0.00  0.00    -0.045 A 
ATOM      5  C4  T03 d   1       7.732  46.072   7.620  0.00  0.00     0.116 A 
ATOM      6  C5  T03 d   1       7.372  45.937   6.269  0.00  0.00    -0.045 A 
ATOM      7  C6  T03 d   1       8.372  45.535   5.376  0.00  0.00    -0.073 A 
ATOM      8  H1  T03 d   1      11.075  45.231   7.495  0.00  0.00     0.084 H 
ATOM      9  H2  T03 d   1       9.277  45.867   9.143  0.00  0.00     0.088 H 
ATOM     10  H4  T03 d   1       6.361  46.136   5.932  0.00  0.00     0.088 H 
ATOM     11  H5  T03 d   1       8.125  45.437   4.325  0.00  0.00     0.084 H 
ENDROOT
BRANCH   2  12
ATOM     12  C7  T03 d   1      10.711  44.779   4.738  0.00  0.00     0.008 C 
ATOM     13  H6  T03 d   1      10.571  45.347   3.806  0.00  0.00     0.056 H 
ATOM     14  H7  T03 d   1      11.736  44.929   5.108  0.00  0.00     0.056 H 
BRANCH  12  15
ATOM     15  S   T03 d   1      10.422  43.052   4.442  0.00  0.00    -0.086 SA
BRANCH  15  16
ATOM     16  C9  T03 d   1       9.143  43.104   3.237  0.00  0.00     0.184 A 
ATOM     17  N1  T03 d   1       7.854  43.064   3.570  0.00  0.00    -0.215 NA
ATOM     18  C8  T03 d   1       7.126  43.135   2.424  0.00  0.00     0.108 A 
ATOM     19  N2  T03 d   1       8.037  43.267   1.410  0.00  0.00    -0.166 NA
ATOM     20  H8  T03 d   1       6.042  43.095   2.331  0.00  0.00     0.149 H 
ATOM     21  N3  T03 d   1       9.368  43.233   1.905  0.00  0.00    -0.254 N 
ATOM     22  H3  T03 d   1      10.260  43.291   1.393  0.00  0.00     0.191 HD
ENDBRANCH  15  16
ENDBRANCH  12  15
ENDBRANCH   2  12
TORSDOF 3
