REMARK  4 active torsions:
REMARK  status: ('A' for Active; 'I' for Inactive)
REMARK    1  A    between atoms: C4_10  and  S_1 
REMARK    2  A    between atoms: S_1  and  C9_16 
REMARK    3  A    between atoms: C3_8  and  C4_10 
REMARK    4  A    between atoms: C8_15  and  N3_9 
ROOT
ATOM      1  C4  T07 d   1     -10.184  45.144  -5.451  0.00  0.00     0.009 C 
ATOM      2  H3  T07 d   1     -10.850  45.207  -6.324  0.00  0.00     0.057 H 
ATOM      3  H4  T07 d   1      -9.177  44.846  -5.779  0.00  0.00     0.057 H 
ENDROOT
BRANCH   1   4
ATOM      4  S   T07 d   1     -10.817  43.828  -4.381  0.00  0.00    -0.085 SA
BRANCH   4   5
ATOM      5  C9  T07 d   1      -9.417  43.777  -3.317  0.00  0.00     0.202 A 
ATOM      6  N1  T07 d   1      -8.145  43.839  -3.766  0.00  0.00    -0.036 NA
ATOM      7  C8  T07 d   1      -7.395  43.824  -2.641  0.00  0.00     0.739 A 
ATOM      8  N2  T07 d   1      -8.186  43.723  -1.583  0.00  0.00     0.020 NA
ATOM      9  N4  T07 d   1      -9.531  43.666  -1.991  0.00  0.00    -0.239 N 
ATOM     10  H5  T07 d   1     -10.381  43.565  -1.418  0.00  0.00     0.192 HD
BRANCH   7  11
ATOM     11  N3  T07 d   1      -6.024  43.880  -2.577  0.00  0.00    -0.230 N 
ATOM     12  H1  T07 d   1      -5.471  43.959  -3.442  0.00  0.00     0.174 HD
ATOM     13  H2  T07 d   1      -5.549  43.843  -1.664  0.00  0.00     0.174 HD
ENDBRANCH   7  11
ENDBRANCH   4   5
ENDBRANCH   1   4
BRANCH   1  14
ATOM     14  C3  T07 d   1     -10.075  46.542  -4.860  0.00  0.00    -0.027 C 
ATOM     15  C2  T07 d   1      -9.070  47.353  -5.242  0.00  0.00     0.042 C 
ATOM     16 CL1  T07 d   1      -7.736  46.736  -6.283  0.00  0.00    -0.084 Cl
ATOM     17  C5  T07 d   1      -8.917  48.672  -4.809  0.00  0.00    -0.040 C 
ATOM     18  C1  T07 d   1      -9.941  49.127  -3.983  0.00  0.00     0.035 C 
ATOM     19  H6  T07 d   1      -8.072  49.289  -5.092  0.00  0.00     0.088 H 
ATOM     20 CL2  T07 d   1      -9.792  50.788  -3.471  0.00  0.00    -0.084 Cl
ATOM     21  C7  T07 d   1     -10.874  48.294  -3.490  0.00  0.00    -0.061 C 
ATOM     22  C6  T07 d   1     -10.978  47.006  -3.894  0.00  0.00    -0.073 C 
ATOM     23  H8  T07 d   1     -11.566  48.666  -2.744  0.00  0.00     0.086 H 
ATOM     24  H7  T07 d   1     -11.738  46.352  -3.482  0.00  0.00     0.084 H 
ENDBRANCH   1  14
TORSDOF 4
