REMARK  9 active torsions:
REMARK  status: ('A' for Active; 'I' for Inactive)
REMARK    1  A    between atoms: O3A_8  and  PB_1 
REMARK    2  A    between atoms: PA_5  and  O3A_8 
REMARK    3  A    between atoms: PA_5  and  O5'_9 
REMARK    4  A    between atoms: O5'_9  and  C5'_10 
REMARK    5  A    between atoms: C5'_10  and  C4'_11 
REMARK    6  A    between atoms: C3'_13  and  O3'_14 
REMARK    7  A    between atoms: C2'_15  and  O2'_16 
REMARK    8  A    between atoms: C1'_17  and  N9_18 
REMARK    9  A    between atoms: C6_22  and  N6_23 
ROOT
ATOM      1  C4' ADP d   1       1.601  -4.825   3.436  0.00  0.00     0.089 C 
ATOM      2  O4' ADP d   1       2.180  -6.014   2.924  0.00  0.00    -0.353 OA
ATOM      3  C3' ADP d   1       2.116  -4.695   4.871  0.00  0.00     0.091 C 
ATOM      4  C2' ADP d   1       3.100  -5.828   5.024  0.00  0.00     0.105 C 
ATOM      5  C1' ADP d   1       2.567  -6.818   4.016  0.00  0.00     0.139 C 
ATOM      6  H3  ADP d   1       0.504  -4.909   3.454  0.00  0.00     0.090 H 
ATOM      7  H4  ADP d   1       2.590  -3.716   5.033  0.00  0.00     0.091 H 
ATOM      8  H6  ADP d   1       4.106  -5.490   4.736  0.00  0.00     0.093 H 
ATOM      9  H8  ADP d   1       1.709  -7.385   4.408  0.00  0.00     0.122 H 
ENDROOT
BRANCH   5  10
ATOM     10  N9  ADP d   1       3.660  -7.721   3.691  0.00  0.00    -0.294 N 
ATOM     11  C8  ADP d   1       4.843  -7.410   3.094  0.00  0.00     0.071 A 
ATOM     12  N7  ADP d   1       5.636  -8.522   2.987  0.00  0.00    -0.236 NA
ATOM     13  H9  ADP d   1       5.121  -6.415   2.749  0.00  0.00     0.144 H 
ATOM     14  C5  ADP d   1       4.920  -9.538   3.533  0.00  0.00     0.149 A 
ATOM     15  C6  ADP d   1       5.108 -10.955   3.755  0.00  0.00     0.155 A 
ATOM     16  C4  ADP d   1       3.633  -9.007   3.992  0.00  0.00     0.167 A 
ATOM     17  N1  ADP d   1       4.119 -11.674   4.368  0.00  0.00    -0.222 NA
ATOM     18  C2  ADP d   1       2.975 -11.119   4.790  0.00  0.00     0.091 A 
ATOM     19  N3  ADP d   1       2.732  -9.805   4.600  0.00  0.00    -0.222 NA
ATOM     20  H12 ADP d   1       2.235 -11.733   5.290  0.00  0.00     0.146 H 
BRANCH  15  21
ATOM     21  N6  ADP d   1       6.277 -11.508   3.379  0.00  0.00    -0.382 N 
ATOM     22  H10 ADP d   1       6.441 -12.514   3.524  0.00  0.00     0.157 HD
ATOM     23  H11 ADP d   1       7.007 -10.924   2.946  0.00  0.00     0.157 HD
ENDBRANCH  15  21
ENDBRANCH   5  10
BRANCH   4  24
ATOM     24  O2' ADP d   1       3.188  -6.383   6.327  0.00  0.00    -0.388 OA
ATOM     25  H7  ADP d   1       3.455  -5.708   6.940  0.00  0.00     0.210 HD
ENDBRANCH   4  24
BRANCH   1  26
ATOM     26  C5' ADP d   1       1.985  -3.676   2.514  0.00  0.00     0.058 C 
ATOM     27  H1  ADP d   1       1.504  -2.751   2.865  0.00  0.00     0.079 H 
ATOM     28  H2  ADP d   1       3.078  -3.549   2.526  0.00  0.00     0.079 H 
BRANCH  26  29
ATOM     29  O5' ADP d   1       1.553  -3.958   1.171  0.00  0.00    -0.287 OA
BRANCH  29  30
ATOM     30  PA  ADP d   1       2.054  -2.989   0.021  0.00  0.00     0.418 P 
ATOM     31  O1A ADP d   1       1.274  -3.263  -1.253  0.00  0.00    -0.624 OA
ATOM     32  O2A ADP d   1       3.561  -3.166  -0.035  0.00  0.00    -0.624 OA
BRANCH  30  33
ATOM     33  O3A ADP d   1       1.732  -1.492   0.451  0.00  0.00    -0.173 OA
BRANCH  33  34
ATOM     34  PB  ADP d   1       0.333  -0.657   0.395  0.00  0.00     0.431 P 
ATOM     35  O1B ADP d   1      -0.428  -1.275  -0.755  0.00  0.00    -0.616 OA
ATOM     36  O2B ADP d   1       0.809   0.789   0.207  0.00  0.00    -0.616 OA
ATOM     37  O3B ADP d   1      -0.296  -0.844   1.747  0.00  0.00    -0.616 OA
ENDBRANCH  33  34
ENDBRANCH  30  33
ENDBRANCH  29  30
ENDBRANCH  26  29
ENDBRANCH   1  26
BRANCH   3  38
ATOM     38  O3' ADP d   1       1.079  -4.907   5.816  0.00  0.00    -0.390 OA
ATOM     39  H5  ADP d   1       1.430  -4.820   6.694  0.00  0.00     0.210 HD
ENDBRANCH   3  38
TORSDOF 9
