REMARK  15 active torsions:
REMARK  status: ('A' for Active; 'I' for Inactive)
REMARK    1  A    between atoms: C8_8  and  C11_11 
REMARK    2  A    between atoms: C11_11  and  N12_12 
REMARK    3  A    between atoms: N12_12  and  C13_13 
REMARK    4  A    between atoms: C13_13  and  C14_14 
REMARK    5  A    between atoms: C13_13  and  C27_27 
REMARK    6  A    between atoms: C13_13  and  C30_30 
REMARK    7  A    between atoms: N17_17  and  C19_19 
REMARK    8  A    between atoms: C19_19  and  C20_20 
REMARK    9  A    between atoms: C19_19  and  C23_23 
REMARK   10  A    between atoms: C20_20  and  C22_22 
REMARK   11  A    between atoms: C23_23  and  C24_24 
REMARK   12  A    between atoms: C24_24  and  C25_25 
REMARK   13  A    between atoms: C25_25  and  C26_26 
REMARK   14  A    between atoms: C27_27  and  C28_28 
REMARK   15  A    between atoms: C27_27  and  C29_29 
ROOT
ATOM      1  C13 KB2 d   1       0.245  10.920   6.529  0.00  0.00     0.172 C 
ENDROOT
BRANCH   1   2
ATOM      2  N12 KB2 d   1      -0.145  11.391   5.168  0.00  0.00    -0.057 N 
ATOM      3  H   KB2 d   1       0.619  11.122   4.548  0.00  0.00     0.278 HD
ATOM      4  H   KB2 d   1      -1.057  10.976   4.978  0.00  0.00     0.278 HD
BRANCH   2   5
ATOM      5  C11 KB2 d   1      -0.324  12.915   4.985  0.00  0.00     0.106 C 
ATOM      6  H   KB2 d   1      -1.356  13.201   5.190  0.00  0.00     0.083 H 
ATOM      7  H   KB2 d   1       0.318  13.456   5.680  0.00  0.00     0.083 H 
BRANCH   5   8
ATOM      8  C8  KB2 d   1       0.051  13.268   3.520  0.00  0.00    -0.032 A 
ATOM      9  C7  KB2 d   1      -0.507  12.548   2.470  0.00  0.00    -0.063 A 
ATOM     10  C4  KB2 d   1      -0.100  12.771   1.139  0.00  0.00    -0.007 A 
ATOM     11  H   KB2 d   1      -1.271  11.799   2.679  0.00  0.00     0.085 H 
ATOM     12  C3  KB2 d   1       0.869  13.788   0.896  0.00  0.00     0.066 A 
ATOM     13  C5  KB2 d   1      -0.619  12.112   0.028  0.00  0.00    -0.069 A 
ATOM     14  N2  KB2 d   1       1.352  14.003  -0.363  0.00  0.00    -0.260 NA
ATOM     15  C10 KB2 d   1       1.405  14.529   1.963  0.00  0.00    -0.054 A 
ATOM     16  C1  KB2 d   1       0.879  13.317  -1.389  0.00  0.00     0.003 A 
ATOM     17  C6  KB2 d   1      -0.092  12.397  -1.199  0.00  0.00    -0.065 A 
ATOM     18  H   KB2 d   1       1.273  13.494  -2.390  0.00  0.00     0.114 H 
ATOM     19  H   KB2 d   1      -0.473  11.857  -2.066  0.00  0.00     0.085 H 
ATOM     20  C9  KB2 d   1       0.991  14.284   3.268  0.00  0.00    -0.073 A 
ATOM     21  H   KB2 d   1       2.150  15.300   1.767  0.00  0.00     0.087 H 
ATOM     22  H   KB2 d   1       1.393  14.876   4.091  0.00  0.00     0.084 H 
ATOM     23  H   KB2 d   1      -1.426  11.387   0.135  0.00  0.00     0.085 H 
ENDBRANCH   5   8
ENDBRANCH   2   5
ENDBRANCH   1   2
BRANCH   1  24
ATOM     24  C14 KB2 d   1       1.606  11.579   6.865  0.00  0.00     0.111 A 
ATOM     25  N15 KB2 d   1       2.652  11.432   5.986  0.00  0.00    -0.133 NA
ATOM     26  N16 KB2 d   1       3.672  12.039   6.463  0.00  0.00    -0.065 NA
ATOM     27  N17 KB2 d   1       3.331  12.508   7.611  0.00  0.00    -0.249 N 
ATOM     28  C18 KB2 d   1       2.036  12.271   7.923  0.00  0.00     0.029 A 
ATOM     29  H   KB2 d   1       1.483  12.570   8.814  0.00  0.00     0.117 H 
BRANCH  27  30
ATOM     30  C19 KB2 d   1       4.339  13.299   8.361  0.00  0.00     0.092 C 
ATOM     31  H   KB2 d   1       5.040  13.698   7.627  0.00  0.00     0.088 H 
BRANCH  30  32
ATOM     32  C20 KB2 d   1       5.173  12.433   9.304  0.00  0.00     0.147 C 
ATOM     33  O21 KB2 d   1       6.408  12.541   9.354  0.00  0.00    -0.296 OA
BRANCH  32  34
ATOM     34  C22 KB2 d   1       4.526  11.385  10.102  0.00  0.00    -0.019 C 
ATOM     35  H   KB2 d   1       4.903  10.410   9.793  0.00  0.00     0.037 H 
ATOM     36  H   KB2 d   1       4.748  11.544  11.157  0.00  0.00     0.037 H 
ATOM     37  H   KB2 d   1       3.448  11.425   9.947  0.00  0.00     0.037 H 
ENDBRANCH  32  34
ENDBRANCH  30  32
BRANCH  30  38
ATOM     38  C23 KB2 d   1       3.728  14.482   9.042  0.00  0.00    -0.038 C 
ATOM     39  H   KB2 d   1       4.465  14.955   9.691  0.00  0.00     0.036 H 
ATOM     40  H   KB2 d   1       2.880  14.162   9.647  0.00  0.00     0.036 H 
BRANCH  38  41
ATOM     41  C24 KB2 d   1       3.254  15.490   7.965  0.00  0.00    -0.063 C 
ATOM     42  H   KB2 d   1       2.718  16.287   8.479  0.00  0.00     0.033 H 
ATOM     43  H   KB2 d   1       2.642  14.939   7.250  0.00  0.00     0.033 H 
BRANCH  41  44
ATOM     44  C25 KB2 d   1       4.397  16.139   7.183  0.00  0.00    -0.068 C 
ATOM     45  H   KB2 d   1       3.988  16.464   6.226  0.00  0.00     0.032 H 
ATOM     46  H   KB2 d   1       5.192  15.398   7.100  0.00  0.00     0.032 H 
BRANCH  44  47
ATOM     47  C26 KB2 d   1       5.003  17.382   7.865  0.00  0.00    -0.077 C 
ATOM     48  H   KB2 d   1       4.229  18.140   7.990  0.00  0.00     0.027 H 
ATOM     49  H   KB2 d   1       5.400  17.102   8.841  0.00  0.00     0.027 H 
ATOM     50  H   KB2 d   1       5.806  17.780   7.245  0.00  0.00     0.027 H 
ENDBRANCH  44  47
ENDBRANCH  41  44
ENDBRANCH  38  41
ENDBRANCH  30  38
ENDBRANCH  27  30
ENDBRANCH   1  24
BRANCH   1  51
ATOM     51  C27 KB2 d   1       0.415   9.366   6.458  0.00  0.00    -0.023 C 
ATOM     52  H   KB2 d   1       1.088   9.221   5.613  0.00  0.00     0.043 H 
BRANCH  51  53
ATOM     53  C28 KB2 d   1      -0.825   8.592   6.117  0.00  0.00    -0.071 C 
ATOM     54  H   KB2 d   1      -1.589   8.783   6.870  0.00  0.00     0.028 H 
ATOM     55  H   KB2 d   1      -1.190   8.906   5.139  0.00  0.00     0.028 H 
ATOM     56  H   KB2 d   1      -0.593   7.527   6.095  0.00  0.00     0.028 H 
ENDBRANCH  51  53
BRANCH  51  57
ATOM     57  C29 KB2 d   1       1.069   8.793   7.759  0.00  0.00    -0.071 C 
ATOM     58  H   KB2 d   1       2.054   9.240   7.896  0.00  0.00     0.028 H 
ATOM     59  H   KB2 d   1       0.438   9.030   8.616  0.00  0.00     0.028 H 
ATOM     60  H   KB2 d   1       1.169   7.711   7.668  0.00  0.00     0.028 H 
ENDBRANCH  51  57
ENDBRANCH   1  51
BRANCH   1  61
ATOM     61  C30 KB2 d   1      -0.865  11.322   7.552  0.00  0.00    -0.039 C 
ATOM     62  H   KB2 d   1      -0.976  12.406   7.558  0.00  0.00     0.031 H 
ATOM     63  H   KB2 d   1      -1.809  10.861   7.262  0.00  0.00     0.031 H 
ATOM     64  H   KB2 d   1      -0.582  10.979   8.547  0.00  0.00     0.031 H 
ENDBRANCH   1  61
TORSDOF 15
