REMARK WARNING: 32 MAX_TORS EXCEEDED!!!
REMARK  46 active torsions:
REMARK  status: ('A' for Active; 'I' for Inactive)
REMARK    1  A    between atoms: N_1  and  CA_2 
REMARK    2  A    between atoms: CA_8  and  CB_11 
REMARK    3  A    between atoms: CB_11  and  CG_12 
REMARK       I    between atoms: CG_12  and  ND2_14 
REMARK    4  A    between atoms: CA_22  and  CB_25 
REMARK    5  A    between atoms: CB_25  and  CG_26 
REMARK    6  A    between atoms: CG_26  and  CD_27 
REMARK    7  A    between atoms: CD_27  and  CE_28 
REMARK    8  A    between atoms: CE_28  and  NZ_29 
REMARK    9  A    between atoms: CA_31  and  CB_34 
REMARK   10  A    between atoms: CA_43  and  CB_46 
REMARK   11  A    between atoms: CB_46  and  CG_47 
REMARK   12  A    between atoms: CG_47  and  CD_48 
REMARK   13  A    between atoms: CA_52  and  CB_55 
REMARK   14  A    between atoms: CB_55  and  OG1_56 
REMARK   15  A    between atoms: CB_55  and  CG2_57 
REMARK   16  A    between atoms: CA_59  and  CB_62 
REMARK   17  A    between atoms: CB_62  and  CG_63 
REMARK   18  A    between atoms: CA_70  and  CB_73 
REMARK   19  A    between atoms: CB_73  and  CG_74 
REMARK   20  A    between atoms: CG_74  and  CD1_75 
REMARK   21  A    between atoms: CG_74  and  CD2_76 
REMARK   22  A    between atoms: CA_84  and  CB_87 
REMARK   23  A    between atoms: CB_87  and  CG_88 
REMARK   24  A    between atoms: CZ_93  and  OH_94 
REMARK   25  A    between atoms: CA_96  and  CB_99 
REMARK   26  A    between atoms: CB_99  and  CG_100 
REMARK   27  A    between atoms: CA_110  and  CB_113 
REMARK   28  A    between atoms: CB_113  and  CG_114 
REMARK   29  A    between atoms: CG_114  and  CD_115 
REMARK   30  A    between atoms: CD_115  and  NE_116 
REMARK       I    between atoms: NE_116  and  CZ_117 
REMARK       I    between atoms: CZ_117  and  NH1_118 
REMARK   31  A    between atoms: CA_121  and  C_122 
REMARK       I    between atoms: C_122  and  N_126 
REMARK   32  A    between atoms: N_126  and  CA_127 
REMARK   33  A    between atoms: CA_127  and  C_128 
REMARK   34  A    between atoms: CA_127  and  CB_130 
REMARK       I    between atoms: C_128  and  N_134 
REMARK   35  A    between atoms: CB_130  and  CG_131 
REMARK   36  A    between atoms: CG_131  and  CD1_132 
REMARK   37  A    between atoms: CG_131  and  CD2_133 
REMARK   38  A    between atoms: N_134  and  CA_135 
REMARK   39  A    between atoms: CA_135  and  C_136 
REMARK   40  A    between atoms: CA_135  and  CB_138 
REMARK       I    between atoms: C_136  and  N_143 
REMARK   41  A    between atoms: CB_138  and  CG_139 
REMARK   42  A    between atoms: CG_139  and  CD_140 
REMARK       I    between atoms: CD_140  and  NE2_142 
REMARK   43  A    between atoms: N_143  and  CA_144 
REMARK   44  A    between atoms: CA_144  and  CB_145 
REMARK   45  A    between atoms: CA_144  and  C_151 
REMARK   46  A    between atoms: CB_145  and  CG_146 
REMARK       I    between atoms: C_151  and  NXT_153 
ROOT
ATOM      1  CA  CYS d   1       0.794  33.615  10.790  0.00  0.00     0.184 C 
ATOM      2  C   CYS d   1       0.183  34.226   9.539  0.00  0.00     0.249 C 
ATOM      3  O   CYS d   1      -1.011  34.137   9.309  0.00  0.00    -0.271 OA
ATOM      4  CB  CYS d   1       0.444  32.133  10.916  0.00  0.00     0.021 C 
ATOM      5  SG  CYS d   1       0.787  31.104   9.469  0.00  0.00    -0.095 SA
ATOM      6  N   CYS d   1       0.045  34.061   5.697  0.00  0.00    -0.345 N 
ATOM      7  CA  CYS d   1       0.336  33.122   4.600  0.00  0.00     0.098 C 
ATOM      8  C   CYS d   1       0.949  33.789   3.355  0.00  0.00     0.241 C 
ATOM      9  O   CYS d   1       1.463  33.084   2.473  0.00  0.00    -0.271 OA
ATOM     10  CB  CYS d   1      -0.925  32.332   4.258  0.00  0.00     0.013 C 
ATOM     11  SG  CYS d   1      -1.444  31.264   5.626  0.00  0.00    -0.095 SA
ATOM     12  N   CYS d   1       4.213  27.976  10.529  0.00  0.00    -0.345 N 
ATOM     13  CA  CYS d   1       3.297  28.866   9.823  0.00  0.00     0.098 C 
ATOM     14  C   CYS d   1       3.139  28.427   8.351  0.00  0.00     0.242 C 
ATOM     15  O   CYS d   1       2.023  28.349   7.832  0.00  0.00    -0.271 OA
ATOM     16  CB  CYS d   1       3.744  30.319   9.914  0.00  0.00     0.013 C 
ATOM     17  SG  CYS d   1       2.710  31.487   8.987  0.00  0.00    -0.095 SA
ATOM     18  N   CYS d   1      -0.437  27.186   6.819  0.00  0.00    -0.345 N 
ATOM     19  CA  CYS d   1      -0.897  27.733   5.561  0.00  0.00     0.098 C 
ATOM     20  CB  CYS d   1       0.124  28.720   5.015  0.00  0.00     0.013 C 
ATOM     21  SG  CYS d   1       0.205  30.184   6.083  0.00  0.00    -0.095 SA
ATOM     22  H4  CYS d   1       1.887  33.701  10.705  0.00  0.00     0.100 H 
ATOM     23  H5  CYS d   1      -0.632  32.060  11.132  0.00  0.00     0.054 H 
ATOM     24  H6  CYS d   1       1.016  31.724  11.762  0.00  0.00     0.054 H 
ATOM     25  H13 CYS d   1      -0.898  34.268   5.957  0.00  0.00     0.163 HD
ATOM     26  H14 CYS d   1       1.083  32.407   4.975  0.00  0.00     0.088 H 
ATOM     27  H15 CYS d   1      -0.725  31.707   3.375  0.00  0.00     0.053 H 
ATOM     28  H16 CYS d   1      -1.737  33.039   4.031  0.00  0.00     0.053 H 
ATOM     29  H75 CYS d   1       5.131  28.287  10.776  0.00  0.00     0.163 HD
ATOM     30  H76 CYS d   1       2.312  28.788  10.307  0.00  0.00     0.088 H 
ATOM     31  H77 CYS d   1       4.771  30.387   9.526  0.00  0.00     0.053 H 
ATOM     32  H78 CYS d   1       3.732  30.616  10.973  0.00  0.00     0.053 H 
ATOM     33 1H11 CYS d   1       0.488  27.398   7.134  0.00  0.00     0.163 HD
ATOM     34 2H11 CYS d   1      -1.829  28.283   5.758  0.00  0.00     0.088 H 
ATOM     35 3H11 CYS d   1      -0.171  29.025   4.000  0.00  0.00     0.053 H 
ATOM     36 4H11 CYS d   1       1.113  28.239   4.980  0.00  0.00     0.053 H 
ATOM     37  N   ASN d   1       1.054  34.839   8.742  0.00  0.00    -0.346 N 
ATOM     38  CA  ASN d   1       0.724  35.526   7.510  0.00  0.00     0.097 C 
ATOM     39  C   ASN d   1       1.059  34.623   6.328  0.00  0.00     0.241 C 
ATOM     40  O   ASN d   1       2.211  34.482   5.965  0.00  0.00    -0.271 OA
ATOM     41  H7  ASN d   1       2.016  34.824   9.016  0.00  0.00     0.163 HD
ATOM     42  H8  ASN d   1      -0.354  35.745   7.498  0.00  0.00     0.088 H 
ATOM     43  N   LYS d   1       0.912  35.131   3.279  0.00  0.00    -0.346 N 
ATOM     44  CA  LYS d   1       1.668  35.840   2.241  0.00  0.00     0.089 C 
ATOM     45  C   LYS d   1       3.180  35.883   2.527  0.00  0.00     0.241 C 
ATOM     46  O   LYS d   1       4.001  36.142   1.618  0.00  0.00    -0.271 OA
ATOM     47  H17 LYS d   1       0.365  35.650   3.936  0.00  0.00     0.163 HD
ATOM     48  H18 LYS d   1       1.530  35.283   1.303  0.00  0.00     0.087 H 
ATOM     49  N   ALA d   1       3.564  35.658   3.782  0.00  0.00    -0.346 N 
ATOM     50  CA  ALA d   1       4.966  35.702   4.161  0.00  0.00     0.086 C 
ATOM     51  C   ALA d   1       5.184  34.907   5.444  0.00  0.00     0.243 C 
ATOM     52  O   ALA d   1       5.438  35.491   6.497  0.00  0.00    -0.271 OA
ATOM     53  H30 ALA d   1       2.874  35.455   4.477  0.00  0.00     0.163 HD
ATOM     54  H31 ALA d   1       5.567  35.249   3.359  0.00  0.00     0.086 H 
ATOM     55  N   PRO d   1       5.087  33.577   5.340  0.00  0.00    -0.337 N 
ATOM     56  CA  PRO d   1       5.439  32.799   6.494  0.00  0.00     0.091 C 
ATOM     57  C   PRO d   1       6.938  32.966   6.668  0.00  0.00     0.241 C 
ATOM     58  O   PRO d   1       7.683  33.096   5.682  0.00  0.00    -0.271 OA
ATOM     59  CB  PRO d   1       5.105  31.365   6.068  0.00  0.00    -0.036 C 
ATOM     60  CG  PRO d   1       4.086  31.530   4.951  0.00  0.00    -0.048 C 
ATOM     61  CD  PRO d   1       4.564  32.743   4.244  0.00  0.00    -0.001 C 
ATOM     62  H35 PRO d   1       4.891  33.100   7.399  0.00  0.00     0.087 H 
ATOM     63  H36 PRO d   1       4.674  30.800   6.908  0.00  0.00     0.036 H 
ATOM     64  H37 PRO d   1       6.004  30.848   5.701  0.00  0.00     0.036 H 
ATOM     65  H38 PRO d   1       3.075  31.681   5.357  0.00  0.00     0.035 H 
ATOM     66  H39 PRO d   1       4.086  30.656   4.283  0.00  0.00     0.035 H 
ATOM     67  H40 PRO d   1       5.356  32.494   3.523  0.00  0.00     0.064 H 
ATOM     68  H41 PRO d   1       3.738  33.248   3.722  0.00  0.00     0.064 H 
ATOM     69  N   GLU d   1       7.367  33.021   7.912  0.00  0.00    -0.346 N 
ATOM     70  CA  GLU d   1       8.777  33.066   8.217  0.00  0.00     0.090 C 
ATOM     71  C   GLU d   1       9.142  31.750   8.887  0.00  0.00     0.241 C 
ATOM     72  O   GLU d   1      10.297  31.328   8.834  0.00  0.00    -0.271 OA
ATOM     73  H42 GLU d   1       6.703  33.032   8.660  0.00  0.00     0.163 HD
ATOM     74  H43 GLU d   1       9.356  33.190   7.290  0.00  0.00     0.087 H 
ATOM     75  N   THR d   1       8.157  31.104   9.510  0.00  0.00    -0.344 N 
ATOM     76  CA  THR d   1       8.466  29.872  10.282  0.00  0.00     0.113 C 
ATOM     77  C   THR d   1       7.900  28.615   9.647  0.00  0.00     0.243 C 
ATOM     78  O   THR d   1       6.834  28.649   8.983  0.00  0.00    -0.271 OA
ATOM     79  H48 THR d   1       7.218  31.445   9.459  0.00  0.00     0.163 HD
ATOM     80  H49 THR d   1       9.561  29.774  10.324  0.00  0.00     0.091 H 
ATOM     81  N   PHE d   1       8.554  27.489   9.906  0.00  0.00    -0.346 N 
ATOM     82  CA  PHE d   1       8.079  26.220   9.371  0.00  0.00     0.093 C 
ATOM     83  C   PHE d   1       6.599  25.979   9.785  0.00  0.00     0.241 C 
ATOM     84  O   PHE d   1       5.774  25.625   8.947  0.00  0.00    -0.271 OA
ATOM     85  H55 PHE d   1       9.378  27.512  10.472  0.00  0.00     0.163 HD
ATOM     86  H56 PHE d   1       8.145  26.259   8.274  0.00  0.00     0.088 H 
ATOM     87  N   LEU d   1       6.252  26.179  11.065  0.00  0.00    -0.346 N 
ATOM     88  CA  LEU d   1       4.851  25.795  11.461  0.00  0.00     0.089 C 
ATOM     89  C   LEU d   1       3.812  26.743  10.841  0.00  0.00     0.241 C 
ATOM     90  O   LEU d   1       2.678  26.319  10.602  0.00  0.00    -0.271 OA
ATOM     91  H64 LEU d   1       6.895  26.566  11.726  0.00  0.00     0.163 HD
ATOM     92  H65 LEU d   1       4.668  24.802  11.024  0.00  0.00     0.087 H 
ATOM     93  N   TYR d   1       4.238  28.060   7.686  0.00  0.00    -0.346 N 
ATOM     94  CA  TYR d   1       4.083  27.382   6.394  0.00  0.00     0.093 C 
ATOM     95  C   TYR d   1       3.152  26.157   6.490  0.00  0.00     0.241 C 
ATOM     96  O   TYR d   1       2.287  25.955   5.615  0.00  0.00    -0.271 OA
ATOM     97  H79 TYR d   1       5.147  28.243   8.061  0.00  0.00     0.163 HD
ATOM     98  H80 TYR d   1       3.625  28.104   5.702  0.00  0.00     0.088 H 
ATOM     99  N   TRP d   1       3.306  25.367   7.540  0.00  0.00    -0.346 N 
ATOM    100  CA  TRP d   1       2.568  24.138   7.649  0.00  0.00     0.093 C 
ATOM    101  C   TRP d   1       1.068  24.446   7.901  0.00  0.00     0.241 C 
ATOM    102  O   TRP d   1       0.189  23.744   7.444  0.00  0.00    -0.271 OA
ATOM    103  H88 TRP d   1       3.943  25.628   8.266  0.00  0.00     0.163 HD
ATOM    104  H89 TRP d   1       2.652  23.586   6.701  0.00  0.00     0.088 H 
ATOM    105  N   ARG d   1       0.802  25.506   8.662  0.00  0.00    -0.346 N 
ATOM    106  CA  ARG d   1      -0.591  25.933   8.881  0.00  0.00     0.089 C 
ATOM    107  C   ARG d   1      -1.214  26.408   7.566  0.00  0.00     0.241 C 
ATOM    108  O   ARG d   1      -2.356  26.111   7.264  0.00  0.00    -0.271 OA
ATOM    109  H98 ARG d   1       1.551  26.014   9.087  0.00  0.00     0.163 HD
ATOM    110  H99 ARG d   1      -1.169  25.078   9.261  0.00  0.00     0.087 H 
ENDROOT
BRANCH  19 111
ATOM    111  C   CYS d   1      -1.212  26.651   4.536  0.00  0.00     0.241 C 
ATOM    112  O   CYS d   1      -2.158  26.779   3.755  0.00  0.00    -0.271 OA
ATOM    113  N   LEU d   1      -0.459  25.553   4.592  0.00  0.00    -0.346 N 
ATOM    114 5H11 LEU d   1       0.309  25.533   5.232  0.00  0.00     0.163 HD
BRANCH 113 115
ATOM    115  CA  LEU d   1      -0.709  24.361   3.748  0.00  0.00     0.089 C 
ATOM    116 6H11 LEU d   1      -0.561  24.617   2.688  0.00  0.00     0.087 H 
BRANCH 115 117
ATOM    117  C   LEU d   1      -2.121  23.825   3.941  0.00  0.00     0.241 C 
ATOM    118  O   LEU d   1      -2.733  23.356   3.016  0.00  0.00    -0.271 OA
ATOM    119  N   GLN d   1      -2.652  23.972   5.149  0.00  0.00    -0.346 N 
ATOM    120 6H12 GLN d   1      -2.155  24.516   5.825  0.00  0.00     0.163 HD
BRANCH 119 121
ATOM    121  CA  GLN d   1      -3.928  23.376   5.535  0.00  0.00     0.090 C 
ATOM    122 7H12 GLN d   1      -4.084  22.469   4.932  0.00  0.00     0.087 H 
BRANCH 121 123
ATOM    123  C   GLN d   1      -5.139  24.257   5.389  0.00  0.00     0.241 C 
ATOM    124  O   GLN d   1      -6.275  23.795   5.483  0.00  0.00    -0.271 OA
ATOM    125  N   HIA d   1      -4.932  25.615   4.766  0.00  0.00    -0.346 N 
ATOM    126 4H13 HIA d   1      -4.020  25.930   4.503  0.00  0.00     0.163 HD
BRANCH 125 127
ATOM    127  CA  HIA d   1      -6.105  26.451   4.560  0.00  0.00     0.094 C 
ATOM    128 5H13 HIA d   1      -6.814  26.346   5.395  0.00  0.00     0.088 H 
BRANCH 127 129
ATOM    129  CB  HIA d   1      -5.505  27.846   4.552  0.00  0.00     0.004 C 
ATOM    130 6H13 HIA d   1      -6.242  28.547   4.134  0.00  0.00     0.046 H 
ATOM    131 7H13 HIA d   1      -4.604  27.841   3.921  0.00  0.00     0.046 H 
BRANCH 129 132
ATOM    132  CG  HIA d   1      -5.123  28.312   5.945  0.00  0.00     0.053 A 
ATOM    133  ND1 HIA d   1      -4.274  29.344   6.217  0.00  0.00    -0.247 NA
ATOM    134  CE1 HIA d   1      -4.161  29.516   7.555  0.00  0.00     0.064 A 
ATOM    135  NE2 HIA d   1      -4.967  28.606   8.133  0.00  0.00    -0.359 N 
ATOM    136 9H13 HIA d   1      -3.538  30.249   8.065  0.00  0.00     0.143 H 
ATOM    137  CD2 HIA d   1      -5.568  27.852   7.181  0.00  0.00     0.002 A 
ATOM    138 0H14 HIA d   1      -5.106  28.499   9.148  0.00  0.00     0.166 HD
ATOM    139 8H13 HIA d   1      -6.270  27.037   7.351  0.00  0.00     0.114 H 
ENDBRANCH 129 132
ENDBRANCH 127 129
BRANCH 127 140
ATOM    140  C   HIA d   1      -6.817  26.078   3.271  0.00  0.00     0.238 C 
ATOM    141  O   HIA d   1      -6.260  25.487   2.339  0.00  0.00    -0.271 OA
ATOM    142  NXT HIA d   1      -8.008  26.388   3.164  0.00  0.00    -0.368 N 
ATOM    143 1H14 HIA d   1      -8.511  26.160   2.330  0.00  0.00     0.159 HD
ATOM    144 2H14 HIA d   1      -8.469  26.867   3.911  0.00  0.00     0.159 HD
ENDBRANCH 127 140
ENDBRANCH 125 127
ENDBRANCH 121 123
BRANCH 121 145
ATOM    145  CB  GLN d   1      -3.817  23.018   7.000  0.00  0.00    -0.030 C 
ATOM    146 8H12 GLN d   1      -4.802  22.690   7.363  0.00  0.00     0.037 H 
ATOM    147 9H12 GLN d   1      -3.496  23.907   7.562  0.00  0.00     0.037 H 
BRANCH 145 148
ATOM    148  CG  GLN d   1      -2.822  21.914   7.224  0.00  0.00     0.011 C 
ATOM    149 0H13 GLN d   1      -1.844  22.221   6.824  0.00  0.00     0.047 H 
ATOM    150 1H13 GLN d   1      -3.164  21.007   6.703  0.00  0.00     0.047 H 
BRANCH 148 151
ATOM    151  CD  GLN d   1      -2.686  21.621   8.688  0.00  0.00     0.215 C 
ATOM    152  OE1 GLN d   1      -3.637  21.134   9.336  0.00  0.00    -0.274 OA
ATOM    153  NE2 GLN d   1      -1.504  21.887   9.239  0.00  0.00    -0.370 N 
ATOM    154 2H13 GLN d   1      -1.355  21.712  10.212  0.00  0.00     0.159 HD
ATOM    155 3H13 GLN d   1      -0.765  22.262   8.680  0.00  0.00     0.159 HD
ENDBRANCH 148 151
ENDBRANCH 145 148
ENDBRANCH 121 145
ENDBRANCH 119 121
ENDBRANCH 115 117
BRANCH 115 156
ATOM    156  CB  LEU d   1       0.327  23.279   4.191  0.00  0.00    -0.035 C 
ATOM    157 7H11 LEU d   1       0.422  23.341   5.285  0.00  0.00     0.037 H 
ATOM    158 8H11 LEU d   1       1.290  23.532   3.724  0.00  0.00     0.037 H 
BRANCH 156 159
ATOM    159  CG  LEU d   1       0.012  21.821   3.837  0.00  0.00    -0.059 C 
ATOM    160 9H11 LEU d   1      -1.020  21.607   4.153  0.00  0.00     0.038 H 
BRANCH 159 161
ATOM    161  CD1 LEU d   1       0.099  21.562   2.323  0.00  0.00    -0.073 C 
ATOM    162 0H12 LEU d   1      -0.134  20.507   2.118  0.00  0.00     0.028 H 
ATOM    163 1H12 LEU d   1       1.116  21.788   1.970  0.00  0.00     0.028 H 
ATOM    164 2H12 LEU d   1      -0.623  22.206   1.799  0.00  0.00     0.028 H 
ENDBRANCH 159 161
BRANCH 159 165
ATOM    165  CD2 LEU d   1       0.944  20.910   4.612  0.00  0.00    -0.073 C 
ATOM    166 3H12 LEU d   1       0.855  21.123   5.687  0.00  0.00     0.028 H 
ATOM    167 4H12 LEU d   1       1.981  21.085   4.288  0.00  0.00     0.028 H 
ATOM    168 5H12 LEU d   1       0.673  19.861   4.423  0.00  0.00     0.028 H 
ENDBRANCH 159 165
ENDBRANCH 156 159
ENDBRANCH 115 156
ENDBRANCH 113 115
ENDBRANCH  19 111
BRANCH 106 169
ATOM    169  CB  ARG d   1      -0.638  27.070   9.921  0.00  0.00    -0.036 C 
ATOM    170 0H10 ARG d   1      -0.048  27.908   9.521  0.00  0.00     0.036 H 
ATOM    171 1H10 ARG d   1      -0.166  26.695  10.841  0.00  0.00     0.036 H 
BRANCH 169 172
ATOM    172  CG  ARG d   1      -2.004  27.615  10.300  0.00  0.00    -0.048 C 
ATOM    173 2H10 ARG d   1      -2.699  26.779  10.470  0.00  0.00     0.035 H 
ATOM    174 3H10 ARG d   1      -2.385  28.250   9.486  0.00  0.00     0.035 H 
BRANCH 172 175
ATOM    175  CD  ARG d   1      -1.875  28.472  11.623  0.00  0.00     0.009 C 
ATOM    176 4H10 ARG d   1      -0.896  28.973  11.615  0.00  0.00     0.064 H 
ATOM    177 5H10 ARG d   1      -1.930  27.788  12.483  0.00  0.00     0.064 H 
BRANCH 175 178
ATOM    178  NE  ARG d   1      -2.913  29.496  11.783  0.00  0.00    -0.227 N 
ATOM    179  CZ  ARG d   1      -2.810  30.544  12.604  0.00  0.00     0.665 C 
ATOM    180  NH1 ARG d   1      -1.723  30.698  13.368  0.00  0.00    -0.235 N 
ATOM    181  NH2 ARG d   1      -3.793  31.437  12.671  0.00  0.00    -0.235 N 
ATOM    182 7H10 ARG d   1      -1.648  31.508  14.000  0.00  0.00     0.174 HD
ATOM    183 8H10 ARG d   1      -0.961  30.006  13.325  0.00  0.00     0.174 HD
ATOM    184 9H10 ARG d   1      -4.633  31.324  12.085  0.00  0.00     0.174 HD
ATOM    185 0H11 ARG d   1      -3.715  32.242  13.309  0.00  0.00     0.174 HD
ATOM    186 6H10 ARG d   1      -3.775  29.401  11.227  0.00  0.00     0.177 HD
ENDBRANCH 175 178
ENDBRANCH 172 175
ENDBRANCH 169 172
ENDBRANCH 106 169
BRANCH 100 187
ATOM    187  CB  TRP d   1       3.195  23.265   8.788  0.00  0.00    -0.012 C 
ATOM    188  H90 TRP d   1       2.944  23.723   9.756  0.00  0.00     0.044 H 
ATOM    189  H91 TRP d   1       4.287  23.256   8.659  0.00  0.00     0.044 H 
BRANCH 187 190
ATOM    190  CG  TRP d   1       2.717  21.882   8.792  0.00  0.00    -0.028 A 
ATOM    191  CD1 TRP d   1       1.785  21.334   9.628  0.00  0.00    -0.015 A 
ATOM    192  NE1 TRP d   1       1.567  20.015   9.279  0.00  0.00    -0.365 N 
ATOM    193  H92 TRP d   1       1.290  21.857  10.445  0.00  0.00     0.112 H 
ATOM    194  CE2 TRP d   1       2.378  19.698   8.226  0.00  0.00     0.042 A 
ATOM    195  H93 TRP d   1       0.902  19.376   9.737  0.00  0.00     0.165 HD
ATOM    196  CD2 TRP d   1       3.134  20.852   7.908  0.00  0.00    -0.002 A 
ATOM    197  CZ2 TRP d   1       2.518  18.486   7.530  0.00  0.00    -0.056 A 
ATOM    198  CE3 TRP d   1       4.049  20.812   6.840  0.00  0.00    -0.070 A 
ATOM    199  CZ3 TRP d   1       4.187  19.601   6.129  0.00  0.00    -0.082 A 
ATOM    200  H94 TRP d   1       4.631  21.686   6.571  0.00  0.00     0.084 H 
ATOM    201  CH2 TRP d   1       3.451  18.440   6.524  0.00  0.00    -0.081 A 
ATOM    202  H96 TRP d   1       4.856  19.550   5.277  0.00  0.00     0.083 H 
ATOM    203  H97 TRP d   1       3.635  17.500   6.016  0.00  0.00     0.083 H 
ATOM    204  H95 TRP d   1       1.913  17.621   7.777  0.00  0.00     0.086 H 
ENDBRANCH 187 190
ENDBRANCH 100 187
BRANCH  38 205
ATOM    205  CB  ASN d   1       1.489  36.834   7.420  0.00  0.00     0.036 C 
ATOM    206  H9  ASN d   1       2.566  36.620   7.484  0.00  0.00     0.051 H 
ATOM    207  H10 ASN d   1       1.192  37.477   8.261  0.00  0.00     0.051 H 
BRANCH 205 208
ATOM    208  CG  ASN d   1       1.211  37.573   6.113  0.00  0.00     0.217 C 
ATOM    209  OD1 ASN d   1       0.341  37.182   5.341  0.00  0.00    -0.274 OA
ATOM    210  ND2 ASN d   1       1.938  38.650   5.881  0.00  0.00    -0.370 N 
ATOM    211  H11 ASN d   1       1.800  39.175   5.041  0.00  0.00     0.159 HD
ATOM    212  H12 ASN d   1       2.627  38.941   6.545  0.00  0.00     0.159 HD
ENDBRANCH 205 208
ENDBRANCH  38 205
BRANCH  44 213
ATOM    213  CB  LYS d   1       1.119  37.246   2.025  0.00  0.00    -0.038 C 
ATOM    214  H19 LYS d   1       1.833  37.815   1.411  0.00  0.00     0.036 H 
ATOM    215  H20 LYS d   1       1.004  37.736   3.003  0.00  0.00     0.036 H 
BRANCH 213 216
ATOM    216  CG  LYS d   1      -0.219  37.233   1.328  0.00  0.00    -0.061 C 
ATOM    217  H21 LYS d   1      -0.999  36.942   2.047  0.00  0.00     0.033 H 
ATOM    218  H22 LYS d   1      -0.191  36.506   0.503  0.00  0.00     0.033 H 
BRANCH 216 219
ATOM    219  CD  LYS d   1      -0.539  38.607   0.772  0.00  0.00    -0.043 C 
ATOM    220  H23 LYS d   1       0.256  38.902   0.072  0.00  0.00     0.035 H 
ATOM    221  H24 LYS d   1      -0.581  39.326   1.603  0.00  0.00     0.035 H 
BRANCH 219 222
ATOM    222  CE  LYS d   1      -1.878  38.624   0.035  0.00  0.00     0.080 C 
ATOM    223  H25 LYS d   1      -2.682  38.425   0.758  0.00  0.00     0.075 H 
ATOM    224  H26 LYS d   1      -1.870  37.835  -0.731  0.00  0.00     0.075 H 
BRANCH 222 225
ATOM    225  NZ  LYS d   1      -2.142  39.929  -0.626  0.00  0.00    -0.079 N 
ATOM    226  H27 LYS d   1      -3.032  39.893  -1.097  0.00  0.00     0.274 HD
ATOM    227  H28 LYS d   1      -1.414  40.119  -1.297  0.00  0.00     0.274 HD
ATOM    228  H29 LYS d   1      -2.159  40.660   0.068  0.00  0.00     0.274 HD
ENDBRANCH 222 225
ENDBRANCH 219 222
ENDBRANCH 216 219
ENDBRANCH 213 216
ENDBRANCH  44 213
BRANCH  94 229
ATOM    229  CB  TYR d   1       5.417  26.936   5.790  0.00  0.00    -0.014 C 
ATOM    230  H81 TYR d   1       5.207  26.199   5.001  0.00  0.00     0.043 H 
ATOM    231  H82 TYR d   1       6.012  26.462   6.585  0.00  0.00     0.043 H 
BRANCH 229 232
ATOM    232  CG  TYR d   1       6.241  28.052   5.186  0.00  0.00    -0.056 A 
ATOM    233  CD1 TYR d   1       7.394  28.542   5.814  0.00  0.00    -0.074 A 
ATOM    234  CE1 TYR d   1       8.136  29.558   5.228  0.00  0.00    -0.051 A 
ATOM    235  H83 TYR d   1       7.708  28.125   6.764  0.00  0.00     0.084 H 
ATOM    236  CZ  TYR d   1       7.722  30.113   4.012  0.00  0.00     0.065 A 
ATOM    237  H85 TYR d   1       9.035  29.921   5.712  0.00  0.00     0.087 H 
ATOM    238  CE2 TYR d   1       6.598  29.635   3.381  0.00  0.00    -0.051 A 
ATOM    239  CD2 TYR d   1       5.866  28.617   3.961  0.00  0.00    -0.074 A 
ATOM    240  H86 TYR d   1       6.287  30.055   2.432  0.00  0.00     0.087 H 
ATOM    241  H84 TYR d   1       4.981  28.247   3.456  0.00  0.00     0.084 H 
BRANCH 236 242
ATOM    242  OH  TYR d   1       8.449  31.122   3.391  0.00  0.00    -0.361 OA
ATOM    243  H87 TYR d   1       9.194  31.354   3.933  0.00  0.00     0.217 HD
ENDBRANCH 236 242
ENDBRANCH 229 232
ENDBRANCH  94 229
BRANCH   1 244
ATOM    244  N   CYS d   1       0.363  34.350  12.033  0.00  0.00    -0.066 N 
ATOM    245  H1  CYS d   1       0.785  33.920  12.841  0.00  0.00     0.275 HD
ATOM    246  H2  CYS d   1      -0.641  34.309  12.117  0.00  0.00     0.275 HD
ATOM    247  H3  CYS d   1       0.656  35.312  11.973  0.00  0.00     0.275 HD
ENDBRANCH   1 244
BRANCH  50 248
ATOM    248  CB  ALA d   1       5.416  37.191   4.348  0.00  0.00    -0.049 C 
ATOM    249  H32 ALA d   1       6.478  37.220   4.635  0.00  0.00     0.030 H 
ATOM    250  H33 ALA d   1       4.810  37.661   5.137  0.00  0.00     0.030 H 
ATOM    251  H34 ALA d   1       5.276  37.738   3.404  0.00  0.00     0.030 H 
ENDBRANCH  50 248
BRANCH  88 252
ATOM    252  CB  LEU d   1       4.666  25.633  12.990  0.00  0.00    -0.035 C 
ATOM    253  H66 LEU d   1       3.590  25.671  13.214  0.00  0.00     0.037 H 
ATOM    254  H67 LEU d   1       5.174  26.471  13.490  0.00  0.00     0.037 H 
BRANCH 252 255
ATOM    255  CG  LEU d   1       5.240  24.297  13.565  0.00  0.00    -0.059 C 
ATOM    256  H68 LEU d   1       6.294  24.218  13.260  0.00  0.00     0.038 H 
BRANCH 255 257
ATOM    257  CD1 LEU d   1       5.175  24.337  15.044  0.00  0.00    -0.073 C 
ATOM    258  H69 LEU d   1       5.578  23.399  15.454  0.00  0.00     0.028 H 
ATOM    259  H70 LEU d   1       4.129  24.457  15.362  0.00  0.00     0.028 H 
ATOM    260  H71 LEU d   1       5.770  25.185  15.414  0.00  0.00     0.028 H 
ENDBRANCH 255 257
BRANCH 255 261
ATOM    261  CD2 LEU d   1       4.511  23.074  13.049  0.00  0.00    -0.073 C 
ATOM    262  H72 LEU d   1       4.564  23.052  11.950  0.00  0.00     0.028 H 
ATOM    263  H73 LEU d   1       3.458  23.114  13.364  0.00  0.00     0.028 H 
ATOM    264  H74 LEU d   1       4.981  22.167  13.457  0.00  0.00     0.028 H 
ENDBRANCH 255 261
ENDBRANCH 252 255
ENDBRANCH  88 252
BRANCH  70 265
ATOM    265  CB  GLU d   1       9.084  34.226   9.168  0.00  0.00    -0.029 C 
ATOM    266  H44 GLU d   1       8.526  34.067  10.102  0.00  0.00     0.037 H 
ATOM    267  H45 GLU d   1       8.749  35.161   8.695  0.00  0.00     0.037 H 
BRANCH 265 268
ATOM    268  CG  GLU d   1      10.530  34.358   9.500  0.00  0.00     0.018 C 
ATOM    269  H46 GLU d   1      10.832  33.512  10.135  0.00  0.00     0.049 H 
ATOM    270  H47 GLU d   1      10.690  35.300  10.044  0.00  0.00     0.049 H 
BRANCH 268 271
ATOM    271  CD  GLU d   1      11.369  34.362   8.256  0.00  0.00     0.172 C 
ATOM    272  OE1 GLU d   1      12.357  33.594   8.206  0.00  0.00    -0.648 OA
ATOM    273  OE2 GLU d   1      11.001  35.097   7.311  0.00  0.00    -0.648 OA
ENDBRANCH 268 271
ENDBRANCH 265 268
ENDBRANCH  70 265
BRANCH  82 274
ATOM    274  CB  PHE d   1       8.929  25.026   9.882  0.00  0.00    -0.014 C 
ATOM    275  H57 PHE d   1       9.112  25.153  10.959  0.00  0.00     0.043 H 
ATOM    276  H58 PHE d   1       9.889  25.016   9.345  0.00  0.00     0.043 H 
BRANCH 274 277
ATOM    277  CG  PHE d   1       8.248  23.746   9.663  0.00  0.00    -0.056 A 
ATOM    278  CD1 PHE d   1       8.173  23.229   8.376  0.00  0.00    -0.077 A 
ATOM    279  CE1 PHE d   1       7.460  22.039   8.145  0.00  0.00    -0.082 A 
ATOM    280  H59 PHE d   1       8.661  23.740   7.554  0.00  0.00     0.084 H 
ATOM    281  CZ  PHE d   1       6.807  21.380   9.247  0.00  0.00    -0.083 A 
ATOM    282  H61 PHE d   1       7.402  21.621   7.146  0.00  0.00     0.083 H 
ATOM    283  CE2 PHE d   1       6.902  21.907  10.526  0.00  0.00    -0.082 A 
ATOM    284  H63 PHE d   1       6.241  20.471   9.076  0.00  0.00     0.083 H 
ATOM    285  CD2 PHE d   1       7.594  23.087  10.716  0.00  0.00    -0.077 A 
ATOM    286  H62 PHE d   1       6.440  21.400  11.365  0.00  0.00     0.083 H 
ATOM    287  H60 PHE d   1       7.633  23.518  11.710  0.00  0.00     0.084 H 
ENDBRANCH 274 277
ENDBRANCH  82 274
BRANCH  76 288
ATOM    288  CB  THR d   1       7.928  29.951  11.715  0.00  0.00     0.060 C 
ATOM    289  H50 THR d   1       8.211  29.034  12.253  0.00  0.00     0.086 H 
BRANCH 288 290
ATOM    290  OG1 THR d   1       6.491  30.077  11.713  0.00  0.00    -0.393 OA
ATOM    291  H51 THR d   1       6.109  29.322  11.282  0.00  0.00     0.210 HD
ENDBRANCH 288 290
BRANCH 288 292
ATOM    292  CG2 THR d   1       8.507  31.135  12.417  0.00  0.00    -0.050 C 
ATOM    293  H52 THR d   1       8.114  31.181  13.443  0.00  0.00     0.031 H 
ATOM    294  H53 THR d   1       8.231  32.053  11.877  0.00  0.00     0.031 H 
ATOM    295  H54 THR d   1       9.603  31.043  12.448  0.00  0.00     0.031 H 
ENDBRANCH 288 292
ENDBRANCH  76 288
TORSDOF 46
