REMARK  14 active torsions:
REMARK  status: ('A' for Active; 'I' for Inactive)
REMARK       I    between atoms: N6_20  and  C4_1 
REMARK    1  A    between atoms: C4_1  and  C3_22 
REMARK    2  A    between atoms: C7_2  and  C17_6 
REMARK    3  A    between atoms: C31_19  and  C7_2 
REMARK    4  A    between atoms: C7_2  and  O18_23 
REMARK    5  A    between atoms: C8_3  and  C9_18 
REMARK    6  A    between atoms: C31_19  and  C8_3 
REMARK    7  A    between atoms: C17_6  and  N19_24 
REMARK    8  A    between atoms: C20_7  and  C24_10 
REMARK    9  A    between atoms: N19_24  and  C20_7 
REMARK   10  A    between atoms: C31_19  and  N6_20 
REMARK   11  A    between atoms: C27_29  and  C29_31 
REMARK   12  A    between atoms: C29_31  and  C30_32 
REMARK   13  A    between atoms: C29_31  and  C2_33 
REMARK   14  A    between atoms: C29_31  and  C1_34 
ROOT
ATOM      1  C20 1LI d   1      18.823  -4.449  18.019  0.00  0.00     0.152 C 
ATOM      2  C21 1LI d   1      18.363  -3.159  18.712  0.00  0.00    -0.030 C 
ATOM      3  C22 1LI d   1      19.399  -2.506  19.635  0.00  0.00    -0.062 C 
ATOM      4  C34 1LI d   1      20.778  -2.390  18.988  0.00  0.00    -0.065 C 
ATOM      5  C33 1LI d   1      21.215  -3.733  18.419  0.00  0.00    -0.062 C 
ATOM      6  C32 1LI d   1      20.193  -4.210  17.392  0.00  0.00    -0.030 C 
ATOM      7  H7  1LI d   1      17.473  -3.395  19.314  0.00  0.00     0.037 H 
ATOM      8  H8  1LI d   1      18.096  -2.431  17.932  0.00  0.00     0.037 H 
ATOM      9  H9  1LI d   1      19.489  -3.113  20.548  0.00  0.00     0.033 H 
ATOM     10  H10 1LI d   1      19.049  -1.497  19.899  0.00  0.00     0.033 H 
ATOM     11  H23 1LI d   1      21.506  -2.063  19.745  0.00  0.00     0.033 H 
ATOM     12  H24 1LI d   1      20.736  -1.649  18.176  0.00  0.00     0.033 H 
ATOM     13  H25 1LI d   1      21.287  -4.470  19.233  0.00  0.00     0.033 H 
ATOM     14  H26 1LI d   1      22.197  -3.624  17.935  0.00  0.00     0.033 H 
ATOM     15  H27 1LI d   1      20.096  -3.446  16.606  0.00  0.00     0.037 H 
ATOM     16  H28 1LI d   1      20.549  -5.151  16.947  0.00  0.00     0.037 H 
ENDROOT
BRANCH   1  17
ATOM     17  C24 1LI d   1      18.869  -5.694  18.893  0.00  0.00    -0.022 A 
ATOM     18  C28 1LI d   1      19.347  -6.889  18.355  0.00  0.00    -0.068 A 
ATOM     19  C27 1LI d   1      19.411  -8.075  19.109  0.00  0.00    -0.050 A 
ATOM     20  H12 1LI d   1      19.680  -6.904  17.323  0.00  0.00     0.085 H 
ATOM     21  C26 1LI d   1      18.956  -8.043  20.434  0.00  0.00    -0.076 A 
ATOM     22  C25 1LI d   1      18.481  -6.870  20.981  0.00  0.00    -0.082 A 
ATOM     23  H11 1LI d   1      18.978  -8.946  21.033  0.00  0.00     0.084 H 
ATOM     24  C23 1LI d   1      18.433  -5.700  20.219  0.00  0.00    -0.074 A 
ATOM     25  H30 1LI d   1      18.142  -6.855  22.011  0.00  0.00     0.083 H 
ATOM     26  H29 1LI d   1      18.053  -4.787  20.662  0.00  0.00     0.084 H 
BRANCH  19  27
ATOM     27  C29 1LI d   1      19.921  -9.356  18.480  0.00  0.00    -0.024 C 
BRANCH  27  28
ATOM     28  C30 1LI d   1      21.073  -9.079  17.515  0.00  0.00    -0.066 C 
ATOM     29  H31 1LI d   1      21.420 -10.026  17.076  0.00  0.00     0.028 H 
ATOM     30  H32 1LI d   1      21.901  -8.602  18.060  0.00  0.00     0.028 H 
ATOM     31  H33 1LI d   1      20.727  -8.409  16.714  0.00  0.00     0.028 H 
ENDBRANCH  27  28
BRANCH  27  32
ATOM     32  C2  1LI d   1      20.457 -10.341  19.522  0.00  0.00    -0.066 C 
ATOM     33  H34 1LI d   1      19.663 -10.576  20.246  0.00  0.00     0.028 H 
ATOM     34  H35 1LI d   1      21.311  -9.890  20.048  0.00  0.00     0.028 H 
ATOM     35  H36 1LI d   1      20.781 -11.265  19.021  0.00  0.00     0.028 H 
ENDBRANCH  27  32
BRANCH  27  36
ATOM     36  C1  1LI d   1      18.759  -9.985  17.715  0.00  0.00    -0.066 C 
ATOM     37  H37 1LI d   1      18.381  -9.270  16.969  0.00  0.00     0.028 H 
ATOM     38  H38 1LI d   1      17.953 -10.242  18.418  0.00  0.00     0.028 H 
ATOM     39  H39 1LI d   1      19.106 -10.897  17.206  0.00  0.00     0.028 H 
ENDBRANCH  27  36
ENDBRANCH  19  27
ENDBRANCH   1  17
BRANCH   1  40
ATOM     40  N19 1LI d   1      17.876  -4.710  16.928  0.00  0.00    -0.060 N 
ATOM     41  H21 1LI d   1      18.022  -3.982  16.246  0.00  0.00     0.278 HD
ATOM     42  H22 1LI d   1      18.139  -5.599  16.532  0.00  0.00     0.278 HD
BRANCH  40  43
ATOM     43  C17 1LI d   1      16.440  -4.773  17.158  0.00  0.00     0.108 C 
ATOM     44  H5  1LI d   1      16.261  -5.285  18.115  0.00  0.00     0.079 H 
ATOM     45  H6  1LI d   1      16.049  -3.746  17.212  0.00  0.00     0.079 H 
BRANCH  43  46
ATOM     46  C7  1LI d   1      15.683  -5.528  16.049  0.00  0.00     0.078 C 
ATOM     47  H1  1LI d   1      15.604  -4.873  15.168  0.00  0.00     0.088 H 
BRANCH  46  48
ATOM     48  C31 1LI d   1      14.269  -5.903  16.506  0.00  0.00     0.042 C 
ATOM     49  H15 1LI d   1      14.357  -6.620  17.336  0.00  0.00     0.077 H 
BRANCH  48  50
ATOM     50  C8  1LI d   1      13.422  -6.545  15.407  0.00  0.00    -0.020 C 
ATOM     51  H2  1LI d   1      13.417  -5.894  14.520  0.00  0.00     0.043 H 
ATOM     52  H3  1LI d   1      13.847  -7.524  15.141  0.00  0.00     0.043 H 
BRANCH  50  53
ATOM     53  C9  1LI d   1      11.999  -6.729  15.910  0.00  0.00    -0.050 A 
ATOM     54  C10 1LI d   1      10.931  -6.091  15.282  0.00  0.00    -0.039 A 
ATOM     55  C11 1LI d   1       9.632  -6.258  15.755  0.00  0.00     0.119 A 
ATOM     56  H4  1LI d   1      11.113  -5.460  14.419  0.00  0.00     0.089 H 
ATOM     57  C12 1LI d   1       9.391  -7.044  16.875  0.00  0.00    -0.009 A 
ATOM     58  F15 1LI d   1       8.607  -5.623  15.151  0.00  0.00    -0.206 F 
ATOM     59  C13 1LI d   1      10.451  -7.679  17.507  0.00  0.00     0.119 A 
ATOM     60  H14 1LI d   1       8.382  -7.160  17.253  0.00  0.00     0.092 H 
ATOM     61  F16 1LI d   1      10.228  -8.438  18.582  0.00  0.00    -0.206 F 
ATOM     62  C14 1LI d   1      11.751  -7.527  17.026  0.00  0.00    -0.039 A 
ATOM     63  H13 1LI d   1      12.572  -8.031  17.522  0.00  0.00     0.089 H 
ENDBRANCH  50  53
ENDBRANCH  48  50
BRANCH  48  64
ATOM     64  N6  1LI d   1      13.585  -4.705  16.981  0.00  0.00    -0.354 N 
ATOM     65  C4  1LI d   1      13.208  -4.536  18.252  0.00  0.00     0.214 C 
ATOM     66  O5  1LI d   1      13.477  -5.338  19.116  0.00  0.00    -0.274 OA
ATOM     67  H16 1LI d   1      13.389  -3.976  16.325  0.00  0.00     0.162 HD
BRANCH  65  68
ATOM     68  C3  1LI d   1      12.431  -3.293  18.571  0.00  0.00    -0.003 C 
ATOM     69  H17 1LI d   1      12.186  -3.279  19.643  0.00  0.00     0.040 H 
ATOM     70  H18 1LI d   1      11.502  -3.280  17.982  0.00  0.00     0.040 H 
ATOM     71  H19 1LI d   1      13.036  -2.409  18.321  0.00  0.00     0.040 H 
ENDBRANCH  65  68
ENDBRANCH  48  64
ENDBRANCH  46  48
BRANCH  46  72
ATOM     72  O18 1LI d   1      16.400  -6.691  15.690  0.00  0.00    -0.392 OA
ATOM     73  H20 1LI d   1      15.949  -7.133  14.981  0.00  0.00     0.210 HD
ENDBRANCH  46  72
ENDBRANCH  43  46
ENDBRANCH  40  43
ENDBRANCH   1  40
TORSDOF 14
