REMARK  14 active torsions:
REMARK  status: ('A' for Active; 'I' for Inactive)
REMARK    1  A    between atoms: C6_3  and  C7_4 
REMARK    2  A    between atoms: N17_26  and  C6_3 
REMARK    3  A    between atoms: C13_7  and  C15_8 
REMARK    4  A    between atoms: C11_34  and  C13_7 
REMARK    5  A    between atoms: C13_7  and  C16_36 
REMARK    6  A    between atoms: C13_7  and  C14_37 
REMARK    7  A    between atoms: C20_9  and  C26_11 
REMARK    8  A    between atoms: C20_9  and  N21_20 
REMARK    9  A    between atoms: C19_23  and  C20_9 
REMARK       I    between atoms: N21_20  and  C22_10 
REMARK   10  A    between atoms: C22_10  and  C23_21 
REMARK   11  A    between atoms: C26_11  and  C27_19 
REMARK   12  A    between atoms: C19_23  and  O24_24 
REMARK   13  A    between atoms: C18_25  and  C19_23 
REMARK   14  A    between atoms: C18_25  and  N17_26 
ROOT
ATOM      1  C4  2LI d   1      15.535   0.280  49.185  0.00  0.00    -0.012 A 
ATOM      2  C5  2LI d   1      14.188  -0.268  48.813  0.00  0.00    -0.002 C 
ATOM      3  C6  2LI d   1      14.300  -1.756  48.519  0.00  0.00     0.157 C 
ATOM      4  C35 2LI d   1      15.815   1.474  49.793  0.00  0.00     0.030 A 
ATOM      5  C3  2LI d   1      16.819  -0.391  48.917  0.00  0.00     0.035 A 
ATOM      6  N37 2LI d   1      17.821   0.396  49.370  0.00  0.00    -0.282 N 
ATOM      7  N36 2LI d   1      17.151   1.524  49.887  0.00  0.00    -0.186 NA
ATOM      8  C2  2LI d   1      16.873  -1.725  48.252  0.00  0.00    -0.022 C 
ATOM      9  C1  2LI d   1      15.510  -2.006  47.618  0.00  0.00    -0.024 C 
ATOM     10  H1  2LI d   1      13.816   0.254  47.919  0.00  0.00     0.044 H 
ATOM     11  H2  2LI d   1      13.488  -0.112  49.647  0.00  0.00     0.044 H 
ATOM     12  H24 2LI d   1      15.102   2.225  50.130  0.00  0.00     0.118 H 
ATOM     13  H25 2LI d   1      18.834   0.214  49.344  0.00  0.00     0.189 HD
ATOM     14  H26 2LI d   1      17.103  -2.502  48.996  0.00  0.00     0.042 H 
ATOM     15  H27 2LI d   1      17.650  -1.721  47.474  0.00  0.00     0.042 H 
ATOM     16  H28 2LI d   1      15.410  -1.363  46.731  0.00  0.00     0.037 H 
ATOM     17  H29 2LI d   1      15.491  -3.062  47.310  0.00  0.00     0.037 H 
ENDROOT
BRANCH   3  18
ATOM     18  C7  2LI d   1      14.420  -2.588  49.806  0.00  0.00    -0.022 A 
ATOM     19  C8  2LI d   1      14.467  -2.018  51.089  0.00  0.00    -0.074 A 
ATOM     20  C9  2LI d   1      14.590  -2.805  52.235  0.00  0.00    -0.082 A 
ATOM     21  H3  2LI d   1      14.406  -0.941  51.191  0.00  0.00     0.084 H 
ATOM     22  C10 2LI d   1      14.689  -4.183  52.133  0.00  0.00    -0.076 A 
ATOM     23  H30 2LI d   1      14.608  -2.335  53.212  0.00  0.00     0.083 H 
ATOM     24  C11 2LI d   1      14.643  -4.789  50.866  0.00  0.00    -0.050 A 
ATOM     25  H4  2LI d   1      14.801  -4.790  53.024  0.00  0.00     0.084 H 
ATOM     26  C12 2LI d   1      14.511  -3.975  49.723  0.00  0.00    -0.068 A 
ATOM     27  H31 2LI d   1      14.479  -4.444  48.746  0.00  0.00     0.085 H 
BRANCH  24  28
ATOM     28  C13 2LI d   1      14.749  -6.292  50.709  0.00  0.00    -0.024 C 
BRANCH  28  29
ATOM     29  C15 2LI d   1      15.179  -6.949  52.024  0.00  0.00    -0.066 C 
ATOM     30  H5  2LI d   1      15.249  -8.038  51.884  0.00  0.00     0.028 H 
ATOM     31  H6  2LI d   1      14.437  -6.726  52.805  0.00  0.00     0.028 H 
ATOM     32  H7  2LI d   1      16.160  -6.555  52.327  0.00  0.00     0.028 H 
ENDBRANCH  28  29
BRANCH  28  33
ATOM     33  C16 2LI d   1      15.782  -6.624  49.651  0.00  0.00    -0.066 C 
ATOM     34  H32 2LI d   1      15.491  -6.161  48.697  0.00  0.00     0.028 H 
ATOM     35  H33 2LI d   1      15.841  -7.715  49.526  0.00  0.00     0.028 H 
ATOM     36  H34 2LI d   1      16.763  -6.237  49.963  0.00  0.00     0.028 H 
ENDBRANCH  28  33
BRANCH  28  37
ATOM     37  C14 2LI d   1      13.425  -6.903  50.267  0.00  0.00    -0.066 C 
ATOM     38  H35 2LI d   1      12.650  -6.680  51.015  0.00  0.00     0.028 H 
ATOM     39  H36 2LI d   1      13.538  -7.993  50.170  0.00  0.00     0.028 H 
ATOM     40  H37 2LI d   1      13.130  -6.477  49.296  0.00  0.00     0.028 H 
ENDBRANCH  28  37
ENDBRANCH  24  28
ENDBRANCH   3  18
BRANCH   3  41
ATOM     41  N17 2LI d   1      13.110  -2.115  47.774  0.00  0.00    -0.059 N 
ATOM     42  H22 2LI d   1      13.118  -3.119  47.685  0.00  0.00     0.278 HD
ATOM     43  H23 2LI d   1      13.204  -1.696  46.862  0.00  0.00     0.278 HD
BRANCH  41  44
ATOM     44  C18 2LI d   1      11.792  -1.754  48.261  0.00  0.00     0.108 C 
ATOM     45  H20 2LI d   1      11.798  -1.837  49.358  0.00  0.00     0.079 H 
ATOM     46  H21 2LI d   1      11.594  -0.711  47.973  0.00  0.00     0.079 H 
BRANCH  44  47
ATOM     47  C19 2LI d   1      10.661  -2.614  47.728  0.00  0.00     0.078 C 
ATOM     48  H18 2LI d   1      10.455  -2.337  46.684  0.00  0.00     0.088 H 
BRANCH  47  49
ATOM     49  C20 2LI d   1       9.402  -2.346  48.564  0.00  0.00     0.042 C 
ATOM     50  H8  2LI d   1       9.586  -2.754  49.569  0.00  0.00     0.077 H 
BRANCH  49  51
ATOM     51  C26 2LI d   1       8.165  -3.039  47.986  0.00  0.00    -0.020 C 
ATOM     52  H9  2LI d   1       8.307  -4.129  48.029  0.00  0.00     0.043 H 
ATOM     53  H10 2LI d   1       8.031  -2.728  46.939  0.00  0.00     0.043 H 
BRANCH  51  54
ATOM     54  C27 2LI d   1       6.924  -2.662  48.784  0.00  0.00    -0.050 A 
ATOM     55  C28 2LI d   1       5.809  -2.083  48.180  0.00  0.00    -0.039 A 
ATOM     56  C29 2LI d   1       4.683  -1.747  48.947  0.00  0.00     0.119 A 
ATOM     57  H11 2LI d   1       5.812  -1.891  47.113  0.00  0.00     0.089 H 
ATOM     58  F34 2LI d   1       3.617  -1.181  48.351  0.00  0.00    -0.206 F 
ATOM     59  C30 2LI d   1       4.653  -1.984  50.321  0.00  0.00    -0.009 A 
ATOM     60  C31 2LI d   1       5.769  -2.558  50.925  0.00  0.00     0.119 A 
ATOM     61  H12 2LI d   1       3.778  -1.726  50.907  0.00  0.00     0.092 H 
ATOM     62  F33 2LI d   1       5.794  -2.811  52.250  0.00  0.00    -0.206 F 
ATOM     63  C32 2LI d   1       6.888  -2.891  50.155  0.00  0.00    -0.039 A 
ATOM     64  H13 2LI d   1       7.748  -3.339  50.639  0.00  0.00     0.089 H 
ENDBRANCH  51  54
ENDBRANCH  49  51
BRANCH  49  65
ATOM     65  N21 2LI d   1       9.098  -0.926  48.703  0.00  0.00    -0.354 N 
ATOM     66  C22 2LI d   1       9.138  -0.244  49.857  0.00  0.00     0.214 C 
ATOM     67  O25 2LI d   1       9.506  -0.712  50.923  0.00  0.00    -0.274 OA
ATOM     68  H14 2LI d   1       8.841  -0.424  47.877  0.00  0.00     0.162 HD
BRANCH  66  69
ATOM     69  C23 2LI d   1       8.668   1.184  49.804  0.00  0.00    -0.003 C 
ATOM     70  H15 2LI d   1       8.748   1.634  50.805  0.00  0.00     0.040 H 
ATOM     71  H16 2LI d   1       7.620   1.213  49.472  0.00  0.00     0.040 H 
ATOM     72  H17 2LI d   1       9.292   1.750  49.097  0.00  0.00     0.040 H 
ENDBRANCH  66  69
ENDBRANCH  49  65
ENDBRANCH  47  49
BRANCH  47  73
ATOM     73  O24 2LI d   1      11.056  -3.989  47.765  0.00  0.00    -0.392 OA
ATOM     74  H19 2LI d   1      10.354  -4.528  47.421  0.00  0.00     0.210 HD
ENDBRANCH  47  73
ENDBRANCH  44  47
ENDBRANCH  41  44
ENDBRANCH   3  41
TORSDOF 14
