REMARK  30 active torsions:
REMARK  status: ('A' for Active; 'I' for Inactive)
REMARK    1  A    between atoms: CA_2  and  C_3 
REMARK       I    between atoms: C_3  and  N_8 
REMARK    2  A    between atoms: N_8  and  CA_9 
REMARK    3  A    between atoms: CA_9  and  C_10 
REMARK    4  A    between atoms: CA_9  and  CB_12 
REMARK       I    between atoms: C_10  and  N_16 
REMARK    5  A    between atoms: CB_12  and  CG_13 
REMARK    6  A    between atoms: N_16  and  CA_17 
REMARK    7  A    between atoms: CA_17  and  C_18 
REMARK    8  A    between atoms: CA_17  and  CB_20 
REMARK       I    between atoms: C_18  and  N_23 
REMARK    9  A    between atoms: CB_20  and  CG1_21 
REMARK   10  A    between atoms: CB_20  and  CG2_22 
REMARK   11  A    between atoms: N_23  and  CA_24 
REMARK   12  A    between atoms: CA_24  and  C_25 
REMARK   13  A    between atoms: CA_24  and  CB_27 
REMARK       I    between atoms: C_25  and  N_29 
REMARK   14  A    between atoms: CB_27  and  OG_28 
REMARK   15  A    between atoms: N_29  and  CA_30 
REMARK   16  A    between atoms: CA_30  and  C_31 
REMARK   17  A    between atoms: CA_30  and  CB_33 
REMARK       I    between atoms: C_31  and  N_35 
REMARK   18  A    between atoms: CB_33  and  OG_34 
REMARK   19  A    between atoms: N_35  and  CA_36 
REMARK   20  A    between atoms: CA_36  and  C_37 
REMARK   21  A    between atoms: CA_36  and  CB_39 
REMARK       I    between atoms: C_37  and  N_41 
REMARK   22  A    between atoms: CB_39  and  OG_40 
REMARK   23  A    between atoms: N_41  and  CA_42 
REMARK   24  A    between atoms: CA_42  and  C_43 
REMARK   25  A    between atoms: CA_42  and  CB_45 
REMARK       I    between atoms: C_43  and  N_48 
REMARK   26  A    between atoms: CB_45  and  OG1_46 
REMARK   27  A    between atoms: CB_45  and  CG2_47 
REMARK   28  A    between atoms: N_48  and  CA_49 
REMARK   29  A    between atoms: CA_49  and  C_50 
REMARK   30  A    between atoms: CA_49  and  CB_52 
ROOT
ATOM      1  CA  SER d   1       7.119  23.041   2.142  0.00  0.00     0.109 C 
ATOM      2  H24 SER d   1       7.105  23.246   3.223  0.00  0.00     0.090 H 
ENDROOT
BRANCH   1   3
ATOM      3  N   SER d   1       8.172  22.084   1.864  0.00  0.00    -0.344 N 
ATOM      4  C   VAL d   1       9.164  21.937   2.722  0.00  0.00     0.241 C 
ATOM      5  O   VAL d   1       9.240  22.596   3.755  0.00  0.00    -0.271 OA
ATOM      6  H23 SER d   1       8.147  21.538   1.026  0.00  0.00     0.163 HD
BRANCH   4   7
ATOM      7  CA  VAL d   1      10.245  20.930   2.377  0.00  0.00     0.092 C 
ATOM      8  H15 VAL d   1      10.228  20.607   1.326  0.00  0.00     0.088 H 
BRANCH   7   9
ATOM      9  N   VAL d   1      11.392  21.743   2.695  0.00  0.00    -0.346 N 
ATOM     10  C   ASP d   1      12.263  22.178   1.799  0.00  0.00     0.241 C 
ATOM     11  O   ASP d   1      12.238  21.877   0.598  0.00  0.00    -0.271 OA
ATOM     12  H14 VAL d   1      11.539  21.994   3.652  0.00  0.00     0.163 HD
BRANCH  10  13
ATOM     13  CA  ASP d   1      13.313  23.096   2.405  0.00  0.00     0.098 C 
ATOM     14  H11 ASP d   1      12.738  23.893   2.898  0.00  0.00     0.088 H 
BRANCH  13  15
ATOM     15  N   ASP d   1      14.171  22.551   3.450  0.00  0.00    -0.345 N 
ATOM     16  C   PRO d   1      14.741  21.351   3.398  0.00  0.00     0.249 C 
ATOM     17  O   PRO d   1      14.619  20.581   2.444  0.00  0.00    -0.271 OA
ATOM     18  H10 ASP d   1      14.342  23.116   4.257  0.00  0.00     0.163 HD
BRANCH  16  19
ATOM     19  CA  PRO d   1      15.584  20.979   4.620  0.00  0.00     0.178 C 
ATOM     20  N   PRO d   1      16.789  20.187   4.296  0.00  0.00    -0.062 N 
ATOM     21  CD  PRO d   1      17.974  20.804   4.919  0.00  0.00     0.083 C 
ATOM     22  H1  PRO d   1      16.913  20.160   3.296  0.00  0.00     0.278 HD
ATOM     23  H2  PRO d   1      16.677  19.249   4.646  0.00  0.00     0.278 HD
ATOM     24  CG  PRO d   1      17.351  21.730   5.984  0.00  0.00    -0.040 C 
ATOM     25  H8  PRO d   1      18.555  21.380   4.183  0.00  0.00     0.075 H 
ATOM     26  H9  PRO d   1      18.620  20.044   5.383  0.00  0.00     0.075 H 
ATOM     27  CB  PRO d   1      16.063  22.230   5.345  0.00  0.00    -0.028 C 
ATOM     28  H6  PRO d   1      17.136  21.172   6.907  0.00  0.00     0.035 H 
ATOM     29  H7  PRO d   1      18.024  22.570   6.211  0.00  0.00     0.035 H 
ATOM     30  H4  PRO d   1      15.338  22.558   6.104  0.00  0.00     0.036 H 
ATOM     31  H5  PRO d   1      16.256  23.054   4.642  0.00  0.00     0.036 H 
ATOM     32  H3  PRO d   1      14.950  20.389   5.298  0.00  0.00     0.099 H 
ENDBRANCH  16  19
ENDBRANCH  13  15
BRANCH  13  33
ATOM     33  CB  ASP d   1      14.144  23.778   1.324  0.00  0.00     0.043 C 
ATOM     34  H12 ASP d   1      13.557  23.817   0.394  0.00  0.00     0.052 H 
ATOM     35  H13 ASP d   1      15.060  23.193   1.155  0.00  0.00     0.052 H 
BRANCH  33  36
ATOM     36  CG  ASP d   1      14.528  25.189   1.723  0.00  0.00     0.175 C 
ATOM     37  OD1 ASP d   1      13.609  25.956   2.092  0.00  0.00    -0.648 OA
ATOM     38  OD2 ASP d   1      15.730  25.532   1.682  0.00  0.00    -0.648 OA
ENDBRANCH  33  36
ENDBRANCH  13  33
ENDBRANCH  10  13
ENDBRANCH   7   9
BRANCH   7  39
ATOM     39  CB  VAL d   1      10.110  19.730   3.319  0.00  0.00    -0.033 C 
ATOM     40  H16 VAL d   1      10.179  20.083   4.358  0.00  0.00     0.042 H 
BRANCH  39  41
ATOM     41  CG1 VAL d   1       8.757  19.076   3.116  0.00  0.00    -0.071 C 
ATOM     42  H17 VAL d   1       8.661  18.214   3.793  0.00  0.00     0.028 H 
ATOM     43  H18 VAL d   1       8.667  18.735   2.074  0.00  0.00     0.028 H 
ATOM     44  H19 VAL d   1       7.962  19.804   3.334  0.00  0.00     0.028 H 
ENDBRANCH  39  41
BRANCH  39  45
ATOM     45  CG2 VAL d   1      11.234  18.741   3.068  0.00  0.00    -0.071 C 
ATOM     46  H20 VAL d   1      12.202  19.240   3.222  0.00  0.00     0.028 H 
ATOM     47  H21 VAL d   1      11.172  18.370   2.034  0.00  0.00     0.028 H 
ATOM     48  H22 VAL d   1      11.142  17.896   3.766  0.00  0.00     0.028 H 
ENDBRANCH  39  45
ENDBRANCH   7  39
ENDBRANCH   4   7
ENDBRANCH   1   3
BRANCH   1  49
ATOM     49  C   SER d   1       5.763  22.479   1.739  0.00  0.00     0.243 C 
ATOM     50  O   SER d   1       5.682  21.403   1.142  0.00  0.00    -0.271 OA
ATOM     51  N   SER d   1       4.707  23.212   2.075  0.00  0.00    -0.344 N 
ATOM     52  H28 SER d   1       4.853  24.074   2.561  0.00  0.00     0.163 HD
BRANCH  51  53
ATOM     53  CA  SER d   1       3.344  22.805   1.761  0.00  0.00     0.109 C 
ATOM     54  H29 SER d   1       3.360  21.783   1.354  0.00  0.00     0.090 H 
BRANCH  53  55
ATOM     55  C   SER d   1       2.738  23.746   0.718  0.00  0.00     0.243 C 
ATOM     56  O   SER d   1       3.060  24.932   0.688  0.00  0.00    -0.271 OA
ATOM     57  N   SER d   1       1.876  23.220  -0.146  0.00  0.00    -0.344 N 
ATOM     58  H33 SER d   1       1.666  22.243  -0.105  0.00  0.00     0.163 HD
BRANCH  57  59
ATOM     59  CA  SER d   1       1.236  24.055  -1.151  0.00  0.00     0.109 C 
ATOM     60  H34 SER d   1       1.703  25.051  -1.135  0.00  0.00     0.090 H 
BRANCH  59  61
ATOM     61  C   SER d   1      -0.249  24.195  -0.819  0.00  0.00     0.243 C 
ATOM     62  O   SER d   1      -0.992  24.896  -1.510  0.00  0.00    -0.271 OA
ATOM     63  N   THR d   1      -0.673  23.508   0.239  0.00  0.00    -0.344 N 
ATOM     64  H38 THR d   1      -0.018  22.943   0.741  0.00  0.00     0.163 HD
BRANCH  63  65
ATOM     65  CA  THR d   1      -2.061  23.549   0.693  0.00  0.00     0.113 C 
ATOM     66  H39 THR d   1      -2.708  23.865  -0.139  0.00  0.00     0.091 H 
BRANCH  65  67
ATOM     67  C   THR d   1      -2.149  24.548   1.833  0.00  0.00     0.243 C 
ATOM     68  O   THR d   1      -3.016  25.419   1.847  0.00  0.00    -0.271 OA
ATOM     69  N   HIS d   1      -1.237  24.401   2.789  0.00  0.00    -0.345 N 
ATOM     70  H45 HIS d   1      -0.571  23.660   2.707  0.00  0.00     0.163 HD
BRANCH  69  71
ATOM     71  CA  HIS d   1      -1.170  25.276   3.951  0.00  0.00     0.093 C 
ATOM     72  H46 HIS d   1      -2.134  25.792   4.073  0.00  0.00     0.089 H 
BRANCH  71  73
ATOM     73  C   HIS d   1      -0.070  26.309   3.735  0.00  0.00     0.196 C 
ATOM     74  O   HIS d   1       1.122  25.904   3.683  0.00  0.00    -0.646 OA
ATOM     75  O47 HIS d   1      -0.345  27.533   3.612  0.00  0.00    -0.646 OA
ENDBRANCH  71  73
BRANCH  71  76
ATOM     76  CB  HIS d   1      -0.880  24.454   5.209  0.00  0.00    -0.048 C 
ATOM     77  H47 HIS d   1      -0.831  25.123   6.081  0.00  0.00     0.030 H 
ATOM     78  H48 HIS d   1       0.082  23.933   5.093  0.00  0.00     0.030 H 
ATOM     79  H49 HIS d   1      -1.682  23.716   5.358  0.00  0.00     0.030 H 
ENDBRANCH  71  76
ENDBRANCH  69  71
ENDBRANCH  65  67
BRANCH  65  80
ATOM     80  CB  THR d   1      -2.539  22.169   1.220  0.00  0.00     0.060 C 
ATOM     81  H40 THR d   1      -3.465  22.311   1.796  0.00  0.00     0.086 H 
BRANCH  80  82
ATOM     82  OG1 THR d   1      -1.537  21.612   2.080  0.00  0.00    -0.393 OA
ATOM     83  H41 THR d   1      -0.729  21.503   1.593  0.00  0.00     0.210 HD
ENDBRANCH  80  82
BRANCH  80  84
ATOM     84  CG2 THR d   1      -2.825  21.218   0.065  0.00  0.00    -0.050 C 
ATOM     85  H42 THR d   1      -3.161  20.249   0.463  0.00  0.00     0.031 H 
ATOM     86  H43 THR d   1      -1.909  21.073  -0.526  0.00  0.00     0.031 H 
ATOM     87  H44 THR d   1      -3.611  21.645  -0.575  0.00  0.00     0.031 H 
ENDBRANCH  80  84
ENDBRANCH  65  80
ENDBRANCH  63  65
ENDBRANCH  59  61
BRANCH  59  88
ATOM     88  CB  SER d   1       1.402  23.458  -2.552  0.00  0.00     0.044 C 
ATOM     89  H35 SER d   1       2.370  22.939  -2.609  0.00  0.00     0.077 H 
ATOM     90  H36 SER d   1       1.378  24.270  -3.293  0.00  0.00     0.077 H 
BRANCH  88  91
ATOM     91  OG  SER d   1       0.366  22.537  -2.841  0.00  0.00    -0.398 OA
ATOM     92  H37 SER d   1       0.385  21.831  -2.206  0.00  0.00     0.209 HD
ENDBRANCH  88  91
ENDBRANCH  59  88
ENDBRANCH  57  59
ENDBRANCH  53  55
BRANCH  53  93
ATOM     93  CB  SER d   1       2.494  22.823   3.040  0.00  0.00     0.044 C 
ATOM     94  H30 SER d   1       2.512  23.837   3.465  0.00  0.00     0.077 H 
ATOM     95  H31 SER d   1       2.924  22.114   3.763  0.00  0.00     0.077 H 
BRANCH  93  96
ATOM     96  OG  SER d   1       1.148  22.457   2.783  0.00  0.00    -0.398 OA
ATOM     97  H32 SER d   1       1.123  21.579   2.420  0.00  0.00     0.209 HD
ENDBRANCH  93  96
ENDBRANCH  53  93
ENDBRANCH  51  53
ENDBRANCH   1  49
BRANCH   1  98
ATOM     98  CB  SER d   1       7.404  24.349   1.398  0.00  0.00     0.044 C 
ATOM     99  H25 SER d   1       8.319  24.803   1.806  0.00  0.00     0.077 H 
ATOM    100  H26 SER d   1       6.558  25.037   1.541  0.00  0.00     0.077 H 
BRANCH  98 101
ATOM    101  OG  SER d   1       7.581  24.113   0.011  0.00  0.00    -0.398 OA
ATOM    102  H27 SER d   1       7.756  24.936  -0.429  0.00  0.00     0.209 HD
ENDBRANCH  98 101
ENDBRANCH   1  98
TORSDOF 30
