REMARK WARNING: 32 MAX_TORS EXCEEDED!!!
REMARK  37 active torsions:
REMARK  status: ('A' for Active; 'I' for Inactive)
REMARK    1  A    between atoms: N_1  and  CA_2 
REMARK    2  A    between atoms: CA_2  and  C_3 
REMARK    3  A    between atoms: CA_2  and  CB_5 
REMARK       I    between atoms: C_3  and  N_6 
REMARK    4  A    between atoms: N_6  and  CA_7 
REMARK    5  A    between atoms: CA_7  and  C_8 
REMARK    6  A    between atoms: CA_7  and  CB_10 
REMARK       I    between atoms: C_8  and  N_11 
REMARK    7  A    between atoms: N_11  and  CA_12 
REMARK    8  A    between atoms: CA_12  and  C_13 
REMARK    9  A    between atoms: CA_12  and  CB_15 
REMARK       I    between atoms: C_13  and  N_18 
REMARK   10  A    between atoms: CB_15  and  CG1_16 
REMARK   11  A    between atoms: CB_15  and  CG2_17 
REMARK   12  A    between atoms: N_18  and  CA_19 
REMARK   13  A    between atoms: CA_19  and  C_20 
REMARK   14  A    between atoms: CA_19  and  CB_22 
REMARK       I    between atoms: C_20  and  N_25 
REMARK   15  A    between atoms: CB_22  and  OG1_23 
REMARK   16  A    between atoms: CB_22  and  CG2_24 
REMARK   17  A    between atoms: N_25  and  CA_26 
REMARK   18  A    between atoms: CA_26  and  C_27 
REMARK   19  A    between atoms: CA_26  and  CB_29 
REMARK       I    between atoms: C_27  and  N_31 
REMARK   20  A    between atoms: CB_29  and  OG_30 
REMARK   21  A    between atoms: N_31  and  CA_32 
REMARK   22  A    between atoms: CA_32  and  C_33 
REMARK   23  A    between atoms: CA_32  and  CB_35 
REMARK       I    between atoms: C_33  and  N_38 
REMARK   24  A    between atoms: CB_35  and  OG1_36 
REMARK   25  A    between atoms: CB_35  and  CG2_37 
REMARK   26  A    between atoms: N_38  and  CA_39 
REMARK   27  A    between atoms: CA_39  and  C_40 
REMARK   28  A    between atoms: CA_39  and  CB_42 
REMARK       I    between atoms: C_40  and  N_45 
REMARK   29  A    between atoms: CB_42  and  OG1_43 
REMARK   30  A    between atoms: CB_42  and  CG2_44 
REMARK   31  A    between atoms: N_45  and  CA_46 
REMARK   32  A    between atoms: CA_46  and  C_47 
REMARK   33  A    between atoms: CA_46  and  CB_49 
REMARK       I    between atoms: C_47  and  N_51 
REMARK   34  A    between atoms: CB_49  and  OG_50 
REMARK   35  A    between atoms: N_51  and  CA_52 
REMARK   36  A    between atoms: CA_52  and  C_53 
REMARK   37  A    between atoms: CA_52  and  CB_55 
REMARK       I    between atoms: C_53  and  N_56 
ROOT
ATOM      1  CA  ASP d   1      22.738   6.078  -2.616  0.00  0.00     0.109 C 
ATOM      2  H30 ASP d   1      21.861   6.047  -1.953  0.00  0.00     0.090 H 
ENDROOT
BRANCH   1   3
ATOM      3  N   ASP d   1      23.135   7.456  -2.842  0.00  0.00    -0.344 N 
ATOM      4  C   ASP d   1      22.487   8.488  -2.318  0.00  0.00     0.243 C 
ATOM      5  O   ASP d   1      21.453   8.381  -1.661  0.00  0.00    -0.271 OA
ATOM      6  H29 ASP d   1      23.932   7.635  -3.418  0.00  0.00     0.163 HD
BRANCH   4   7
ATOM      7  CA  ASP d   1      23.126   9.843  -2.566  0.00  0.00     0.113 C 
ATOM      8  H23 ASP d   1      23.327   9.955  -3.642  0.00  0.00     0.091 H 
BRANCH   7   9
ATOM      9  N   ASP d   1      22.212  10.899  -2.154  0.00  0.00    -0.344 N 
ATOM     10  C   ASP d   1      22.004  11.974  -2.909  0.00  0.00     0.241 C 
ATOM     11  O   ASP d   1      22.644  12.198  -3.946  0.00  0.00    -0.271 OA
ATOM     12  H22 ASP d   1      21.729  10.814  -1.282  0.00  0.00     0.163 HD
BRANCH  10  13
ATOM     13  CA  ASP d   1      20.954  12.964  -2.420  0.00  0.00     0.092 C 
ATOM     14  H14 ASP d   1      20.631  12.675  -1.409  0.00  0.00     0.088 H 
BRANCH  13  15
ATOM     15  N   ASP d   1      21.536  14.312  -2.359  0.00  0.00    -0.346 N 
ATOM     16  C   ASP d   1      22.129  14.784  -1.262  0.00  0.00     0.240 C 
ATOM     17  O   ASP d   1      22.242  14.133  -0.221  0.00  0.00    -0.271 OA
ATOM     18  H13 ASP d   1      21.485  14.896  -3.169  0.00  0.00     0.163 HD
BRANCH  16  19
ATOM     19  CA  ASP d   1      22.698  16.212  -1.353  0.00  0.00     0.086 C 
ATOM     20  H9  ASP d   1      23.613  16.153  -1.961  0.00  0.00     0.086 H 
BRANCH  19  21
ATOM     21  N   ASP d   1      21.795  17.163  -2.027  0.00  0.00    -0.346 N 
ATOM     22  C   ASP d   1      20.539  17.384  -1.626  0.00  0.00     0.248 C 
ATOM     23  O   ASP d   1      20.070  16.907  -0.593  0.00  0.00    -0.271 OA
ATOM     24  H8  ASP d   1      22.138  17.666  -2.821  0.00  0.00     0.163 HD
BRANCH  22  25
ATOM     25  CA  ASP d   1      19.686  18.289  -2.515  0.00  0.00     0.172 C 
ATOM     26  H4  ASP d   1      20.331  18.681  -3.315  0.00  0.00     0.098 H 
BRANCH  25  27
ATOM     27  N   ASP d   1      18.561  17.538  -3.155  0.00  0.00    -0.067 N 
ATOM     28  H1  ASP d   1      18.023  18.166  -3.731  0.00  0.00     0.275 HD
ATOM     29  H2  ASP d   1      17.968  17.147  -2.440  0.00  0.00     0.275 HD
ATOM     30  H3  ASP d   1      18.934  16.795  -3.725  0.00  0.00     0.275 HD
ENDBRANCH  25  27
BRANCH  25  31
ATOM     31  CB  ASP d   1      19.142  19.476  -1.714  0.00  0.00    -0.042 C 
ATOM     32  H5  ASP d   1      19.978  20.019  -1.249  0.00  0.00     0.030 H 
ATOM     33  H6  ASP d   1      18.463  19.109  -0.931  0.00  0.00     0.030 H 
ATOM     34  H7  ASP d   1      18.595  20.152  -2.387  0.00  0.00     0.030 H 
ENDBRANCH  25  31
ENDBRANCH  22  25
ENDBRANCH  19  21
BRANCH  19  35
ATOM     35  CB  ASP d   1      23.102  16.735   0.039  0.00  0.00    -0.049 C 
ATOM     36  H10 ASP d   1      23.774  16.011   0.522  0.00  0.00     0.030 H 
ATOM     37  H11 ASP d   1      22.201  16.868   0.656  0.00  0.00     0.030 H 
ATOM     38  H12 ASP d   1      23.619  17.700  -0.068  0.00  0.00     0.030 H 
ENDBRANCH  19  35
ENDBRANCH  16  19
ENDBRANCH  13  15
BRANCH  13  39
ATOM     39  CB  ASP d   1      19.724  12.914  -3.370  0.00  0.00    -0.033 C 
ATOM     40  H15 ASP d   1      20.035  13.319  -4.344  0.00  0.00     0.042 H 
BRANCH  39  41
ATOM     41  CG1 ASP d   1      19.241  11.481  -3.585  0.00  0.00    -0.071 C 
ATOM     42  H16 ASP d   1      18.372  11.484  -4.260  0.00  0.00     0.028 H 
ATOM     43  H17 ASP d   1      18.952  11.042  -2.618  0.00  0.00     0.028 H 
ATOM     44  H18 ASP d   1      20.050  10.884  -4.031  0.00  0.00     0.028 H 
ENDBRANCH  39  41
BRANCH  39  45
ATOM     45  CG2 ASP d   1      18.581  13.772  -2.844  0.00  0.00    -0.071 C 
ATOM     46  H19 ASP d   1      18.936  14.802  -2.692  0.00  0.00     0.028 H 
ATOM     47  H20 ASP d   1      18.224  13.362  -1.888  0.00  0.00     0.028 H 
ATOM     48  H21 ASP d   1      17.757  13.772  -3.573  0.00  0.00     0.028 H 
ENDBRANCH  39  45
ENDBRANCH  13  39
ENDBRANCH  10  13
ENDBRANCH   7   9
BRANCH   7  49
ATOM     49  CB  ASP d   1      24.464   9.911  -1.805  0.00  0.00     0.060 C 
ATOM     50  H24 ASP d   1      25.120   9.103  -2.162  0.00  0.00     0.086 H 
BRANCH  49  51
ATOM     51  OG1 ASP d   1      24.215   9.741  -0.414  0.00  0.00    -0.393 OA
ATOM     52  H25 ASP d   1      23.637  10.431  -0.110  0.00  0.00     0.210 HD
ENDBRANCH  49  51
BRANCH  49  53
ATOM     53  CG2 ASP d   1      25.161  11.247  -2.021  0.00  0.00    -0.050 C 
ATOM     54  H26 ASP d   1      26.110  11.260  -1.465  0.00  0.00     0.031 H 
ATOM     55  H27 ASP d   1      24.514  12.060  -1.661  0.00  0.00     0.031 H 
ATOM     56  H28 ASP d   1      25.363  11.386  -3.093  0.00  0.00     0.031 H 
ENDBRANCH  49  53
ENDBRANCH   7  49
ENDBRANCH   4   7
ENDBRANCH   1   3
BRANCH   1  57
ATOM     57  C   ASP d   1      23.891   5.348  -1.970  0.00  0.00     0.243 C 
ATOM     58  O   ASP d   1      25.056   5.665  -2.236  0.00  0.00    -0.271 OA
ATOM     59  N   ASP d   1      23.577   4.358  -1.141  0.00  0.00    -0.344 N 
ATOM     60  H34 ASP d   1      22.614   4.146  -0.973  0.00  0.00     0.163 HD
BRANCH  59  61
ATOM     61  CA  ASP d   1      24.604   3.578  -0.475  0.00  0.00     0.113 C 
ATOM     62  H35 ASP d   1      25.357   4.286  -0.099  0.00  0.00     0.091 H 
BRANCH  61  63
ATOM     63  C   ASP d   1      25.313   2.612  -1.423  0.00  0.00     0.243 C 
ATOM     64  O   ASP d   1      26.334   2.033  -1.050  0.00  0.00    -0.271 OA
ATOM     65  N   ASP d   1      24.769   2.438  -2.628  0.00  0.00    -0.344 N 
ATOM     66  H41 ASP d   1      23.883   2.862  -2.817  0.00  0.00     0.163 HD
BRANCH  65  67
ATOM     67  CA  ASP d   1      25.409   1.655  -3.686  0.00  0.00     0.113 C 
ATOM     68  H42 ASP d   1      26.444   1.433  -3.386  0.00  0.00     0.091 H 
BRANCH  67  69
ATOM     69  C   ASP d   1      25.415   2.442  -4.997  0.00  0.00     0.243 C 
ATOM     70  O   ASP d   1      24.640   3.381  -5.181  0.00  0.00    -0.271 OA
ATOM     71  N   ASP d   1      26.295   2.039  -5.913  0.00  0.00    -0.344 N 
ATOM     72  H48 ASP d   1      26.970   1.348  -5.656  0.00  0.00     0.163 HD
BRANCH  71  73
ATOM     73  CA  ASP d   1      26.316   2.561  -7.272  0.00  0.00     0.109 C 
ATOM     74  H49 ASP d   1      25.318   2.955  -7.516  0.00  0.00     0.090 H 
BRANCH  73  75
ATOM     75  C   ASP d   1      26.647   1.424  -8.230  0.00  0.00     0.243 C 
ATOM     76  O   ASP d   1      27.359   0.482  -7.868  0.00  0.00    -0.271 OA
ATOM     77  N   ASP d   1      26.116   1.512  -9.443  0.00  0.00    -0.346 N 
ATOM     78  H53 ASP d   1      25.567   2.316  -9.674  0.00  0.00     0.163 HD
BRANCH  77  79
ATOM     79  CA  ASP d   1      26.307   0.472 -10.453  0.00  0.00     0.086 C 
ATOM     80  H54 ASP d   1      27.287  -0.001 -10.291  0.00  0.00     0.086 H 
BRANCH  79  81
ATOM     81  C   ASP d   1      26.289   1.092 -11.841  0.00  0.00     0.237 C 
ATOM     82  O   ASP d   1      25.498   2.003 -12.105  0.00  0.00    -0.271 OA
ATOM     83  N   ASP d   1      27.172   0.602 -12.714  0.00  0.00    -0.368 N 
ATOM     84  H58 ASP d   1      27.211   0.967 -13.644  0.00  0.00     0.159 HD
ATOM     85  H59 ASP d   1      27.794  -0.130 -12.438  0.00  0.00     0.159 HD
ENDBRANCH  79  81
BRANCH  79  86
ATOM     86  CB  ASP d   1      25.226  -0.598 -10.328  0.00  0.00    -0.049 C 
ATOM     87  H55 ASP d   1      25.385  -1.371 -11.094  0.00  0.00     0.030 H 
ATOM     88  H56 ASP d   1      24.237  -0.138 -10.471  0.00  0.00     0.030 H 
ATOM     89  H57 ASP d   1      25.277  -1.056  -9.329  0.00  0.00     0.030 H 
ENDBRANCH  79  86
ENDBRANCH  77  79
ENDBRANCH  73  75
BRANCH  73  90
ATOM     90  CB  ASP d   1      27.335   3.697  -7.418  0.00  0.00     0.044 C 
ATOM     91  H50 ASP d   1      27.487   3.904  -8.488  0.00  0.00     0.077 H 
ATOM     92  H51 ASP d   1      28.287   3.381  -6.967  0.00  0.00     0.077 H 
BRANCH  90  93
ATOM     93  OG  ASP d   1      26.894   4.887  -6.777  0.00  0.00    -0.398 OA
ATOM     94  H52 ASP d   1      26.766   4.718  -5.851  0.00  0.00     0.209 HD
ENDBRANCH  90  93
ENDBRANCH  73  90
ENDBRANCH  71  73
ENDBRANCH  67  69
BRANCH  67  95
ATOM     95  CB  ASP d   1      24.655   0.329  -3.937  0.00  0.00     0.060 C 
ATOM     96  H43 ASP d   1      25.191  -0.237  -4.713  0.00  0.00     0.086 H 
BRANCH  95  97
ATOM     97  OG1 ASP d   1      23.338   0.624  -4.410  0.00  0.00    -0.393 OA
ATOM     98  H44 ASP d   1      22.876   1.137  -3.758  0.00  0.00     0.210 HD
ENDBRANCH  95  97
BRANCH  95  99
ATOM     99  CG2 ASP d   1      24.591  -0.537  -2.668  0.00  0.00    -0.050 C 
ATOM    100  H45 ASP d   1      24.049  -1.469  -2.887  0.00  0.00     0.031 H 
ATOM    101  H46 ASP d   1      24.067   0.015  -1.874  0.00  0.00     0.031 H 
ATOM    102  H47 ASP d   1      25.612  -0.777  -2.336  0.00  0.00     0.031 H 
ENDBRANCH  95  99
ENDBRANCH  67  95
ENDBRANCH  65  67
ENDBRANCH  61  63
BRANCH  61 103
ATOM    103  CB  ASP d   1      24.038   2.800   0.744  0.00  0.00     0.060 C 
ATOM    104  H36 ASP d   1      24.872   2.287   1.245  0.00  0.00     0.086 H 
BRANCH 103 105
ATOM    105  OG1 ASP d   1      23.095   1.814   0.301  0.00  0.00    -0.393 OA
ATOM    106  H37 ASP d   1      22.381   2.243  -0.156  0.00  0.00     0.210 HD
ENDBRANCH 103 105
BRANCH 103 107
ATOM    107  CG2 ASP d   1      23.383   3.738   1.745  0.00  0.00    -0.050 C 
ATOM    108  H38 ASP d   1      22.994   3.155   2.593  0.00  0.00     0.031 H 
ATOM    109  H39 ASP d   1      22.555   4.274   1.258  0.00  0.00     0.031 H 
ATOM    110  H40 ASP d   1      24.126   4.463   2.108  0.00  0.00     0.031 H 
ENDBRANCH 103 107
ENDBRANCH  61 103
ENDBRANCH  59  61
ENDBRANCH   1  57
BRANCH   1 111
ATOM    111  CB  ASP d   1      22.393   5.418  -3.951  0.00  0.00     0.044 C 
ATOM    112  H31 ASP d   1      23.246   5.533  -4.635  0.00  0.00     0.077 H 
ATOM    113  H32 ASP d   1      21.511   5.918  -4.377  0.00  0.00     0.077 H 
BRANCH 111 114
ATOM    114  OG  ASP d   1      22.108   4.034  -3.801  0.00  0.00    -0.398 OA
ATOM    115  H33 ASP d   1      21.368   3.926  -3.215  0.00  0.00     0.209 HD
ENDBRANCH 111 114
ENDBRANCH   1 111
TORSDOF 37
