REMARK  5 active torsions:
REMARK  status: ('A' for Active; 'I' for Inactive)
REMARK    1  A    between atoms: CAR_15  and  SAW_17 
REMARK    2  A    between atoms: CAY_19  and  CAR_15 
REMARK    3  A    between atoms: CAS_16  and  CAZ_20 
REMARK    4  A    between atoms: CBE_22  and  CAS_16 
REMARK    5  A    between atoms: CAX_18  and  CBA_21 
REMARK       I    between atoms: CAX_18  and  NBF_23 
ROOT
ATOM      1  OAA IPK d   1      19.847   1.265 -26.227  0.00  0.00    -0.267 OA
ATOM      2  CAN IPK d   1      20.089   0.743 -21.604  0.00  0.00    -0.046 C 
ATOM      3  CAO IPK d   1      20.815  -1.121 -23.175  0.00  0.00    -0.046 C 
ATOM      4  CAP IPK d   1      19.316   1.461 -22.697  0.00  0.00    -0.002 C 
ATOM      5  CAQ IPK d   1      19.871  -0.559 -24.257  0.00  0.00    -0.002 C 
ATOM      6  CAX IPK d   1      19.612   1.724 -25.116  0.00  0.00     0.253 C 
ATOM      7  CBE IPK d   1      21.276  -0.055 -22.164  0.00  0.00    -0.047 C 
ATOM      8  NBF IPK d   1      19.598   0.897 -24.065  0.00  0.00    -0.348 N 
ATOM      9  H10 IPK d   1      19.410   0.051 -21.085  0.00  0.00     0.035 H 
ATOM     10  H11 IPK d   1      20.468   1.488 -20.890  0.00  0.00     0.035 H 
ATOM     11  H12 IPK d   1      21.703  -1.542 -23.669  0.00  0.00     0.035 H 
ATOM     12  H13 IPK d   1      20.287  -1.917 -22.629  0.00  0.00     0.035 H 
ATOM     13  H14 IPK d   1      19.597   2.524 -22.689  0.00  0.00     0.064 H 
ATOM     14  H15 IPK d   1      18.240   1.365 -22.490  0.00  0.00     0.064 H 
ATOM     15  H16 IPK d   1      18.918  -1.107 -24.215  0.00  0.00     0.064 H 
ATOM     16  H17 IPK d   1      20.335  -0.706 -25.243  0.00  0.00     0.064 H 
ATOM     17  H23 IPK d   1      21.937   0.635 -22.708  0.00  0.00     0.040 H 
ENDROOT
BRANCH   6  18
ATOM     18  CBA IPK d   1      19.329   3.236 -24.929  0.00  0.00     0.032 A 
ATOM     19  CAJ IPK d   1      18.105   3.635 -24.393  0.00  0.00    -0.067 A 
ATOM     20  CAH IPK d   1      17.832   4.983 -24.207  0.00  0.00    -0.075 A 
ATOM     21  H8  IPK d   1      17.365   2.891 -24.121  0.00  0.00     0.085 H 
ATOM     22  CAY IPK d   1      18.774   5.952 -24.561  0.00  0.00    -0.049 A 
ATOM     23  H6  IPK d   1      16.881   5.286 -23.784  0.00  0.00     0.084 H 
ATOM     24  CAI IPK d   1      20.007   5.553 -25.110  0.00  0.00    -0.075 A 
ATOM     25  CAK IPK d   1      20.277   4.199 -25.291  0.00  0.00    -0.067 A 
ATOM     26  H7  IPK d   1      20.744   6.297 -25.391  0.00  0.00     0.084 H 
ATOM     27  H9  IPK d   1      21.226   3.890 -25.714  0.00  0.00     0.085 H 
BRANCH  22  28
ATOM     28  CAR IPK d   1      18.424   7.449 -24.345  0.00  0.00    -0.002 C 
ATOM     29  H18 IPK d   1      18.346   7.939 -25.327  0.00  0.00     0.055 H 
ATOM     30  H19 IPK d   1      17.457   7.514 -23.825  0.00  0.00     0.055 H 
BRANCH  28  31
ATOM     31  SAW IPK d   1      19.698   8.334 -23.340  0.00  0.00    -0.178 SA
ATOM     32  H22 IPK d   1      19.426   9.298 -23.229  0.00  0.00     0.101 HD
ENDBRANCH  28  31
ENDBRANCH  22  28
ENDBRANCH   6  18
BRANCH   7  33
ATOM     33  CAS IPK d   1      22.049  -0.589 -20.954  0.00  0.00    -0.037 C 
ATOM     34  H20 IPK d   1      22.947   0.035 -20.838  0.00  0.00     0.040 H 
ATOM     35  H21 IPK d   1      21.402  -0.467 -20.073  0.00  0.00     0.040 H 
BRANCH  33  36
ATOM     36  CAZ IPK d   1      22.509  -2.046 -20.982  0.00  0.00    -0.058 A 
ATOM     37  CAF IPK d   1      21.683  -3.051 -20.462  0.00  0.00    -0.077 A 
ATOM     38  CAC IPK d   1      22.124  -4.370 -20.459  0.00  0.00    -0.082 A 
ATOM     39  H4  IPK d   1      20.706  -2.802 -20.064  0.00  0.00     0.084 H 
ATOM     40  CAB IPK d   1      23.384  -4.685 -20.972  0.00  0.00    -0.083 A 
ATOM     41  H2  IPK d   1      21.490  -5.153 -20.059  0.00  0.00     0.083 H 
ATOM     42  CAD IPK d   1      24.205  -3.666 -21.475  0.00  0.00    -0.082 A 
ATOM     43  H1  IPK d   1      23.726  -5.714 -20.981  0.00  0.00     0.083 H 
ATOM     44  CAG IPK d   1      23.771  -2.346 -21.470  0.00  0.00    -0.077 A 
ATOM     45  H3  IPK d   1      25.185  -3.909 -21.870  0.00  0.00     0.083 H 
ATOM     46  H5  IPK d   1      24.414  -1.558 -21.845  0.00  0.00     0.084 H 
ENDBRANCH  33  36
ENDBRANCH   7  33
TORSDOF 5
