REMARK  7 active torsions:
REMARK  status: ('A' for Active; 'I' for Inactive)
REMARK    1  A    between atoms: CBB_28  and  NAA_1 
REMARK    2  A    between atoms: OAS_19  and  CAN_14 
REMARK    3  A    between atoms: CAN_14  and  CAV_22 
REMARK    4  A    between atoms: CAO_15  and  OAS_19 
REMARK    5  A    between atoms: CBB_28  and  CAO_15 
REMARK       I    between atoms: CAU_21  and  NAQ_17 
REMARK    6  A    between atoms: NAQ_17  and  CAX_24 
REMARK       I    between atoms: NAR_18  and  CAU_21 
REMARK    7  A    between atoms: CAZ_26  and  CBB_28 
ROOT
ATOM      1  CBB HIZ d   1      22.424   0.218  17.870  0.00  0.00     0.162 C 
ATOM      2  H19 HIZ d   1      23.280   0.797  17.494  0.00  0.00     0.097 H 
ENDROOT
BRANCH   1   3
ATOM      3  NAA HIZ d   1      22.030  -0.759  16.852  0.00  0.00    -0.068 N 
ATOM      4  H1  HIZ d   1      22.793  -1.395  16.684  0.00  0.00     0.275 HD
ATOM      5  H2  HIZ d   1      21.799  -0.278  15.997  0.00  0.00     0.275 HD
ATOM      6  H3  HIZ d   1      21.227  -1.276  17.175  0.00  0.00     0.275 HD
ENDBRANCH   1   3
BRANCH   1   7
ATOM      7  CAO HIZ d   1      22.862  -0.514  19.160  0.00  0.00     0.051 C 
ATOM      8  H15 HIZ d   1      22.237  -1.413  19.268  0.00  0.00     0.078 H 
ATOM      9  H16 HIZ d   1      23.914  -0.811  19.039  0.00  0.00     0.078 H 
BRANCH   7  10
ATOM     10  OAS HIZ d   1      22.752   0.264  20.401  0.00  0.00    -0.384 OA
BRANCH  10  11
ATOM     11  CAN HIZ d   1      24.012   0.887  20.756  0.00  0.00     0.043 C 
ATOM     12  H13 HIZ d   1      24.748   0.552  20.011  0.00  0.00     0.081 H 
ATOM     13  H14 HIZ d   1      24.288   0.495  21.746  0.00  0.00     0.081 H 
BRANCH  11  14
ATOM     14  CAV HIZ d   1      24.127   2.269  20.832  0.00  0.00    -0.035 A 
ATOM     15  CAH HIZ d   1      23.141   3.093  20.275  0.00  0.00    -0.075 A 
ATOM     16  CAF HIZ d   1      23.242   4.481  20.339  0.00  0.00    -0.082 A 
ATOM     17  H7  HIZ d   1      22.285   2.643  19.786  0.00  0.00     0.084 H 
ATOM     18  CAE HIZ d   1      24.352   5.038  20.976  0.00  0.00    -0.083 A 
ATOM     19  H5  HIZ d   1      22.477   5.114  19.904  0.00  0.00     0.083 H 
ATOM     20  CAG HIZ d   1      25.339   4.215  21.534  0.00  0.00    -0.082 A 
ATOM     21  H4  HIZ d   1      24.451   6.116  21.040  0.00  0.00     0.083 H 
ATOM     22  CAI HIZ d   1      25.235   2.827  21.469  0.00  0.00    -0.075 A 
ATOM     23  H6  HIZ d   1      26.196   4.664  22.023  0.00  0.00     0.083 H 
ATOM     24  H8  HIZ d   1      26.000   2.194  21.905  0.00  0.00     0.084 H 
ENDBRANCH  11  14
ENDBRANCH  10  11
ENDBRANCH   7  10
ENDBRANCH   1   7
BRANCH   1  25
ATOM     25  CAZ HIZ d   1      21.254   1.191  18.126  0.00  0.00     0.076 A 
ATOM     26  CAL HIZ d   1      20.177   0.854  18.877  0.00  0.00    -0.015 A 
ATOM     27  SAT HIZ d   1      19.158   2.210  18.900  0.00  0.00    -0.062 SA
ATOM     28  H11 HIZ d   1      20.000  -0.101  19.369  0.00  0.00     0.098 H 
ATOM     29  CBA HIZ d   1      20.213   3.187  17.938  0.00  0.00     0.174 A 
ATOM     30  NAP HIZ d   1      21.272   2.440  17.600  0.00  0.00    -0.226 NA
ATOM     31  NAR HIZ d   1      20.007   4.436  17.483  0.00  0.00    -0.287 N 
ATOM     32  CAU HIZ d   1      18.825   5.053  17.625  0.00  0.00     0.326 C 
ATOM     33  H18 HIZ d   1      20.755   4.917  17.027  0.00  0.00     0.172 HD
ATOM     34  OAB HIZ d   1      17.909   4.511  18.235  0.00  0.00    -0.247 OA
ATOM     35  NAQ HIZ d   1      18.681   6.285  17.123  0.00  0.00    -0.309 N 
ATOM     36  H17 HIZ d   1      19.467   6.720  16.684  0.00  0.00     0.170 HD
BRANCH  35  37
ATOM     37  CAX HIZ d   1      17.516   6.962  17.187  0.00  0.00     0.038 A 
ATOM     38  CAK HIZ d   1      17.083   7.554  15.998  0.00  0.00    -0.054 A 
ATOM     39  CAJ HIZ d   1      15.871   8.248  15.942  0.00  0.00    -0.042 A 
ATOM     40  H10 HIZ d   1      17.695   7.474  15.107  0.00  0.00     0.087 H 
ATOM     41  CAW HIZ d   1      15.062   8.358  17.073  0.00  0.00     0.138 A 
ATOM     42  H9  HIZ d   1      15.557   8.705  15.011  0.00  0.00     0.088 H 
ATOM     43  FAC HIZ d   1      13.876   9.033  17.048  0.00  0.00    -0.204 F 
ATOM     44  CAY HIZ d   1      15.480   7.759  18.255  0.00  0.00     0.074 A 
ATOM     45 CLAD HIZ d   1      14.438   7.918  19.624  0.00  0.00    -0.081 Cl
ATOM     46  CAM HIZ d   1      16.694   7.058  18.321  0.00  0.00    -0.033 A 
ATOM     47  H12 HIZ d   1      16.998   6.589  19.250  0.00  0.00     0.089 H 
ENDBRANCH  35  37
ENDBRANCH   1  25
TORSDOF 7
