REMARK WARNING: 32 MAX_TORS EXCEEDED!!!
REMARK  52 active torsions:
REMARK  status: ('A' for Active; 'I' for Inactive)
REMARK    1  A    between atoms: N_1  and  CA_2 
REMARK    2  A    between atoms: CA_2  and  C_3 
REMARK    3  A    between atoms: CA_2  and  CB_5 
REMARK       I    between atoms: C_3  and  N_9 
REMARK    4  A    between atoms: CB_5  and  CG_6 
REMARK    5  A    between atoms: N_9  and  CA_10 
REMARK    6  A    between atoms: CA_10  and  CB_11 
REMARK    7  A    between atoms: CA_10  and  C_21 
REMARK    8  A    between atoms: CB_11  and  CG_12 
REMARK       I    between atoms: C_21  and  N_23 
REMARK    9  A    between atoms: N_23  and  CA_24 
REMARK   10  A    between atoms: CA_24  and  CB_25 
REMARK   11  A    between atoms: CA_24  and  C_35 
REMARK   12  A    between atoms: CB_25  and  CG_26 
REMARK       I    between atoms: C_35  and  N_37 
REMARK   13  A    between atoms: CA_38  and  C_42 
REMARK       I    between atoms: C_42  and  N_44 
REMARK   14  A    between atoms: N_44  and  CA_45 
REMARK   15  A    between atoms: CA_45  and  CB_46 
REMARK   16  A    between atoms: CA_45  and  C_50 
REMARK   17  A    between atoms: CB_46  and  CG_47 
REMARK   18  A    between atoms: CG_47  and  CD1_48 
REMARK   19  A    between atoms: CG_47  and  CD2_49 
REMARK       I    between atoms: C_50  and  N_52 
REMARK   20  A    between atoms: N_52  and  CA_53 
REMARK   21  A    between atoms: CA_53  and  CB_54 
REMARK   22  A    between atoms: CA_53  and  C_55 
REMARK       I    between atoms: C_55  and  N_57 
REMARK   23  A    between atoms: N_57  and  CA_58 
REMARK   24  A    between atoms: CA_58  and  C_59 
REMARK   25  A    between atoms: CA_58  and  CB_61 
REMARK       I    between atoms: C_59  and  N_68 
REMARK   26  A    between atoms: CB_61  and  CG_62 
REMARK   27  A    between atoms: N_68  and  CA_69 
REMARK   28  A    between atoms: CA_69  and  C_70 
REMARK   29  A    between atoms: CA_69  and  CB_72 
REMARK       I    between atoms: C_70  and  N_77 
REMARK   30  A    between atoms: CB_72  and  CG_73 
REMARK   31  A    between atoms: CG_73  and  CD_74 
REMARK   32  A    between atoms: N_77  and  CA_78 
REMARK   33  A    between atoms: CA_78  and  CB_79 
REMARK   34  A    between atoms: CA_78  and  C_80 
REMARK       I    between atoms: C_80  and  N_82 
REMARK   35  A    between atoms: N_82  and  CA_83 
REMARK   36  A    between atoms: CA_83  and  CB_84 
REMARK   37  A    between atoms: CA_83  and  C_88 
REMARK   38  A    between atoms: CB_84  and  CG_85 
REMARK   39  A    between atoms: CG_85  and  CD1_86 
REMARK   40  A    between atoms: CG_85  and  CD2_87 
REMARK       I    between atoms: C_88  and  N_90 
REMARK   41  A    between atoms: N_90  and  CA_91 
REMARK   42  A    between atoms: CA_91  and  CB_92 
REMARK   43  A    between atoms: CA_91  and  C_96 
REMARK   44  A    between atoms: CB_92  and  CG_93 
REMARK   45  A    between atoms: CG_93  and  CD1_94 
REMARK   46  A    between atoms: CG_93  and  CD2_95 
REMARK       I    between atoms: C_96  and  N_98 
REMARK   47  A    between atoms: N_98  and  CA_99 
REMARK   48  A    between atoms: CA_99  and  CB_100 
REMARK   49  A    between atoms: CA_99  and  C_107 
REMARK   50  A    between atoms: CB_100  and  CG_101 
REMARK   51  A    between atoms: CG_101  and  CD_102 
REMARK   52  A    between atoms: CD_102  and  NE_103 
REMARK       I    between atoms: NE_103  and  CZ_104 
REMARK       I    between atoms: CZ_104  and  NH1_105 
REMARK       I    between atoms: CZ_104  and  NH2_106 
ROOT
ATOM      1  C   DAL d   1      19.296  -3.767  20.970  0.00  0.00     0.240 C 
ATOM      2  O   DAL d   1      18.601  -3.302  20.047  0.00  0.00    -0.271 OA
ATOM      3  N   DPN d   1      18.963  -4.863  21.642  0.00  0.00    -0.346 N 
ATOM      4  H50 DPN d   1      19.557  -5.178  22.382  0.00  0.00     0.163 HD
ENDROOT
BRANCH   3   5
ATOM      5  CA  DPN d   1      17.731  -5.636  21.326  0.00  0.00     0.093 C 
ATOM      6  H51 DPN d   1      16.906  -4.938  21.123  0.00  0.00     0.088 H 
BRANCH   5   7
ATOM      7  C   DPN d   1      17.995  -6.487  20.113  0.00  0.00     0.241 C 
ATOM      8  O   DPN d   1      17.128  -6.627  19.269  0.00  0.00    -0.271 OA
ATOM      9  N   DGL d   1      19.205  -7.046  20.013  0.00  0.00    -0.346 N 
ATOM     10  H59 DGL d   1      19.860  -6.939  20.761  0.00  0.00     0.163 HD
BRANCH   9  11
ATOM     11  CA  DGL d   1      19.581  -7.804  18.839  0.00  0.00     0.090 C 
ATOM     12  H60 DGL d   1      18.866  -8.624  18.677  0.00  0.00     0.087 H 
BRANCH  11  13
ATOM     13  C   DGL d   1      19.608  -6.903  17.604  0.00  0.00     0.241 C 
ATOM     14  O   DGL d   1      19.255  -7.357  16.523  0.00  0.00    -0.271 OA
ATOM     15  N   DAL d   1      20.026  -5.641  17.757  0.00  0.00    -0.346 N 
ATOM     16  H65 DAL d   1      20.347  -5.343  18.656  0.00  0.00     0.163 HD
BRANCH  15  17
ATOM     17  CA  DAL d   1      20.029  -4.664  16.631  0.00  0.00     0.086 C 
ATOM     18  H66 DAL d   1      20.590  -5.094  15.788  0.00  0.00     0.086 H 
BRANCH  17  19
ATOM     19  CB  DAL d   1      20.658  -3.389  17.012  0.00  0.00    -0.049 C 
ATOM     20  H67 DAL d   1      20.639  -2.700  16.155  0.00  0.00     0.030 H 
ATOM     21  H68 DAL d   1      21.700  -3.570  17.314  0.00  0.00     0.030 H 
ATOM     22  H69 DAL d   1      20.105  -2.944  17.852  0.00  0.00     0.030 H 
ENDBRANCH  17  19
BRANCH  17  23
ATOM     23  C   DAL d   1      18.589  -4.422  16.205  0.00  0.00     0.240 C 
ATOM     24  O   DAL d   1      18.272  -4.368  15.001  0.00  0.00    -0.271 OA
ATOM     25  N   DLE d   1      17.697  -4.320  17.185  0.00  0.00    -0.346 N 
ATOM     26  H70 DLE d   1      17.993  -4.313  18.140  0.00  0.00     0.163 HD
BRANCH  25  27
ATOM     27  CA  DLE d   1      16.261  -4.217  16.844  0.00  0.00     0.089 C 
ATOM     28  H71 DLE d   1      16.151  -3.292  16.260  0.00  0.00     0.087 H 
BRANCH  27  29
ATOM     29  CB  DLE d   1      15.334  -4.106  18.077  0.00  0.00    -0.035 C 
ATOM     30  H72 DLE d   1      15.578  -4.895  18.803  0.00  0.00     0.037 H 
ATOM     31  H73 DLE d   1      14.283  -4.204  17.768  0.00  0.00     0.037 H 
BRANCH  29  32
ATOM     32  CG  DLE d   1      15.569  -2.729  18.702  0.00  0.00    -0.059 C 
ATOM     33  H74 DLE d   1      16.650  -2.636  18.882  0.00  0.00     0.038 H 
BRANCH  32  34
ATOM     34  CD1 DLE d   1      15.145  -1.598  17.765  0.00  0.00    -0.073 C 
ATOM     35  H75 DLE d   1      15.331  -0.629  18.252  0.00  0.00     0.028 H 
ATOM     36  H76 DLE d   1      14.073  -1.694  17.536  0.00  0.00     0.028 H 
ATOM     37  H77 DLE d   1      15.726  -1.657  16.833  0.00  0.00     0.028 H 
ENDBRANCH  32  34
BRANCH  32  38
ATOM     38  CD2 DLE d   1      14.850  -2.539  20.050  0.00  0.00    -0.073 C 
ATOM     39  H78 DLE d   1      15.143  -3.345  20.739  0.00  0.00     0.028 H 
ATOM     40  H79 DLE d   1      13.762  -2.569  19.893  0.00  0.00     0.028 H 
ATOM     41  H80 DLE d   1      15.131  -1.567  20.482  0.00  0.00     0.028 H 
ENDBRANCH  32  38
ENDBRANCH  29  32
ENDBRANCH  27  29
BRANCH  27  42
ATOM     42  C   DLE d   1      15.737  -5.340  16.009  0.00  0.00     0.241 C 
ATOM     43  O   DLE d   1      15.022  -5.102  15.020  0.00  0.00    -0.271 OA
ATOM     44  N   DLE d   1      16.082  -6.569  16.399  0.00  0.00    -0.346 N 
ATOM     45  H81 DLE d   1      16.742  -6.672  17.143  0.00  0.00     0.163 HD
BRANCH  44  46
ATOM     46  CA  DLE d   1      15.538  -7.746  15.787  0.00  0.00     0.089 C 
ATOM     47  H82 DLE d   1      14.440  -7.686  15.777  0.00  0.00     0.087 H 
BRANCH  46  48
ATOM     48  CB  DLE d   1      15.960  -9.001  16.554  0.00  0.00    -0.035 C 
ATOM     49  H83 DLE d   1      16.940  -8.778  17.000  0.00  0.00     0.037 H 
ATOM     50  H84 DLE d   1      16.071  -9.800  15.806  0.00  0.00     0.037 H 
BRANCH  48  51
ATOM     51  CG  DLE d   1      15.095  -9.576  17.676  0.00  0.00    -0.059 C 
ATOM     52  H85 DLE d   1      15.703 -10.334  18.192  0.00  0.00     0.038 H 
BRANCH  51  53
ATOM     53  CD1 DLE d   1      14.650  -8.574  18.718  0.00  0.00    -0.073 C 
ATOM     54  H86 DLE d   1      14.037  -9.082  19.477  0.00  0.00     0.028 H 
ATOM     55  H87 DLE d   1      14.056  -7.783  18.236  0.00  0.00     0.028 H 
ATOM     56  H88 DLE d   1      15.533  -8.128  19.198  0.00  0.00     0.028 H 
ENDBRANCH  51  53
BRANCH  51  57
ATOM     57  CD2 DLE d   1      13.871 -10.263  17.104  0.00  0.00    -0.073 C 
ATOM     58  H89 DLE d   1      14.183 -10.995  16.344  0.00  0.00     0.028 H 
ATOM     59  H90 DLE d   1      13.212  -9.513  16.642  0.00  0.00     0.028 H 
ATOM     60  H91 DLE d   1      13.330 -10.780  17.910  0.00  0.00     0.028 H 
ENDBRANCH  51  57
ENDBRANCH  48  51
ENDBRANCH  46  48
BRANCH  46  61
ATOM     61  C   DLE d   1      16.065  -7.783  14.358  0.00  0.00     0.241 C 
ATOM     62  O   DLE d   1      15.376  -8.261  13.453  0.00  0.00    -0.271 OA
ATOM     63  N   DAR d   1      17.277  -7.260  14.163  0.00  0.00    -0.345 N 
ATOM     64  H92 DAR d   1      17.765  -6.861  14.940  0.00  0.00     0.163 HD
BRANCH  63  65
ATOM     65  CA  DAR d   1      17.905  -7.253  12.862  0.00  0.00     0.096 C 
ATOM     66  H93 DAR d   1      17.677  -8.210  12.371  0.00  0.00     0.089 H 
BRANCH  65  67
ATOM     67  CB  DAR d   1      19.441  -7.226  13.083  0.00  0.00    -0.035 C 
ATOM     68  H94 DAR d   1      19.790  -8.220  13.399  0.00  0.00     0.036 H 
ATOM     69  H95 DAR d   1      19.694  -6.485  13.856  0.00  0.00     0.036 H 
BRANCH  67  70
ATOM     70  CG  DAR d   1      20.099  -6.843  11.766  0.00  0.00    -0.047 C 
ATOM     71  H96 DAR d   1      19.881  -5.786  11.555  0.00  0.00     0.035 H 
ATOM     72  H97 DAR d   1      19.681  -7.471  10.965  0.00  0.00     0.035 H 
BRANCH  70  73
ATOM     73  CD  DAR d   1      21.617  -7.035  11.800  0.00  0.00     0.009 C 
ATOM     74  H98 DAR d   1      21.931  -7.564  12.712  0.00  0.00     0.064 H 
ATOM     75  H99 DAR d   1      22.142  -6.071  11.736  0.00  0.00     0.064 H 
BRANCH  73  76
ATOM     76  NE  DAR d   1      21.856  -7.853  10.600  0.00  0.00    -0.227 N 
ATOM     77  CZ  DAR d   1      22.519  -9.032  10.494  0.00  0.00     0.665 C 
ATOM     78  NH1 DAR d   1      23.078  -9.594  11.572  0.00  0.00    -0.235 N 
ATOM     79  NH2 DAR d   1      22.633  -9.665   9.320  0.00  0.00    -0.235 N 
ATOM     80 1H10 DAR d   1      23.580 -10.489  11.484  0.00  0.00     0.174 HD
ATOM     81 2H10 DAR d   1      23.006  -9.131  12.489  0.00  0.00     0.174 HD
ATOM     82 3H10 DAR d   1      22.213  -9.257   8.472  0.00  0.00     0.174 HD
ATOM     83 4H10 DAR d   1      23.140 -10.560   9.264  0.00  0.00     0.174 HD
ATOM     84 0H10 DAR d   1      21.467  -7.480   9.722  0.00  0.00     0.177 HD
ENDBRANCH  73  76
ENDBRANCH  70  73
ENDBRANCH  67  70
ENDBRANCH  65  67
BRANCH  65  85
ATOM     85  C   DAR d   1      17.299  -6.178  11.980  0.00  0.00     0.196 C 
ATOM     86  O   DAR d   1      16.891  -6.427  10.847  0.00  0.00    -0.646 OA
ATOM     87  OXT DAR d   1      17.113  -4.999  12.342  0.00  0.00    -0.646 OA
ENDBRANCH  65  85
ENDBRANCH  63  65
ENDBRANCH  46  61
ENDBRANCH  44  46
ENDBRANCH  27  42
ENDBRANCH  25  27
ENDBRANCH  17  23
ENDBRANCH  15  17
ENDBRANCH  11  13
BRANCH  11  88
ATOM     88  CB  DGL d   1      20.999  -8.379  19.104  0.00  0.00    -0.029 C 
ATOM     89  H61 DGL d   1      21.610  -7.614  19.605  0.00  0.00     0.037 H 
ATOM     90  H62 DGL d   1      21.463  -8.649  18.144  0.00  0.00     0.037 H 
BRANCH  88  91
ATOM     91  CG  DGL d   1      20.924  -9.629  19.998  0.00  0.00     0.018 C 
ATOM     92  H63 DGL d   1      20.328 -10.399  19.487  0.00  0.00     0.049 H 
ATOM     93  H64 DGL d   1      20.440  -9.361  20.949  0.00  0.00     0.049 H 
BRANCH  91  94
ATOM     94  CD  DGL d   1      22.296 -10.181  20.285  0.00  0.00     0.172 C 
ATOM     95  OE1 DGL d   1      22.864  -9.910  21.381  0.00  0.00    -0.648 OA
ATOM     96  OE2 DGL d   1      22.794 -10.887  19.391  0.00  0.00    -0.648 OA
ENDBRANCH  91  94
ENDBRANCH  88  91
ENDBRANCH  11  88
ENDBRANCH   9  11
ENDBRANCH   5   7
BRANCH   5  97
ATOM     97  CB  DPN d   1      17.340  -6.562  22.479  0.00  0.00    -0.014 C 
ATOM     98  H52 DPN d   1      17.189  -5.949  23.380  0.00  0.00     0.043 H 
ATOM     99  H53 DPN d   1      18.166  -7.268  22.651  0.00  0.00     0.043 H 
BRANCH  97 100
ATOM    100  CG  DPN d   1      16.064  -7.366  22.226  0.00  0.00    -0.056 A 
ATOM    101  CD1 DPN d   1      16.057  -8.741  22.350  0.00  0.00    -0.077 A 
ATOM    102  CE1 DPN d   1      14.877  -9.485  22.125  0.00  0.00    -0.082 A 
ATOM    103  H54 DPN d   1      16.970  -9.257  22.624  0.00  0.00     0.084 H 
ATOM    104  CZ  DPN d   1      13.702  -8.845  21.753  0.00  0.00    -0.083 A 
ATOM    105  H56 DPN d   1      14.889 -10.562  22.244  0.00  0.00     0.083 H 
ATOM    106  CE2 DPN d   1      13.705  -7.469  21.607  0.00  0.00    -0.082 A 
ATOM    107  H58 DPN d   1      12.796  -9.415  21.580  0.00  0.00     0.083 H 
ATOM    108  CD2 DPN d   1      14.896  -6.732  21.871  0.00  0.00    -0.077 A 
ATOM    109  H57 DPN d   1      12.805  -6.953  21.293  0.00  0.00     0.083 H 
ATOM    110  H55 DPN d   1      14.881  -5.651  21.791  0.00  0.00     0.084 H 
ENDBRANCH  97 100
ENDBRANCH   5  97
ENDBRANCH   3   5
BRANCH   1 111
ATOM    111  CA  DAL d   1      20.629  -3.114  21.354  0.00  0.00     0.086 C 
ATOM    112  H46 DAL d   1      21.038  -2.624  20.458  0.00  0.00     0.086 H 
BRANCH 111 113
ATOM    113  N   DAL d   1      21.609  -4.111  21.805  0.00  0.00    -0.346 N 
ATOM    114  C   DLE d   1      22.154  -4.971  20.968  0.00  0.00     0.241 C 
ATOM    115  O   DLE d   1      21.997  -4.921  19.714  0.00  0.00    -0.271 OA
ATOM    116  H45 DAL d   1      21.869  -4.138  22.770  0.00  0.00     0.163 HD
BRANCH 114 117
ATOM    117  CA  DLE d   1      23.066  -5.976  21.566  0.00  0.00     0.089 C 
ATOM    118  H35 DLE d   1      23.014  -6.896  20.966  0.00  0.00     0.087 H 
BRANCH 117 119
ATOM    119  N   DLE d   1      22.742  -6.326  22.944  0.00  0.00    -0.346 N 
ATOM    120  C   DPR d   1      21.608  -6.946  23.260  0.00  0.00     0.241 C 
ATOM    121  O   DPR d   1      20.626  -7.049  22.510  0.00  0.00    -0.271 OA
ATOM    122  H34 DLE d   1      23.389  -6.094  23.670  0.00  0.00     0.163 HD
BRANCH 120 123
ATOM    123  CA  DPR d   1      21.701  -7.716  24.561  0.00  0.00     0.091 C 
ATOM    124  N   DPR d   1      22.457  -7.351  25.745  0.00  0.00    -0.337 N 
ATOM    125  C   DTR d   1      22.358  -6.389  26.696  0.00  0.00     0.243 C 
ATOM    126  CD  DPR d   1      23.626  -8.262  25.795  0.00  0.00    -0.001 C 
ATOM    127  O   DTR d   1      23.269  -6.136  27.463  0.00  0.00    -0.271 OA
ATOM    128  CG  DPR d   1      23.173  -9.410  24.773  0.00  0.00    -0.048 C 
ATOM    129  H32 DPR d   1      23.781  -8.663  26.808  0.00  0.00     0.064 H 
ATOM    130  H33 DPR d   1      24.543  -7.759  25.455  0.00  0.00     0.064 H 
ATOM    131  CB  DPR d   1      21.592  -9.172  24.599  0.00  0.00    -0.036 C 
ATOM    132  H30 DPR d   1      23.693  -9.304  23.810  0.00  0.00     0.035 H 
ATOM    133  H31 DPR d   1      23.375 -10.407  25.191  0.00  0.00     0.035 H 
ATOM    134  H28 DPR d   1      21.191  -9.599  23.668  0.00  0.00     0.036 H 
ATOM    135  H29 DPR d   1      21.004  -9.539  25.453  0.00  0.00     0.036 H 
ATOM    136  H27 DPR d   1      20.696  -7.445  24.918  0.00  0.00     0.087 H 
BRANCH 125 137
ATOM    137  CA  DTR d   1      21.070  -5.569  26.797  0.00  0.00     0.093 C 
ATOM    138  H18 DTR d   1      20.488  -5.711  25.874  0.00  0.00     0.088 H 
BRANCH 137 139
ATOM    139  N   DTR d   1      21.343  -4.144  26.954  0.00  0.00    -0.346 N 
ATOM    140  C   DTR d   1      21.528  -3.374  25.888  0.00  0.00     0.241 C 
ATOM    141  O   DTR d   1      21.514  -3.817  24.704  0.00  0.00    -0.271 OA
ATOM    142  H17 DTR d   1      21.391  -3.745  27.870  0.00  0.00     0.163 HD
BRANCH 140 143
ATOM    143  CA  DTR d   1      21.785  -1.890  26.197  0.00  0.00     0.093 C 
ATOM    144  H8  DTR d   1      22.031  -1.391  25.248  0.00  0.00     0.088 H 
BRANCH 143 145
ATOM    145  N   DTR d   1      22.934  -1.706  27.119  0.00  0.00    -0.346 N 
ATOM    146  C   DAS d   1      24.178  -2.045  26.779  0.00  0.00     0.249 C 
ATOM    147  O   DAS d   1      24.474  -2.490  25.685  0.00  0.00    -0.271 OA
ATOM    148  H7  DTR d   1      22.770  -1.315  28.025  0.00  0.00     0.163 HD
BRANCH 146 149
ATOM    149  CA  DAS d   1      25.273  -1.861  27.816  0.00  0.00     0.185 C 
ATOM    150  H4  DAS d   1      25.291  -0.821  28.174  0.00  0.00     0.100 H 
BRANCH 149 151
ATOM    151  N   DAS d   1      26.627  -2.222  27.236  0.00  0.00    -0.066 N 
ATOM    152  H1  DAS d   1      27.338  -2.093  27.938  0.00  0.00     0.275 HD
ATOM    153  H2  DAS d   1      26.823  -1.628  26.446  0.00  0.00     0.275 HD
ATOM    154  H3  DAS d   1      26.619  -3.185  26.938  0.00  0.00     0.275 HD
ENDBRANCH 149 151
BRANCH 149 155
ATOM    155  CB  DAS d   1      24.933  -2.802  28.940  0.00  0.00     0.050 C 
ATOM    156  H5  DAS d   1      25.060  -3.840  28.599  0.00  0.00     0.052 H 
ATOM    157  H6  DAS d   1      23.889  -2.642  29.247  0.00  0.00     0.052 H 
BRANCH 155 158
ATOM    158  CG  DAS d   1      25.842  -2.546  30.109  0.00  0.00     0.175 C 
ATOM    159  OD1 DAS d   1      25.322  -2.647  31.248  0.00  0.00    -0.648 OA
ATOM    160  OD2 DAS d   1      27.041  -2.250  29.918  0.00  0.00    -0.648 OA
ENDBRANCH 155 158
ENDBRANCH 149 155
ENDBRANCH 146 149
ENDBRANCH 143 145
BRANCH 143 161
ATOM    161  CB  DTR d   1      20.524  -1.213  26.778  0.00  0.00    -0.012 C 
ATOM    162  H9  DTR d   1      20.826  -0.254  27.224  0.00  0.00     0.044 H 
ATOM    163  H10 DTR d   1      20.115  -1.868  27.561  0.00  0.00     0.044 H 
BRANCH 161 164
ATOM    164  CG  DTR d   1      19.430  -0.940  25.779  0.00  0.00    -0.028 A 
ATOM    165  CD1 DTR d   1      19.241   0.219  25.061  0.00  0.00    -0.015 A 
ATOM    166  NE1 DTR d   1      18.121   0.112  24.274  0.00  0.00    -0.365 N 
ATOM    167  H11 DTR d   1      19.887   1.095  25.110  0.00  0.00     0.112 H 
ATOM    168  CE2 DTR d   1      17.573  -1.131  24.450  0.00  0.00     0.042 A 
ATOM    169  H12 DTR d   1      17.753   0.847  23.653  0.00  0.00     0.165 HD
ATOM    170  CZ2 DTR d   1      16.438  -1.702  23.852  0.00  0.00    -0.056 A 
ATOM    171  CD2 DTR d   1      18.366  -1.823  25.395  0.00  0.00    -0.002 A 
ATOM    172  CH2 DTR d   1      16.098  -2.983  24.219  0.00  0.00    -0.081 A 
ATOM    173  H13 DTR d   1      15.850  -1.152  23.126  0.00  0.00     0.086 H 
ATOM    174  CZ3 DTR d   1      16.851  -3.689  25.179  0.00  0.00    -0.082 A 
ATOM    175  H14 DTR d   1      15.237  -3.458  23.763  0.00  0.00     0.083 H 
ATOM    176  CE3 DTR d   1      17.994  -3.125  25.773  0.00  0.00    -0.070 A 
ATOM    177  H15 DTR d   1      16.542  -4.688  25.465  0.00  0.00     0.083 H 
ATOM    178  H16 DTR d   1      18.573  -3.679  26.503  0.00  0.00     0.084 H 
ENDBRANCH 161 164
ENDBRANCH 143 161
ENDBRANCH 140 143
ENDBRANCH 137 139
BRANCH 137 179
ATOM    179  CB  DTR d   1      20.249  -6.092  27.995  0.00  0.00    -0.012 C 
ATOM    180  H19 DTR d   1      19.314  -5.518  28.080  0.00  0.00     0.044 H 
ATOM    181  H20 DTR d   1      20.834  -5.980  28.920  0.00  0.00     0.044 H 
BRANCH 179 182
ATOM    182  CG  DTR d   1      19.940  -7.501  27.779  0.00  0.00    -0.028 A 
ATOM    183  CD1 DTR d   1      20.728  -8.584  28.085  0.00  0.00    -0.015 A 
ATOM    184  NE1 DTR d   1      20.119  -9.740  27.650  0.00  0.00    -0.365 N 
ATOM    185  H21 DTR d   1      21.689  -8.536  28.595  0.00  0.00     0.112 H 
ATOM    186  CE2 DTR d   1      18.953  -9.404  27.007  0.00  0.00     0.042 A 
ATOM    187  H22 DTR d   1      20.478 -10.696  27.784  0.00  0.00     0.165 HD
ATOM    188  CZ2 DTR d   1      17.994 -10.223  26.385  0.00  0.00    -0.056 A 
ATOM    189  CD2 DTR d   1      18.818  -8.001  27.062  0.00  0.00    -0.002 A 
ATOM    190  CH2 DTR d   1      16.911  -9.603  25.814  0.00  0.00    -0.081 A 
ATOM    191  H23 DTR d   1      18.106 -11.301  26.358  0.00  0.00     0.086 H 
ATOM    192  CZ3 DTR d   1      16.746  -8.194  25.861  0.00  0.00    -0.082 A 
ATOM    193  H24 DTR d   1      16.162 -10.206  25.314  0.00  0.00     0.083 H 
ATOM    194  CE3 DTR d   1      17.693  -7.392  26.462  0.00  0.00    -0.070 A 
ATOM    195  H25 DTR d   1      15.865  -7.743  25.419  0.00  0.00     0.083 H 
ATOM    196  H26 DTR d   1      17.577  -6.314  26.474  0.00  0.00     0.084 H 
ENDBRANCH 179 182
ENDBRANCH 137 179
ENDBRANCH 125 137
ENDBRANCH 120 123
ENDBRANCH 117 119
BRANCH 117 197
ATOM    197  CB  DLE d   1      24.485  -5.391  21.472  0.00  0.00    -0.035 C 
ATOM    198  H36 DLE d   1      24.609  -4.626  22.252  0.00  0.00     0.037 H 
ATOM    199  H37 DLE d   1      24.617  -4.930  20.482  0.00  0.00     0.037 H 
BRANCH 197 200
ATOM    200  CG  DLE d   1      25.560  -6.485  21.665  0.00  0.00    -0.059 C 
ATOM    201  H38 DLE d   1      25.577  -6.743  22.734  0.00  0.00     0.038 H 
BRANCH 200 202
ATOM    202  CD1 DLE d   1      25.205  -7.738  20.886  0.00  0.00    -0.073 C 
ATOM    203  H39 DLE d   1      25.984  -8.499  21.040  0.00  0.00     0.028 H 
ATOM    204  H40 DLE d   1      25.135  -7.497  19.815  0.00  0.00     0.028 H 
ATOM    205  H41 DLE d   1      24.238  -8.127  21.238  0.00  0.00     0.028 H 
ENDBRANCH 200 202
BRANCH 200 206
ATOM    206  CD2 DLE d   1      26.973  -6.019  21.278  0.00  0.00    -0.073 C 
ATOM    207  H42 DLE d   1      27.227  -5.111  21.844  0.00  0.00     0.028 H 
ATOM    208  H43 DLE d   1      27.005  -5.800  20.201  0.00  0.00     0.028 H 
ATOM    209  H44 DLE d   1      27.698  -6.812  21.513  0.00  0.00     0.028 H 
ENDBRANCH 200 206
ENDBRANCH 197 200
ENDBRANCH 117 197
ENDBRANCH 114 117
ENDBRANCH 111 113
BRANCH 111 210
ATOM    210  CB  DAL d   1      20.397  -2.030  22.426  0.00  0.00    -0.049 C 
ATOM    211  H47 DAL d   1      19.660  -1.302  22.057  0.00  0.00     0.030 H 
ATOM    212  H48 DAL d   1      21.346  -1.516  22.639  0.00  0.00     0.030 H 
ATOM    213  H49 DAL d   1      20.020  -2.499  23.346  0.00  0.00     0.030 H 
ENDBRANCH 111 210
ENDBRANCH   1 111
TORSDOF 52
