REMARK  3 active torsions:
REMARK  status: ('A' for Active; 'I' for Inactive)
REMARK    1  A    between atoms: B_1  and  O1_2 
REMARK    2  A    between atoms: B_1  and  O2_3 
REMARK    3  A    between atoms: B_1  and  C1_4 
ROOT
ATOM      1  C1  BZB d   1      71.844   5.946  24.347  0.00  0.00     0.010 A 
ATOM      2  C2  BZB d   1      71.930   7.311  24.033  0.00  0.00    -0.064 A 
ATOM      3  C8  BZB d   1      73.025   7.020  26.250  0.00  0.00     0.014 A 
ATOM      4  C3  BZB d   1      72.628   7.947  25.162  0.00  0.00    -0.019 A 
ATOM      5  C7  BZB d   1      73.691   7.429  27.410  0.00  0.00    -0.066 A 
ATOM      6  S   BZB d   1      72.539   5.467  25.857  0.00  0.00    -0.101 SA
ATOM      7  C4  BZB d   1      72.968   9.295  25.348  0.00  0.00    -0.072 A 
ATOM      8  C6  BZB d   1      74.003   8.794  27.528  0.00  0.00    -0.082 A 
ATOM      9  C5  BZB d   1      73.644   9.698  26.514  0.00  0.00    -0.082 A 
ATOM     10  H   BZB d   1      71.555   7.801  23.134  0.00  0.00     0.085 H 
ATOM     11  H   BZB d   1      73.957   6.717  28.191  0.00  0.00     0.085 H 
ATOM     12  H   BZB d   1      72.708  10.032  24.588  0.00  0.00     0.084 H 
ATOM     13  H   BZB d   1      74.528   9.154  28.413  0.00  0.00     0.083 H 
ATOM     14  H   BZB d   1      73.899  10.751  26.635  0.00  0.00     0.083 H 
ENDROOT
BRANCH   1  15
ATOM     15  B   BZB d   1      71.232   4.816  23.487  0.00  0.00     0.536 B 
BRANCH  15  16
ATOM     16  O1  BZB d   1      70.603   5.143  22.131  0.00  0.00    -0.433 OA
ATOM     17  H   BZB d   1      69.945   4.478  21.916  0.00  0.00     0.185 HD
ENDBRANCH  15  16
BRANCH  15  18
ATOM     18  O2  BZB d   1      71.955   3.464  23.623  0.00  0.00    -0.433 OA
ATOM     19  H   BZB d   1      71.335   2.752  23.450  0.00  0.00     0.185 HD
ENDBRANCH  15  18
ENDBRANCH   1  15
TORSDOF 3
