REMARK  27 active torsions:
REMARK  status: ('A' for Active; 'I' for Inactive)
REMARK       I    between atoms: C34_2  and  N4_3 
REMARK    1  A    between atoms: C34_2  and  C30_12 
REMARK    2  A    between atoms: N4_3  and  C35_4 
REMARK    3  A    between atoms: C35_4  and  C36_5 
REMARK    4  A    between atoms: C35_4  and  C37_11 
REMARK    5  A    between atoms: C32_14  and  N5_15 
REMARK    6  A    between atoms: N5_15  and  S_16 
REMARK    7  A    between atoms: N5_15  and  C43_20 
REMARK    8  A    between atoms: S_16  and  C44_18 
REMARK    9  A    between atoms: C27_23  and  C28_24 
REMARK       I    between atoms: C28_24  and  N1_26 
REMARK   10  A    between atoms: N1_26  and  C5_27 
REMARK   11  A    between atoms: C5_27  and  C6_28 
REMARK   12  A    between atoms: C5_27  and  C1_38 
REMARK   13  A    between atoms: C6_28  and  O2_29 
REMARK   14  A    between atoms: O2_29  and  C21_30 
REMARK   15  A    between atoms: C1_38  and  O1_39 
REMARK   16  A    between atoms: C1_38  and  C3_40 
REMARK   17  A    between atoms: C3_40  and  C2_41 
REMARK   18  A    between atoms: C2_41  and  O9_42 
REMARK   19  A    between atoms: C2_41  and  C4_44 
REMARK   20  A    between atoms: O9_42  and  C45_43 
REMARK       I    between atoms: C4_44  and  N2_46 
REMARK   21  A    between atoms: N2_46  and  C8_47 
REMARK   22  A    between atoms: C8_47  and  C10_48 
REMARK   23  A    between atoms: C8_47  and  C9_51 
REMARK   24  A    between atoms: C10_48  and  C12_49 
REMARK   25  A    between atoms: C10_48  and  C11_50 
REMARK       I    between atoms: C9_51  and  N3_53 
REMARK   26  A    between atoms: N3_53  and  C13_54 
REMARK   27  A    between atoms: C13_54  and  C14_55 
ROOT
ATOM      1  C5  586 d   1      -2.195  17.206  34.399  0.00  0.00     0.058 C 
ATOM      2  H21 586 d   1      -1.784  17.724  35.278  0.00  0.00     0.079 H 
ENDROOT
BRANCH   1   3
ATOM      3  N1  586 d   1      -1.157  17.181  33.387  0.00  0.00    -0.348 N 
ATOM      4  C28 586 d   1       0.137  17.405  33.647  0.00  0.00     0.252 C 
ATOM      5  O5  586 d   1       0.548  17.637  34.767  0.00  0.00    -0.268 OA
ATOM      6  H20 586 d   1      -1.422  16.986  32.443  0.00  0.00     0.163 HD
BRANCH   4   7
ATOM      7  C27 586 d   1       1.106  17.403  32.509  0.00  0.00     0.035 A 
ATOM      8  C33 586 d   1       2.342  16.747  32.564  0.00  0.00    -0.041 A 
ATOM      9  C32 586 d   1       3.211  16.787  31.468  0.00  0.00     0.046 A 
ATOM     10  H18 586 d   1       2.627  16.206  33.459  0.00  0.00     0.088 H 
ATOM     11  C31 586 d   1       2.836  17.519  30.337  0.00  0.00    -0.041 A 
ATOM     12  C30 586 d   1       1.614  18.186  30.299  0.00  0.00     0.035 A 
ATOM     13  H11 586 d   1       3.502  17.568  29.483  0.00  0.00     0.088 H 
ATOM     14  C29 586 d   1       0.752  18.130  31.375  0.00  0.00    -0.052 A 
ATOM     15  H19 586 d   1      -0.198  18.650  31.338  0.00  0.00     0.086 H 
BRANCH   9  16
ATOM     16  N5  586 d   1       4.458  16.125  31.546  0.00  0.00    -0.281 N 
BRANCH  16  17
ATOM     17  S   586 d   1       5.220  15.552  30.315  0.00  0.00     0.228 S 
ATOM     18  O8  586 d   1       5.985  14.410  30.713  0.00  0.00    -0.206 OA
ATOM     19  O7  586 d   1       4.310  15.195  29.287  0.00  0.00    -0.206 OA
BRANCH  17  20
ATOM     20  C44 586 d   1       6.280  16.713  29.722  0.00  0.00     0.033 C 
ATOM     21  H12 586 d   1       6.818  16.308  28.852  0.00  0.00     0.051 H 
ATOM     22  H13 586 d   1       7.002  16.985  30.506  0.00  0.00     0.051 H 
ATOM     23  H14 586 d   1       5.714  17.606  29.419  0.00  0.00     0.051 H 
ENDBRANCH  17  20
ENDBRANCH  16  17
BRANCH  16  24
ATOM     24  C43 586 d   1       5.072  16.029  32.874  0.00  0.00    -0.004 C 
ATOM     25  H15 586 d   1       4.402  16.480  33.621  0.00  0.00     0.058 H 
ATOM     26  H16 586 d   1       6.033  16.564  32.873  0.00  0.00     0.058 H 
ATOM     27  H17 586 d   1       5.241  14.971  33.124  0.00  0.00     0.058 H 
ENDBRANCH  16  24
ENDBRANCH   9  16
BRANCH  12  28
ATOM     28  C34 586 d   1       1.199  18.961  29.092  0.00  0.00     0.252 C 
ATOM     29  O6  586 d   1       2.049  19.502  28.412  0.00  0.00    -0.268 OA
ATOM     30  N4  586 d   1      -0.099  19.029  28.811  0.00  0.00    -0.349 N 
ATOM     31  H1  586 d   1      -0.741  18.577  29.430  0.00  0.00     0.163 HD
BRANCH  30  32
ATOM     32  C35 586 d   1      -0.637  19.724  27.654  0.00  0.00     0.034 C 
ATOM     33  H2  586 d   1       0.116  20.434  27.282  0.00  0.00     0.079 H 
BRANCH  32  34
ATOM     34  C36 586 d   1      -0.931  18.719  26.580  0.00  0.00    -0.036 A 
ATOM     35  C42 586 d   1      -1.793  17.633  26.794  0.00  0.00    -0.075 A 
ATOM     36  C41 586 d   1      -2.050  16.728  25.772  0.00  0.00    -0.082 A 
ATOM     37  H3  586 d   1      -2.261  17.499  27.762  0.00  0.00     0.084 H 
ATOM     38  C40 586 d   1      -1.435  16.884  24.529  0.00  0.00    -0.083 A 
ATOM     39  H4  586 d   1      -2.729  15.900  25.940  0.00  0.00     0.083 H 
ATOM     40  C39 586 d   1      -0.570  17.952  24.303  0.00  0.00    -0.082 A 
ATOM     41  H5  586 d   1      -1.631  16.171  23.736  0.00  0.00     0.083 H 
ATOM     42  C38 586 d   1      -0.322  18.860  25.337  0.00  0.00    -0.075 A 
ATOM     43  H6  586 d   1      -0.095  18.078  23.337  0.00  0.00     0.083 H 
ATOM     44  H7  586 d   1       0.356  19.688  25.167  0.00  0.00     0.084 H 
ENDBRANCH  32  34
BRANCH  32  45
ATOM     45  C37 586 d   1      -1.895  20.503  28.027  0.00  0.00    -0.053 C 
ATOM     46  H8  586 d   1      -2.284  21.020  27.137  0.00  0.00     0.030 H 
ATOM     47  H9  586 d   1      -1.651  21.243  28.804  0.00  0.00     0.030 H 
ATOM     48  H10 586 d   1      -2.657  19.808  28.409  0.00  0.00     0.030 H 
ENDBRANCH  32  45
ENDBRANCH  30  32
ENDBRANCH  12  28
ENDBRANCH   4   7
ENDBRANCH   1   3
BRANCH   1  49
ATOM     49  C6  586 d   1      -3.406  18.016  33.885  0.00  0.00     0.047 C 
ATOM     50  H22 586 d   1      -3.834  18.569  34.734  0.00  0.00     0.078 H 
ATOM     51  H23 586 d   1      -4.152  17.308  33.495  0.00  0.00     0.078 H 
BRANCH  49  52
ATOM     52  O2  586 d   1      -3.100  18.953  32.852  0.00  0.00    -0.349 OA
BRANCH  52  53
ATOM     53  C21 586 d   1      -2.315  20.076  33.061  0.00  0.00     0.074 A 
ATOM     54  C26 586 d   1      -1.872  20.815  31.962  0.00  0.00    -0.013 A 
ATOM     55  C25 586 d   1      -1.066  21.942  32.160  0.00  0.00     0.121 A 
ATOM     56  H24 586 d   1      -2.152  20.517  30.958  0.00  0.00     0.092 H 
ATOM     57  F54 586 d   1      -0.638  22.653  31.112  0.00  0.00    -0.206 F 
ATOM     58  C24 586 d   1      -0.682  22.332  33.438  0.00  0.00    -0.008 A 
ATOM     59  C23 586 d   1      -1.112  21.600  34.538  0.00  0.00     0.121 A 
ATOM     60  H25 586 d   1      -0.051  23.202  33.576  0.00  0.00     0.092 H 
ATOM     61  F55 586 d   1      -0.759  21.990  35.782  0.00  0.00    -0.206 F 
ATOM     62  C22 586 d   1      -1.935  20.478  34.350  0.00  0.00    -0.013 A 
ATOM     63  H26 586 d   1      -2.280  19.916  35.210  0.00  0.00     0.092 H 
ENDBRANCH  52  53
ENDBRANCH  49  52
ENDBRANCH   1  49
BRANCH   1  64
ATOM     64  C1  586 d   1      -2.653  15.821  34.859  0.00  0.00     0.060 C 
ATOM     65  H27 586 d   1      -3.433  15.939  35.625  0.00  0.00     0.086 H 
BRANCH  64  66
ATOM     66  O1  586 d   1      -3.210  15.137  33.729  0.00  0.00    -0.393 OA
ATOM     67  H28 586 d   1      -3.949  15.632  33.393  0.00  0.00     0.210 HD
ENDBRANCH  64  66
BRANCH  64  68
ATOM     68  C3  586 d   1      -1.508  15.040  35.463  0.00  0.00    -0.007 C 
ATOM     69  H29 586 d   1      -0.780  15.748  35.885  0.00  0.00     0.041 H 
ATOM     70  H30 586 d   1      -1.026  14.447  34.672  0.00  0.00     0.041 H 
BRANCH  68  71
ATOM     71  C2  586 d   1      -1.977  14.096  36.570  0.00  0.00     0.117 C 
ATOM     72  H31 586 d   1      -2.983  13.719  36.336  0.00  0.00     0.098 H 
BRANCH  71  73
ATOM     73  O9  586 d   1      -1.040  12.997  36.641  0.00  0.00    -0.381 OA
BRANCH  73  74
ATOM     74  C45 586 d   1      -1.531  11.906  37.424  0.00  0.00     0.005 C 
ATOM     75  H32 586 d   1      -0.781  11.102  37.444  0.00  0.00     0.066 H 
ATOM     76  H33 586 d   1      -2.463  11.527  36.980  0.00  0.00     0.066 H 
ATOM     77  H34 586 d   1      -1.726  12.250  38.450  0.00  0.00     0.066 H 
ENDBRANCH  73  74
ENDBRANCH  71  73
BRANCH  71  78
ATOM     78  C4  586 d   1      -2.004  14.811  37.899  0.00  0.00     0.247 C 
ATOM     79  O3  586 d   1      -1.004  15.409  38.242  0.00  0.00    -0.271 OA
ATOM     80  N2  586 d   1      -3.121  14.748  38.642  0.00  0.00    -0.345 N 
ATOM     81  H35 586 d   1      -3.916  14.265  38.274  0.00  0.00     0.163 HD
BRANCH  80  82
ATOM     82  C8  586 d   1      -3.222  15.353  39.960  0.00  0.00     0.092 C 
ATOM     83  H36 586 d   1      -2.979  16.419  39.841  0.00  0.00     0.088 H 
BRANCH  82  84
ATOM     84  C10 586 d   1      -4.596  15.256  40.625  0.00  0.00    -0.033 C 
ATOM     85  H37 586 d   1      -4.415  15.254  41.710  0.00  0.00     0.042 H 
BRANCH  84  86
ATOM     86  C12 586 d   1      -5.403  16.499  40.308  0.00  0.00    -0.071 C 
ATOM     87  H38 586 d   1      -6.391  16.427  40.787  0.00  0.00     0.028 H 
ATOM     88  H39 586 d   1      -5.529  16.586  39.219  0.00  0.00     0.028 H 
ATOM     89  H40 586 d   1      -4.875  17.386  40.688  0.00  0.00     0.028 H 
ENDBRANCH  84  86
BRANCH  84  90
ATOM     90  C11 586 d   1      -5.379  13.992  40.331  0.00  0.00    -0.071 C 
ATOM     91  H41 586 d   1      -4.762  13.114  40.573  0.00  0.00     0.028 H 
ATOM     92  H42 586 d   1      -5.649  13.968  39.265  0.00  0.00     0.028 H 
ATOM     93  H43 586 d   1      -6.294  13.977  40.942  0.00  0.00     0.028 H 
ENDBRANCH  84  90
ENDBRANCH  82  84
BRANCH  82  94
ATOM     94  C9  586 d   1      -2.242  14.740  40.925  0.00  0.00     0.241 C 
ATOM     95  O4  586 d   1      -1.984  13.542  40.847  0.00  0.00    -0.271 OA
ATOM     96  N3  586 d   1      -1.689  15.546  41.843  0.00  0.00    -0.355 N 
ATOM     97  H44 586 d   1      -1.942  16.514  41.851  0.00  0.00     0.162 HD
BRANCH  96  98
ATOM     98  C13 586 d   1      -0.731  15.059  42.830  0.00  0.00     0.019 C 
ATOM     99  H45 586 d   1      -0.520  13.995  42.648  0.00  0.00     0.071 H 
ATOM    100  H46 586 d   1      -1.146  15.182  43.841  0.00  0.00     0.071 H 
BRANCH  98 101
ATOM    101  C14 586 d   1       0.547  15.862  42.702  0.00  0.00    -0.041 A 
ATOM    102  C19 586 d   1       0.951  16.707  43.750  0.00  0.00    -0.075 A 
ATOM    103  C18 586 d   1       2.119  17.464  43.650  0.00  0.00    -0.082 A 
ATOM    104  H47 586 d   1       0.347  16.771  44.648  0.00  0.00     0.084 H 
ATOM    105  C17 586 d   1       2.894  17.355  42.500  0.00  0.00    -0.083 A 
ATOM    106  H48 586 d   1       2.417  18.126  44.455  0.00  0.00     0.083 H 
ATOM    107  C16 586 d   1       2.505  16.497  41.462  0.00  0.00    -0.082 A 
ATOM    108  H49 586 d   1       3.804  17.937  42.406  0.00  0.00     0.083 H 
ATOM    109  C15 586 d   1       1.330  15.752  41.558  0.00  0.00    -0.075 A 
ATOM    110  H50 586 d   1       3.124  16.412  40.576  0.00  0.00     0.083 H 
ATOM    111  H51 586 d   1       1.030  15.095  40.750  0.00  0.00     0.084 H 
ENDBRANCH  98 101
ENDBRANCH  96  98
ENDBRANCH  82  94
ENDBRANCH  80  82
ENDBRANCH  71  78
ENDBRANCH  68  71
ENDBRANCH  64  68
ENDBRANCH   1  64
TORSDOF 27
