REMARK  27 active torsions:
REMARK  status: ('A' for Active; 'I' for Inactive)
REMARK       I    between atoms: C34_2  and  N4_3 
REMARK    1  A    between atoms: C34_2  and  C30_12 
REMARK    2  A    between atoms: N4_3  and  C35_4 
REMARK    3  A    between atoms: C35_4  and  C36_5 
REMARK    4  A    between atoms: C35_4  and  C37_11 
REMARK    5  A    between atoms: C32_14  and  N5_15 
REMARK    6  A    between atoms: N5_15  and  S_16 
REMARK    7  A    between atoms: N5_15  and  C43_20 
REMARK    8  A    between atoms: S_16  and  C44_18 
REMARK    9  A    between atoms: C27_23  and  C28_24 
REMARK       I    between atoms: C28_24  and  N1_26 
REMARK   10  A    between atoms: N1_26  and  C5_27 
REMARK   11  A    between atoms: C5_27  and  C6_28 
REMARK   12  A    between atoms: C5_27  and  C1_39 
REMARK   13  A    between atoms: C6_28  and  O2_29 
REMARK   14  A    between atoms: O2_29  and  C20_30 
REMARK   15  A    between atoms: C20_30  and  C21_31 
REMARK   16  A    between atoms: C1_39  and  O1_40 
REMARK   17  A    between atoms: C1_39  and  C3_41 
REMARK   18  A    between atoms: C3_41  and  C2_42 
REMARK   19  A    between atoms: C2_42  and  C7_43 
REMARK   20  A    between atoms: C2_42  and  C4_44 
REMARK       I    between atoms: C4_44  and  N2_46 
REMARK   21  A    between atoms: N2_46  and  C8_47 
REMARK   22  A    between atoms: C8_47  and  C10_48 
REMARK   23  A    between atoms: C8_47  and  C9_51 
REMARK   24  A    between atoms: C10_48  and  C12_49 
REMARK   25  A    between atoms: C10_48  and  C11_50 
REMARK       I    between atoms: C9_51  and  N3_53 
REMARK   26  A    between atoms: N3_53  and  C13_54 
REMARK   27  A    between atoms: C13_54  and  C14_55 
ROOT
ATOM      1  C5  929 d   1      -2.008  17.373  34.358  0.00  0.00     0.058 C 
ATOM      2  H21 929 d   1      -1.595  17.851  35.259  0.00  0.00     0.079 H 
ENDROOT
BRANCH   1   3
ATOM      3  N1  929 d   1      -0.999  17.390  33.307  0.00  0.00    -0.348 N 
ATOM      4  C28 929 d   1       0.319  17.491  33.506  0.00  0.00     0.252 C 
ATOM      5  O5  929 d   1       0.784  17.516  34.626  0.00  0.00    -0.268 OA
ATOM      6  H20 929 d   1      -1.318  17.321  32.362  0.00  0.00     0.163 HD
BRANCH   4   7
ATOM      7  C27 929 d   1       1.285  17.514  32.334  0.00  0.00     0.035 A 
ATOM      8  C33 929 d   1       2.494  16.822  32.334  0.00  0.00    -0.041 A 
ATOM      9  C32 929 d   1       3.384  16.833  31.263  0.00  0.00     0.046 A 
ATOM     10  H18 929 d   1       2.756  16.245  33.214  0.00  0.00     0.088 H 
ATOM     11  C31 929 d   1       3.105  17.578  30.126  0.00  0.00    -0.041 A 
ATOM     12  C30 929 d   1       1.910  18.273  30.147  0.00  0.00     0.035 A 
ATOM     13  H11 929 d   1       3.779  17.613  29.278  0.00  0.00     0.088 H 
ATOM     14  C29 929 d   1       0.997  18.260  31.201  0.00  0.00    -0.052 A 
ATOM     15  H19 929 d   1       0.074  18.826  31.136  0.00  0.00     0.086 H 
BRANCH   9  16
ATOM     16  N5  929 d   1       4.564  16.063  31.353  0.00  0.00    -0.281 N 
BRANCH  16  17
ATOM     17  S   929 d   1       5.338  15.534  30.117  0.00  0.00     0.228 S 
ATOM     18  O8  929 d   1       6.086  14.387  30.686  0.00  0.00    -0.206 OA
ATOM     19  O7  929 d   1       4.465  15.342  28.989  0.00  0.00    -0.206 OA
BRANCH  17  20
ATOM     20  C44 929 d   1       6.515  16.678  29.705  0.00  0.00     0.033 C 
ATOM     21  H12 929 d   1       7.079  16.325  28.829  0.00  0.00     0.051 H 
ATOM     22  H13 929 d   1       7.203  16.818  30.552  0.00  0.00     0.051 H 
ATOM     23  H14 929 d   1       6.028  17.635  29.466  0.00  0.00     0.051 H 
ENDBRANCH  17  20
ENDBRANCH  16  17
BRANCH  16  24
ATOM     24  C43 929 d   1       5.032  15.736  32.727  0.00  0.00    -0.004 C 
ATOM     25  H15 929 d   1       4.358  16.198  33.464  0.00  0.00     0.058 H 
ATOM     26  H16 929 d   1       6.051  16.124  32.869  0.00  0.00     0.058 H 
ATOM     27  H17 929 d   1       5.032  14.645  32.864  0.00  0.00     0.058 H 
ENDBRANCH  16  24
ENDBRANCH   9  16
BRANCH  12  28
ATOM     28  C34 929 d   1       1.484  19.023  28.969  0.00  0.00     0.252 C 
ATOM     29  O6  929 d   1       2.296  19.468  28.200  0.00  0.00    -0.268 OA
ATOM     30  N4  929 d   1       0.177  19.092  28.830  0.00  0.00    -0.349 N 
ATOM     31  H1  929 d   1      -0.417  18.666  29.512  0.00  0.00     0.163 HD
BRANCH  30  32
ATOM     32  C35 929 d   1      -0.410  19.780  27.697  0.00  0.00     0.034 C 
ATOM     33  H2  929 d   1       0.338  20.469  27.278  0.00  0.00     0.079 H 
BRANCH  32  34
ATOM     34  C36 929 d   1      -0.717  18.746  26.669  0.00  0.00    -0.036 A 
ATOM     35  C42 929 d   1      -1.616  17.703  26.950  0.00  0.00    -0.075 A 
ATOM     36  C41 929 d   1      -1.899  16.781  25.944  0.00  0.00    -0.082 A 
ATOM     37  H3  929 d   1      -2.079  17.618  27.927  0.00  0.00     0.084 H 
ATOM     38  C40 929 d   1      -1.289  16.874  24.684  0.00  0.00    -0.083 A 
ATOM     39  H4  929 d   1      -2.602  15.979  26.138  0.00  0.00     0.083 H 
ATOM     40  C39 929 d   1      -0.383  17.887  24.397  0.00  0.00    -0.082 A 
ATOM     41  H5  929 d   1      -1.529  16.142  23.921  0.00  0.00     0.083 H 
ATOM     42  C38 929 d   1      -0.098  18.811  25.417  0.00  0.00    -0.075 A 
ATOM     43  H6  929 d   1       0.087  17.962  23.423  0.00  0.00     0.083 H 
ATOM     44  H7  929 d   1       0.623  19.598  25.227  0.00  0.00     0.084 H 
ENDBRANCH  32  34
BRANCH  32  45
ATOM     45  C37 929 d   1      -1.622  20.621  28.115  0.00  0.00    -0.053 C 
ATOM     46  H8  929 d   1      -2.040  21.127  27.232  0.00  0.00     0.030 H 
ATOM     47  H9  929 d   1      -1.309  21.373  28.854  0.00  0.00     0.030 H 
ATOM     48  H10 929 d   1      -2.387  19.967  28.559  0.00  0.00     0.030 H 
ENDBRANCH  32  45
ENDBRANCH  30  32
ENDBRANCH  12  28
ENDBRANCH   4   7
ENDBRANCH   1   3
BRANCH   1  49
ATOM     49  C6  929 d   1      -3.253  18.098  33.884  0.00  0.00     0.041 C 
ATOM     50  H22 929 d   1      -3.598  18.820  34.639  0.00  0.00     0.077 H 
ATOM     51  H23 929 d   1      -4.061  17.385  33.663  0.00  0.00     0.077 H 
BRANCH  49  52
ATOM     52  O2  929 d   1      -2.831  18.761  32.710  0.00  0.00    -0.385 OA
BRANCH  52  53
ATOM     53  C20 929 d   1      -2.889  20.151  32.932  0.00  0.00     0.043 C 
ATOM     54  H24 929 d   1      -3.432  20.317  33.874  0.00  0.00     0.081 H 
ATOM     55  H25 929 d   1      -3.452  20.600  32.100  0.00  0.00     0.081 H 
BRANCH  53  56
ATOM     56  C21 929 d   1      -1.568  20.867  33.031  0.00  0.00    -0.029 A 
ATOM     57  C26 929 d   1      -0.995  21.528  31.948  0.00  0.00    -0.037 A 
ATOM     58  C25 929 d   1       0.193  22.228  32.156  0.00  0.00     0.119 A 
ATOM     59  H26 929 d   1      -1.460  21.499  30.969  0.00  0.00     0.089 H 
ATOM     60  F1  929 d   1       0.845  22.889  31.193  0.00  0.00    -0.206 F 
ATOM     61  C24 929 d   1       0.787  22.275  33.399  0.00  0.00    -0.009 A 
ATOM     62  C23 929 d   1       0.222  21.622  34.477  0.00  0.00     0.119 A 
ATOM     63  H27 929 d   1       1.708  22.831  33.532  0.00  0.00     0.092 H 
ATOM     64  F2  929 d   1       0.828  21.687  35.674  0.00  0.00    -0.206 F 
ATOM     65  C22 929 d   1      -0.966  20.918  34.285  0.00  0.00    -0.037 A 
ATOM     66  H28 929 d   1      -1.426  20.405  35.122  0.00  0.00     0.089 H 
ENDBRANCH  53  56
ENDBRANCH  52  53
ENDBRANCH  49  52
ENDBRANCH   1  49
BRANCH   1  67
ATOM     67  C1  929 d   1      -2.506  15.981  34.687  0.00  0.00     0.058 C 
ATOM     68  H29 929 d   1      -3.368  16.072  35.364  0.00  0.00     0.086 H 
BRANCH  67  69
ATOM     69  O1  929 d   1      -2.995  15.366  33.478  0.00  0.00    -0.393 OA
ATOM     70  H30 929 d   1      -3.705  15.888  33.124  0.00  0.00     0.210 HD
ENDBRANCH  67  69
BRANCH  67  71
ATOM     71  C3  929 d   1      -1.412  15.242  35.467  0.00  0.00    -0.028 C 
ATOM     72  H31 929 d   1      -0.803  15.971  36.021  0.00  0.00     0.038 H 
ATOM     73  H32 929 d   1      -0.772  14.689  34.763  0.00  0.00     0.038 H 
BRANCH  71  74
ATOM     74  C2  929 d   1      -2.047  14.264  36.449  0.00  0.00     0.022 C 
ATOM     75  H33 929 d   1      -3.054  13.991  36.102  0.00  0.00     0.054 H 
BRANCH  74  76
ATOM     76  C7  929 d   1      -1.140  13.035  36.407  0.00  0.00    -0.065 C 
ATOM     77  H34 929 d   1      -1.528  12.269  37.094  0.00  0.00     0.028 H 
ATOM     78  H35 929 d   1      -0.122  13.320  36.712  0.00  0.00     0.028 H 
ATOM     79  H36 929 d   1      -1.117  12.631  35.384  0.00  0.00     0.028 H 
ENDBRANCH  74  76
BRANCH  74  80
ATOM     80  C4  929 d   1      -2.172  14.853  37.842  0.00  0.00     0.222 C 
ATOM     81  O3  929 d   1      -1.194  15.419  38.309  0.00  0.00    -0.273 OA
ATOM     82  N2  929 d   1      -3.309  14.819  38.565  0.00  0.00    -0.347 N 
ATOM     83  H37 929 d   1      -4.147  14.421  38.192  0.00  0.00     0.163 HD
BRANCH  82  84
ATOM     84  C8  929 d   1      -3.275  15.382  39.910  0.00  0.00     0.092 C 
ATOM     85  H38 929 d   1      -3.101  16.467  39.863  0.00  0.00     0.088 H 
BRANCH  84  86
ATOM     86  C10 929 d   1      -4.535  15.104  40.690  0.00  0.00    -0.033 C 
ATOM     87  H39 929 d   1      -4.194  14.671  41.642  0.00  0.00     0.042 H 
BRANCH  86  88
ATOM     88  C12 929 d   1      -5.272  16.370  41.079  0.00  0.00    -0.071 C 
ATOM     89  H40 929 d   1      -6.179  16.108  41.643  0.00  0.00     0.028 H 
ATOM     90  H41 929 d   1      -5.553  16.924  40.171  0.00  0.00     0.028 H 
ATOM     91  H42 929 d   1      -4.619  16.997  41.705  0.00  0.00     0.028 H 
ENDBRANCH  86  88
BRANCH  86  92
ATOM     92  C11 929 d   1      -5.404  14.030  40.068  0.00  0.00    -0.071 C 
ATOM     93  H43 929 d   1      -4.785  13.155  39.821  0.00  0.00     0.028 H 
ATOM     94  H44 929 d   1      -5.870  14.421  39.151  0.00  0.00     0.028 H 
ATOM     95  H45 929 d   1      -6.188  13.735  40.781  0.00  0.00     0.028 H 
ENDBRANCH  86  92
ENDBRANCH  84  86
BRANCH  84  96
ATOM     96  C9  929 d   1      -2.142  14.680  40.603  0.00  0.00     0.241 C 
ATOM     97  O4  929 d   1      -2.135  13.461  40.537  0.00  0.00    -0.271 OA
ATOM     98  N3  929 d   1      -1.215  15.341  41.298  0.00  0.00    -0.355 N 
ATOM     99  H46 929 d   1      -1.260  16.337  41.372  0.00  0.00     0.162 HD
BRANCH  98 100
ATOM    100  C13 929 d   1      -0.133  14.605  41.952  0.00  0.00     0.019 C 
ATOM    101  H47 929 d   1       0.277  13.851  41.264  0.00  0.00     0.071 H 
ATOM    102  H48 929 d   1      -0.511  14.109  42.858  0.00  0.00     0.071 H 
BRANCH 100 103
ATOM    103  C14 929 d   1       0.935  15.599  42.319  0.00  0.00    -0.041 A 
ATOM    104  C19 929 d   1       0.834  16.322  43.520  0.00  0.00    -0.075 A 
ATOM    105  C18 929 d   1       1.798  17.277  43.874  0.00  0.00    -0.082 A 
ATOM    106  H49 929 d   1      -0.003  16.138  44.184  0.00  0.00     0.084 H 
ATOM    107  C17 929 d   1       2.868  17.502  43.000  0.00  0.00    -0.083 A 
ATOM    108  H50 929 d   1       1.716  17.829  44.804  0.00  0.00     0.083 H 
ATOM    109  C16 929 d   1       2.960  16.769  41.804  0.00  0.00    -0.082 A 
ATOM    110  H51 929 d   1       3.624  18.240  43.245  0.00  0.00     0.083 H 
ATOM    111  C15 929 d   1       1.999  15.811  41.452  0.00  0.00    -0.075 A 
ATOM    112  H52 929 d   1       3.795  16.949  41.137  0.00  0.00     0.083 H 
ATOM    113  H53 929 d   1       2.084  15.251  40.528  0.00  0.00     0.084 H 
ENDBRANCH 100 103
ENDBRANCH  98 100
ENDBRANCH  84  96
ENDBRANCH  82  84
ENDBRANCH  74  80
ENDBRANCH  71  74
ENDBRANCH  67  71
ENDBRANCH   1  67
TORSDOF 27
