REMARK  1 active torsions:
REMARK  status: ('A' for Active; 'I' for Inactive)
REMARK    1  A    between atoms: CAN_14  and  CAQ_17 
ROOT
ATOM      1  CAA 1DR d   1      25.958  47.713  -0.683  0.00  0.00     0.043 A 
ATOM      2  CAB 1DR d   1      25.594  46.499  -1.253  0.00  0.00    -0.056 A 
ATOM      3  CAC 1DR d   1      25.209  45.466  -0.402  0.00  0.00    -0.081 A 
ATOM      4  CAD 1DR d   1      25.193  45.656   0.993  0.00  0.00    -0.082 A 
ATOM      5  CAE 1DR d   1      25.553  46.867   1.572  0.00  0.00    -0.070 A 
ATOM      6  CAF 1DR d   1      25.948  47.880   0.716  0.00  0.00     0.003 A 
ATOM      7  CAG 1DR d   1      26.345  49.182   0.984  0.00  0.00     0.005 A 
ATOM      8  CAH 1DR d   1      26.588  49.773  -0.259  0.00  0.00     0.071 A 
ATOM      9  NAI 1DR d   1      26.330  48.873  -1.247  0.00  0.00    -0.353 N 
ATOM     10  CAJ 1DR d   1      26.482  49.885   2.168  0.00  0.00    -0.069 A 
ATOM     11  CAK 1DR d   1      26.907  51.219   2.117  0.00  0.00    -0.069 A 
ATOM     12  CAL 1DR d   1      27.157  51.802   0.872  0.00  0.00     0.007 A 
ATOM     13  CAM 1DR d   1      27.007  51.086  -0.308  0.00  0.00     0.071 A 
ATOM     14  CAN 1DR d   1      27.560  53.066   0.456  0.00  0.00     0.029 A 
ATOM     15  CAO 1DR d   1      27.654  53.122  -0.877  0.00  0.00    -0.009 A 
ATOM     16  NAP 1DR d   1      27.305  51.899  -1.335  0.00  0.00    -0.362 N 
ATOM     17  H1  1DR d   1      25.609  46.360  -2.328  0.00  0.00     0.086 H 
ATOM     18  H2  1DR d   1      24.919  44.508  -0.817  0.00  0.00     0.083 H 
ATOM     19  H3  1DR d   1      24.892  44.835   1.633  0.00  0.00     0.083 H 
ATOM     20  H4  1DR d   1      25.526  47.012   2.646  0.00  0.00     0.084 H 
ATOM     21  H5  1DR d   1      26.407  49.052  -2.258  0.00  0.00     0.166 HD
ATOM     22  H6  1DR d   1      26.264  49.412   3.119  0.00  0.00     0.085 H 
ATOM     23  H7  1DR d   1      27.040  51.790   3.029  0.00  0.00     0.085 H 
ATOM     24  H8  1DR d   1      27.952  53.982  -1.475  0.00  0.00     0.112 H 
ATOM     25  H9  1DR d   1      27.272  51.629  -2.329  0.00  0.00     0.165 HD
ENDROOT
BRANCH  14  26
ATOM     26  CAQ 1DR d   1      27.876  54.207   1.417  0.00  0.00     0.120 C 
ATOM     27  OAR 1DR d   1      27.681  54.041   2.621  0.00  0.00    -0.301 OA
ATOM     28  H10 1DR d   1      28.267  55.153   1.044  0.00  0.00     0.151 H 
ENDBRANCH  14  26
TORSDOF 1
