REMARK WARNING: 32 MAX_TORS EXCEEDED!!!
REMARK  37 active torsions:
REMARK  status: ('A' for Active; 'I' for Inactive)
REMARK    1  A    between atoms: N_1  and  CA_2 
REMARK    2  A    between atoms: CA_2  and  C_3 
REMARK    3  A    between atoms: CA_2  and  CB_5 
REMARK       I    between atoms: C_3  and  N_11 
REMARK    4  A    between atoms: CB_5  and  CG_6 
REMARK    5  A    between atoms: N_11  and  CA_12 
REMARK    6  A    between atoms: CA_12  and  C_13 
REMARK    7  A    between atoms: CA_12  and  CB_15 
REMARK       I    between atoms: C_13  and  N_22 
REMARK    8  A    between atoms: CB_15  and  CG_16 
REMARK    9  A    between atoms: CG_16  and  CD_17 
REMARK   10  A    between atoms: CD_17  and  NE_18 
REMARK       I    between atoms: NE_18  and  CZ_19 
REMARK       I    between atoms: CZ_19  and  NH1_20 
REMARK       I    between atoms: CZ_19  and  NH2_21 
REMARK   11  A    between atoms: N_22  and  CA_23 
REMARK   12  A    between atoms: CA_23  and  CB_24 
REMARK   13  A    between atoms: CA_23  and  C_29 
REMARK   14  A    between atoms: CB_24  and  CG_25 
REMARK   15  A    between atoms: CG_25  and  CD_26 
REMARK   16  A    between atoms: CD_26  and  CE_27 
REMARK   17  A    between atoms: CE_27  and  NZ_28 
REMARK   18  A    between atoms: NZ_28  and  CM1_31 
REMARK   19  A    between atoms: NZ_28  and  CM2_32 
REMARK   20  A    between atoms: NZ_28  and  CM3_33 
REMARK       I    between atoms: C_29  and  N_34 
REMARK   21  A    between atoms: N_34  and  CA_35 
REMARK   22  A    between atoms: CA_35  and  C_36 
REMARK   23  A    between atoms: CA_35  and  CB_38 
REMARK       I    between atoms: C_36  and  N_41 
REMARK   24  A    between atoms: CB_38  and  CG1_39 
REMARK   25  A    between atoms: CB_38  and  CG2_40 
REMARK   26  A    between atoms: N_41  and  CA_42 
REMARK   27  A    between atoms: CA_42  and  C_43 
REMARK   28  A    between atoms: CA_42  and  CB_45 
REMARK       I    between atoms: C_43  and  N_49 
REMARK   29  A    between atoms: CB_45  and  CG_46 
REMARK   30  A    between atoms: CG_46  and  CD1_47 
REMARK   31  A    between atoms: CG_46  and  CD2_48 
REMARK   32  A    between atoms: N_49  and  CA_50 
REMARK   33  A    between atoms: CA_50  and  C_51 
REMARK   34  A    between atoms: CA_50  and  CB_53 
REMARK   35  A    between atoms: CB_53  and  CG_54 
REMARK   36  A    between atoms: CG_54  and  CD_55 
REMARK   37  A    between atoms: CD_55  and  NE_56 
REMARK       I    between atoms: NE_56  and  CZ_57 
REMARK       I    between atoms: CZ_57  and  NH1_58 
ROOT
ATOM      1  CA  M3L d   1      17.134  29.384  27.557  0.00  0.00     0.089 C 
ATOM      2  H24 M3L d   1      16.505  29.949  26.853  0.00  0.00     0.087 H 
ENDROOT
BRANCH   1   3
ATOM      3  N   M3L d   1      18.181  30.282  27.991  0.00  0.00    -0.346 N 
ATOM      4  C   ARG d   1      18.004  31.592  28.099  0.00  0.00     0.241 C 
ATOM      5  O   ARG d   1      16.951  32.184  27.832  0.00  0.00    -0.271 OA
ATOM      6  H23 M3L d   1      19.076  29.899  28.219  0.00  0.00     0.163 HD
BRANCH   4   7
ATOM      7  CA  ARG d   1      19.247  32.347  28.612  0.00  0.00     0.089 C 
ATOM      8  H11 ARG d   1      20.079  31.999  27.983  0.00  0.00     0.087 H 
BRANCH   7   9
ATOM      9  N   ARG d   1      19.217  33.780  28.433  0.00  0.00    -0.346 N 
ATOM     10  C   HIS d   1      19.822  34.276  27.351  0.00  0.00     0.249 C 
ATOM     11  O   HIS d   1      20.283  33.557  26.463  0.00  0.00    -0.271 OA
ATOM     12  H10 ARG d   1      18.761  34.377  29.093  0.00  0.00     0.163 HD
BRANCH  10  13
ATOM     13  CA  HIS d   1      19.863  35.795  27.208  0.00  0.00     0.181 C 
ATOM     14  H4  HIS d   1      19.663  36.231  28.198  0.00  0.00     0.099 H 
BRANCH  13  15
ATOM     15  N   HIS d   1      21.209  36.311  26.775  0.00  0.00    -0.066 N 
ATOM     16  H1  HIS d   1      21.175  37.316  26.698  0.00  0.00     0.275 HD
ATOM     17  H2  HIS d   1      21.449  35.913  25.880  0.00  0.00     0.275 HD
ATOM     18  H3  HIS d   1      21.904  36.050  27.456  0.00  0.00     0.275 HD
ENDBRANCH  13  15
BRANCH  13  19
ATOM     19  CB  HIS d   1      18.704  36.214  26.268  0.00  0.00     0.011 C 
ATOM     20  H5  HIS d   1      17.924  35.440  26.319  0.00  0.00     0.046 H 
ATOM     21  H6  HIS d   1      19.098  36.271  25.242  0.00  0.00     0.046 H 
BRANCH  19  22
ATOM     22  CG  HIS d   1      18.072  37.540  26.602  0.00  0.00     0.053 A 
ATOM     23  ND1 HIS d   1      16.755  37.664  27.006  0.00  0.00    -0.247 NA
ATOM     24  CE1 HIS d   1      16.470  38.941  27.189  0.00  0.00     0.064 A 
ATOM     25  NE2 HIS d   1      17.553  39.652  26.924  0.00  0.00    -0.359 N 
ATOM     26  H8  HIS d   1      15.507  39.340  27.504  0.00  0.00     0.143 H 
ATOM     27  CD2 HIS d   1      18.565  38.803  26.542  0.00  0.00     0.002 A 
ATOM     28  H9  HIS d   1      17.627  40.677  26.993  0.00  0.00     0.166 HD
ATOM     29  H7  HIS d   1      19.573  39.090  26.247  0.00  0.00     0.114 H 
ENDBRANCH  19  22
ENDBRANCH  13  19
ENDBRANCH  10  13
ENDBRANCH   7   9
BRANCH   7  30
ATOM     30  CB  ARG d   1      19.599  31.931  30.028  0.00  0.00    -0.036 C 
ATOM     31  H12 ARG d   1      20.693  31.831  30.091  0.00  0.00     0.036 H 
ATOM     32  H13 ARG d   1      19.130  30.955  30.222  0.00  0.00     0.036 H 
BRANCH  30  33
ATOM     33  CG  ARG d   1      19.162  32.869  31.093  0.00  0.00    -0.048 C 
ATOM     34  H14 ARG d   1      18.094  32.707  31.300  0.00  0.00     0.035 H 
ATOM     35  H15 ARG d   1      19.316  33.902  30.749  0.00  0.00     0.035 H 
BRANCH  33  36
ATOM     36  CD  ARG d   1      19.963  32.643  32.379  0.00  0.00     0.009 C 
ATOM     37  H16 ARG d   1      20.715  33.440  32.478  0.00  0.00     0.064 H 
ATOM     38  H17 ARG d   1      20.468  31.668  32.321  0.00  0.00     0.064 H 
BRANCH  36  39
ATOM     39  NE  ARG d   1      19.086  32.660  33.561  0.00  0.00    -0.227 N 
ATOM     40  CZ  ARG d   1      18.195  33.631  33.896  0.00  0.00     0.665 C 
ATOM     41  NH1 ARG d   1      17.994  34.721  33.124  0.00  0.00    -0.235 N 
ATOM     42  NH2 ARG d   1      17.452  33.496  35.014  0.00  0.00    -0.235 N 
ATOM     43  H19 ARG d   1      17.310  35.436  33.410  0.00  0.00     0.174 HD
ATOM     44  H20 ARG d   1      18.524  34.837  32.249  0.00  0.00     0.174 HD
ATOM     45  H21 ARG d   1      17.582  32.676  35.623  0.00  0.00     0.174 HD
ATOM     46  H22 ARG d   1      16.755  34.213  35.258  0.00  0.00     0.174 HD
ATOM     47  H18 ARG d   1      19.154  31.855  34.199  0.00  0.00     0.177 HD
ENDBRANCH  36  39
ENDBRANCH  33  36
ENDBRANCH  30  33
ENDBRANCH   7  30
ENDBRANCH   4   7
ENDBRANCH   1   3
BRANCH   1  48
ATOM     48  CB  M3L d   1      17.726  28.207  26.763  0.00  0.00    -0.038 C 
ATOM     49  H25 M3L d   1      18.308  27.571  27.446  0.00  0.00     0.036 H 
ATOM     50  H26 M3L d   1      18.387  28.602  25.977  0.00  0.00     0.036 H 
BRANCH  48  51
ATOM     51  CG  M3L d   1      16.637  27.370  26.118  0.00  0.00    -0.061 C 
ATOM     52  H27 M3L d   1      16.171  27.942  25.302  0.00  0.00     0.033 H 
ATOM     53  H28 M3L d   1      15.875  27.118  26.870  0.00  0.00     0.033 H 
BRANCH  51  54
ATOM     54  CD  M3L d   1      17.241  26.088  25.559  0.00  0.00    -0.042 C 
ATOM     55  H29 M3L d   1      17.596  25.449  26.381  0.00  0.00     0.035 H 
ATOM     56  H30 M3L d   1      18.081  26.327  24.891  0.00  0.00     0.035 H 
BRANCH  54  57
ATOM     57  CE  M3L d   1      16.112  25.356  24.760  0.00  0.00     0.084 C 
ATOM     58  H31 M3L d   1      15.710  26.064  24.020  0.00  0.00     0.076 H 
ATOM     59  H32 M3L d   1      15.320  25.081  25.472  0.00  0.00     0.076 H 
BRANCH  57  60
ATOM     60  NZ  M3L d   1      16.523  24.118  24.033  0.00  0.00    -0.079 N 
BRANCH  60  61
ATOM     61  CM1 M3L d   1      17.294  24.376  22.802  0.00  0.00     0.067 C 
ATOM     62  H33 M3L d   1      17.558  23.419  22.327  0.00  0.00     0.068 H 
ATOM     63  H34 M3L d   1      18.213  24.926  23.053  0.00  0.00     0.068 H 
ATOM     64  H35 M3L d   1      16.686  24.975  22.108  0.00  0.00     0.068 H 
ENDBRANCH  60  61
BRANCH  60  65
ATOM     65  CM2 M3L d   1      15.335  23.362  23.524  0.00  0.00     0.067 C 
ATOM     66  H36 M3L d   1      14.674  23.109  24.366  0.00  0.00     0.068 H 
ATOM     67  H37 M3L d   1      15.672  22.438  23.032  0.00  0.00     0.068 H 
ATOM     68  H38 M3L d   1      14.787  23.984  22.801  0.00  0.00     0.068 H 
ENDBRANCH  60  65
BRANCH  60  69
ATOM     69  CM3 M3L d   1      17.392  23.295  24.928  0.00  0.00     0.067 C 
ATOM     70  H39 M3L d   1      18.244  23.901  25.269  0.00  0.00     0.068 H 
ATOM     71  H40 M3L d   1      17.762  22.419  24.375  0.00  0.00     0.068 H 
ATOM     72  H41 M3L d   1      16.809  22.960  25.798  0.00  0.00     0.068 H 
ENDBRANCH  60  69
ENDBRANCH  57  60
ENDBRANCH  54  57
ENDBRANCH  51  54
ENDBRANCH  48  51
ENDBRANCH   1  48
BRANCH   1  73
ATOM     73  C   M3L d   1      16.235  28.969  28.671  0.00  0.00     0.241 C 
ATOM     74  O   M3L d   1      15.009  28.820  28.464  0.00  0.00    -0.271 OA
ATOM     75  N   VAL d   1      16.833  28.800  29.855  0.00  0.00    -0.346 N 
ATOM     76  H42 VAL d   1      17.802  29.039  29.918  0.00  0.00     0.163 HD
BRANCH  75  77
ATOM     77  CA  VAL d   1      16.176  28.286  31.085  0.00  0.00     0.092 C 
ATOM     78  H43 VAL d   1      15.088  28.256  30.924  0.00  0.00     0.088 H 
BRANCH  77  79
ATOM     79  C   VAL d   1      16.486  29.235  32.263  0.00  0.00     0.241 C 
ATOM     80  O   VAL d   1      17.585  29.791  32.329  0.00  0.00    -0.271 OA
ATOM     81  N   LEU d   1      15.510  29.467  33.143  0.00  0.00    -0.346 N 
ATOM     82  H51 LEU d   1      14.611  29.060  32.980  0.00  0.00     0.163 HD
BRANCH  81  83
ATOM     83  CA  LEU d   1      15.699  30.296  34.343  0.00  0.00     0.089 C 
ATOM     84  H52 LEU d   1      16.083  31.281  34.040  0.00  0.00     0.087 H 
BRANCH  83  85
ATOM     85  C   LEU d   1      16.710  29.634  35.287  0.00  0.00     0.241 C 
ATOM     86  O   LEU d   1      16.693  28.404  35.473  0.00  0.00    -0.271 OA
ATOM     87  N   ARG d   1      17.571  30.435  35.894  0.00  0.00    -0.345 N 
ATOM     88  H62 ARG d   1      17.464  31.426  35.817  0.00  0.00     0.163 HD
BRANCH  87  89
ATOM     89  CA  ARG d   1      18.689  29.879  36.685  0.00  0.00     0.096 C 
ATOM     90  H63 ARG d   1      18.971  28.937  36.192  0.00  0.00     0.089 H 
BRANCH  89  91
ATOM     91  C   ARG d   1      18.403  29.512  38.170  0.00  0.00     0.196 C 
ATOM     92  O   ARG d   1      17.243  29.395  38.612  0.00  0.00    -0.646 OA
ATOM     93  OXT ARG d   1      19.319  29.316  38.993  0.00  0.00    -0.646 OA
ENDBRANCH  89  91
BRANCH  89  94
ATOM     94  CB  ARG d   1      19.893  30.824  36.592  0.00  0.00    -0.035 C 
ATOM     95  H64 ARG d   1      20.210  30.881  35.540  0.00  0.00     0.036 H 
ATOM     96  H65 ARG d   1      20.710  30.408  37.200  0.00  0.00     0.036 H 
BRANCH  94  97
ATOM     97  CG  ARG d   1      19.594  32.254  37.090  0.00  0.00    -0.047 C 
ATOM     98  H66 ARG d   1      19.124  32.202  38.083  0.00  0.00     0.035 H 
ATOM     99  H67 ARG d   1      18.909  32.749  36.385  0.00  0.00     0.035 H 
BRANCH  97 100
ATOM    100  CD  ARG d   1      20.891  33.061  37.186  0.00  0.00     0.009 C 
ATOM    101  H68 ARG d   1      21.708  32.399  37.510  0.00  0.00     0.064 H 
ATOM    102  H69 ARG d   1      20.762  33.870  37.920  0.00  0.00     0.064 H 
BRANCH 100 103
ATOM    103  NE  ARG d   1      21.225  33.641  35.875  0.00  0.00    -0.227 N 
ATOM    104  CZ  ARG d   1      22.457  33.921  35.434  0.00  0.00     0.665 C 
ATOM    105  NH1 ARG d   1      23.525  33.655  36.181  0.00  0.00    -0.235 N 
ATOM    106  NH2 ARG d   1      22.617  34.461  34.222  0.00  0.00    -0.235 N 
ATOM    107  H71 ARG d   1      24.468  33.876  35.829  0.00  0.00     0.174 HD
ATOM    108  H72 ARG d   1      23.410  33.228  37.111  0.00  0.00     0.174 HD
ATOM    109  H73 ARG d   1      21.794  34.669  33.638  0.00  0.00     0.174 HD
ATOM    110  H74 ARG d   1      23.563  34.669  33.871  0.00  0.00     0.174 HD
ATOM    111  H70 ARG d   1      20.441  33.850  35.241  0.00  0.00     0.177 HD
ENDBRANCH 100 103
ENDBRANCH  97 100
ENDBRANCH  94  97
ENDBRANCH  89  94
ENDBRANCH  87  89
ENDBRANCH  83  85
BRANCH  83 112
ATOM    112  CB  LEU d   1      14.359  30.483  35.070  0.00  0.00    -0.035 C 
ATOM    113  H53 LEU d   1      14.580  30.967  36.033  0.00  0.00     0.037 H 
ATOM    114  H54 LEU d   1      13.948  29.479  35.250  0.00  0.00     0.037 H 
BRANCH 112 115
ATOM    115  CG  LEU d   1      13.253  31.306  34.398  0.00  0.00    -0.059 C 
ATOM    116  H55 LEU d   1      13.141  30.950  33.363  0.00  0.00     0.038 H 
BRANCH 115 117
ATOM    117  CD1 LEU d   1      11.950  31.104  35.112  0.00  0.00    -0.073 C 
ATOM    118  H56 LEU d   1      11.166  31.699  34.620  0.00  0.00     0.028 H 
ATOM    119  H57 LEU d   1      12.052  31.425  36.159  0.00  0.00     0.028 H 
ATOM    120  H58 LEU d   1      11.676  30.039  35.080  0.00  0.00     0.028 H 
ENDBRANCH 115 117
BRANCH 115 121
ATOM    121  CD2 LEU d   1      13.613  32.812  34.354  0.00  0.00    -0.073 C 
ATOM    122  H59 LEU d   1      14.570  32.945  33.828  0.00  0.00     0.028 H 
ATOM    123  H60 LEU d   1      13.702  33.198  35.380  0.00  0.00     0.028 H 
ATOM    124  H61 LEU d   1      12.823  33.362  33.822  0.00  0.00     0.028 H 
ENDBRANCH 115 121
ENDBRANCH 112 115
ENDBRANCH  83 112
ENDBRANCH  81  83
ENDBRANCH  77  79
BRANCH  77 125
ATOM    125  CB  VAL d   1      16.676  26.845  31.408  0.00  0.00    -0.033 C 
ATOM    126  H44 VAL d   1      17.772  26.872  31.495  0.00  0.00     0.042 H 
BRANCH 125 127
ATOM    127  CG1 VAL d   1      16.078  26.312  32.778  0.00  0.00    -0.071 C 
ATOM    128  H45 VAL d   1      16.453  25.296  32.971  0.00  0.00     0.028 H 
ATOM    129  H46 VAL d   1      14.980  26.292  32.716  0.00  0.00     0.028 H 
ATOM    130  H47 VAL d   1      16.387  26.978  33.597  0.00  0.00     0.028 H 
ENDBRANCH 125 127
BRANCH 125 131
ATOM    131  CG2 VAL d   1      16.300  25.888  30.281  0.00  0.00    -0.071 C 
ATOM    132  H48 VAL d   1      16.715  26.258  29.332  0.00  0.00     0.028 H 
ATOM    133  H49 VAL d   1      15.205  25.826  30.203  0.00  0.00     0.028 H 
ATOM    134  H50 VAL d   1      16.709  24.890  30.496  0.00  0.00     0.028 H 
ENDBRANCH 125 131
ENDBRANCH  77 125
ENDBRANCH  75  77
ENDBRANCH   1  73
TORSDOF 37
