REMARK  4 active torsions:
REMARK  status: ('A' for Active; 'I' for Inactive)
REMARK    1  A    between atoms: C4_1  and  N4_15 
REMARK    2  A    between atoms: C6_2  and  CAN_12 
REMARK    3  A    between atoms: C7_3  and  NAB_19 
REMARK    4  A    between atoms: C2_16  and  N2_5 
ROOT
ATOM      1  C4  DX2 d   1       8.335  -9.531  14.869  0.00  0.00     0.173 A 
ATOM      2  C6  DX2 d   1       7.815 -13.007  13.963  0.00  0.00     0.088 A 
ATOM      3  C7  DX2 d   1       9.136 -13.360  13.613  0.00  0.00     0.149 A 
ATOM      4  N1  DX2 d   1      10.863 -10.235  14.135  0.00  0.00    -0.041 NA
ATOM      5  N3  DX2 d   1       9.338  -8.616  14.933  0.00  0.00    -0.043 NA
ATOM      6  N5  DX2 d   1       7.602 -11.735  14.401  0.00  0.00    -0.241 NA
ATOM      7  C4A DX2 d   1       8.600 -10.822  14.442  0.00  0.00     0.151 A 
ATOM      8  C2  DX2 d   1      10.591  -8.969  14.556  0.00  0.00     0.724 A 
ATOM      9  C8A DX2 d   1       9.890 -11.162  14.059  0.00  0.00     0.203 A 
ATOM     10  N8  DX2 d   1      10.138 -12.418  13.630  0.00  0.00    -0.207 NA
ENDROOT
BRANCH   2  11
ATOM     11  CAN DX2 d   1       6.716 -13.857  14.169  0.00  0.00     0.011 C 
ATOM     12  CAG DX2 d   1       5.489 -13.270  14.447  0.00  0.00    -0.093 C 
ATOM     13  CAE DX2 d   1       4.274 -14.006  14.502  0.00  0.00    -0.086 C 
ATOM     14  H   DX2 d   1       5.456 -12.197  14.631  0.00  0.00     0.077 H 
ATOM     15  CAD DX2 d   1       4.090 -15.363  14.161  0.00  0.00    -0.087 C 
ATOM     16  H   DX2 d   1       3.392 -13.466  14.843  0.00  0.00     0.083 H 
ATOM     17  CAF DX2 d   1       5.209 -16.057  13.781  0.00  0.00    -0.102 C 
ATOM     18  H   DX2 d   1       3.109 -15.835  14.198  0.00  0.00     0.083 H 
ATOM     19  CAH DX2 d   1       6.258 -15.096  13.519  0.00  0.00    -0.038 C 
ATOM     20  H   DX2 d   1       5.293 -17.139  13.692  0.00  0.00     0.076 H 
ATOM     21  H   DX2 d   1       6.036 -14.766  12.493  0.00  0.00     0.040 H 
ATOM     22  H   DX2 d   1       7.165 -15.719  13.515  0.00  0.00     0.040 H 
ATOM     23  H   DX2 d   1       7.035 -14.256  15.143  0.00  0.00     0.056 H 
ENDBRANCH   2  11
BRANCH   3  24
ATOM     24  NAB DX2 d   1       9.463 -14.599  13.172  0.00  0.00    -0.382 N 
ATOM     25  H   DX2 d   1      10.439 -14.817  12.927  0.00  0.00     0.157 HD
ATOM     26  H   DX2 d   1       8.735 -15.322  13.082  0.00  0.00     0.157 HD
ENDBRANCH   3  24
BRANCH   1  27
ATOM     27  N4  DX2 d   1       7.075  -9.246  15.252  0.00  0.00    -0.381 N 
ATOM     28  H   DX2 d   1       6.342  -9.967  15.188  0.00  0.00     0.157 HD
ATOM     29  H   DX2 d   1       6.845  -8.307  15.608  0.00  0.00     0.157 HD
ENDBRANCH   1  27
BRANCH   8  30
ATOM     30  N2  DX2 d   1      11.569  -8.047  14.600  0.00  0.00    -0.231 N 
ATOM     31  H   DX2 d   1      12.527  -8.298  14.317  0.00  0.00     0.174 HD
ATOM     32  H   DX2 d   1      11.360  -7.089  14.917  0.00  0.00     0.174 HD
ENDBRANCH   8  30
TORSDOF 4
