REMARK  5 active torsions:
REMARK  status: ('A' for Active; 'I' for Inactive)
REMARK    1  A    between atoms: C6_3  and  NAE_15 
REMARK    2  A    between atoms: CAO_7  and  CAB_8 
REMARK    3  A    between atoms: CAO_7  and  CAC_9 
REMARK    4  A    between atoms: CAJ_10  and  CAA_11 
REMARK    5  A    between atoms: C2_13  and  NAD_14 
ROOT
ATOM      1  C4  DX3 d   1       3.617 -11.304  43.023  0.00  0.00     0.176 A 
ATOM      2  C5  DX3 d   1       2.776 -10.899  44.056  0.00  0.00     0.149 A 
ATOM      3  C6  DX3 d   1       2.747  -9.549  44.396  0.00  0.00     0.173 A 
ATOM      4  N1  DX3 d   1       3.527  -8.680  43.731  0.00  0.00    -0.043 NA
ATOM      5  N3  DX3 d   1       4.373 -10.396  42.390  0.00  0.00    -0.043 NA
ATOM      6  NAI DX3 d   1       3.691 -12.647  42.647  0.00  0.00    -0.358 N 
ATOM      7  CAO DX3 d   1       2.747 -13.653  43.190  0.00  0.00     0.065 C 
ATOM      8  CAJ DX3 d   1       1.939 -13.086  44.383  0.00  0.00     0.037 C 
ATOM      9  NAF DX3 d   1       2.010 -11.786  44.715  0.00  0.00    -0.248 NA
ATOM     10  C2  DX3 d   1       4.327  -9.100  42.734  0.00  0.00     0.724 A 
ATOM     11  H   DX3 d   1       4.416 -12.945  41.979  0.00  0.00     0.162 HD
ENDROOT
BRANCH   7  12
ATOM     12  CAB DX3 d   1       3.547 -14.886  43.630  0.00  0.00    -0.048 C 
ATOM     13  H   DX3 d   1       2.860 -15.643  44.036  0.00  0.00     0.031 H 
ATOM     14  H   DX3 d   1       4.272 -14.596  44.405  0.00  0.00     0.031 H 
ATOM     15  H   DX3 d   1       4.083 -15.303  42.765  0.00  0.00     0.031 H 
ENDBRANCH   7  12
BRANCH   7  16
ATOM     16  CAC DX3 d   1       1.801 -13.998  42.044  0.00  0.00    -0.048 C 
ATOM     17  H   DX3 d   1       1.070 -14.746  42.385  0.00  0.00     0.031 H 
ATOM     18  H   DX3 d   1       2.379 -14.407  41.202  0.00  0.00     0.031 H 
ATOM     19  H   DX3 d   1       1.272 -13.090  41.719  0.00  0.00     0.031 H 
ENDBRANCH   7  16
BRANCH   8  20
ATOM     20  CAA DX3 d   1       1.025 -13.987  45.228  0.00  0.00    -0.037 C 
ATOM     21  H   DX3 d   1       0.548 -13.388  46.018  0.00  0.00     0.035 H 
ATOM     22  H   DX3 d   1       1.623 -14.789  45.686  0.00  0.00     0.035 H 
ATOM     23  H   DX3 d   1       0.250 -14.429  44.585  0.00  0.00     0.035 H 
ENDBRANCH   8  20
BRANCH   3  24
ATOM     24  NAE DX3 d   1       1.957  -9.120  45.376  0.00  0.00    -0.381 N 
ATOM     25  H   DX3 d   1       1.940  -8.120  45.623  0.00  0.00     0.157 HD
ATOM     26  H   DX3 d   1       1.363  -9.787  45.888  0.00  0.00     0.157 HD
ENDBRANCH   3  24
BRANCH  10  27
ATOM     27  NAD DX3 d   1       5.091  -8.232  42.082  0.00  0.00    -0.231 N 
ATOM     28  H   DX3 d   1       5.067  -7.234  42.334  0.00  0.00     0.174 HD
ATOM     29  H   DX3 d   1       5.708  -8.557  41.324  0.00  0.00     0.174 HD
ENDBRANCH  10  27
TORSDOF 5
