REMARK  2 active torsions:
REMARK  status: ('A' for Active; 'I' for Inactive)
REMARK    1  A    between atoms: CAO_9  and  CAS_10 
REMARK    2  A    between atoms: CAN_14  and  NAB_15 
ROOT
ATOM      1  CAS AX1 d   1       0.862 -10.515  46.242  0.00  0.00     0.066 A 
ATOM      2  NAK AX1 d   1       1.453  -9.357  45.927  0.00  0.00    -0.339 N 
ATOM      3  CAU AX1 d   1       2.212  -9.503  44.830  0.00  0.00     0.139 A 
ATOM      4  NAI AX1 d   1       2.983  -8.634  44.141  0.00  0.00    -0.176 N 
ATOM      5  CAN AX1 d   1       3.668  -9.017  43.044  0.00  0.00     0.680 A 
ATOM      6  NAJ AX1 d   1       3.603 -10.339  42.586  0.00  0.00    -0.155 N 
ATOM      7  CAT AX1 d   1       2.815 -11.256  43.276  0.00  0.00     0.275 A 
ATOM      8  OAC AX1 d   1       2.747 -12.421  42.883  0.00  0.00    -0.267 OA
ATOM      9  CAV AX1 d   1       2.120 -10.830  44.405  0.00  0.00     0.100 A 
ATOM     10  CAR AX1 d   1       1.269 -11.453  45.301  0.00  0.00     0.091 A 
ATOM     11  CAD AX1 d   1       0.884 -12.832  45.261  0.00  0.00     0.103 C 
ATOM     12  NAA AX1 d   1       0.566 -13.925  45.242  0.00  0.00    -0.191 NA
ATOM     13  H   AX1 d   1       1.341  -8.478  46.452  0.00  0.00     0.167 HD
ATOM     14  H   AX1 d   1       3.049  -7.657  44.460  0.00  0.00     0.186 HD
ATOM     15  H   AX1 d   1       4.115 -10.620  41.775  0.00  0.00     0.187 HD
ENDROOT
BRANCH   1  16
ATOM     16  CAO AX1 d   1       0.000 -10.813  47.310  0.00  0.00    -0.005 A 
ATOM     17  CAG AX1 d   1       0.026 -10.045  48.477  0.00  0.00    -0.036 A 
ATOM     18  CAQ AX1 d   1      -0.830 -10.359  49.537  0.00  0.00     0.105 A 
ATOM     19  H   AX1 d   1       0.709  -9.207  48.560  0.00  0.00     0.089 H 
ATOM     20  OAM AX1 d   1      -1.004  -9.789  50.762  0.00  0.00    -0.323 OA
ATOM     21  CAP AX1 d   1      -1.712 -11.440  49.441  0.00  0.00     0.105 A 
ATOM     22  CAH AX1 d   1      -1.584 -10.846  51.546  0.00  0.00     0.115 C 
ATOM     23  OAL AX1 d   1      -2.420 -11.525  50.599  0.00  0.00    -0.323 OA
ATOM     24  H   AX1 d   1      -2.178 -10.441  52.379  0.00  0.00     0.118 H 
ATOM     25  H   AX1 d   1      -0.807 -11.517  51.941  0.00  0.00     0.118 H 
ATOM     26  CAF AX1 d   1      -1.745 -12.211  48.285  0.00  0.00    -0.047 A 
ATOM     27  CAE AX1 d   1      -0.893 -11.890  47.233  0.00  0.00    -0.068 A 
ATOM     28  H   AX1 d   1      -2.425 -13.051  48.204  0.00  0.00     0.087 H 
ATOM     29  H   AX1 d   1      -0.921 -12.489  46.330  0.00  0.00     0.085 H 
ENDBRANCH   1  16
BRANCH   5  30
ATOM     30  NAB AX1 d   1       4.422  -8.147  42.381  0.00  0.00    -0.234 N 
ATOM     31  H   AX1 d   1       4.942  -8.448  41.544  0.00  0.00     0.174 HD
ATOM     32  H   AX1 d   1       4.487  -7.171  42.704  0.00  0.00     0.174 HD
ENDBRANCH   5  30
TORSDOF 2
