REMARK  2 active torsions:
REMARK  status: ('A' for Active; 'I' for Inactive)
REMARK    1  A    between atoms: C6_3  and  S6_11 
REMARK    2  A    between atoms: C2_8  and  N2_6 
ROOT
ATOM      1  C4  DX4 d   1       8.205  -9.700  14.970  0.00  0.00     0.179 A 
ATOM      2  C5  DX4 d   1       8.328 -11.002  14.502  0.00  0.00     0.140 A 
ATOM      3  C6  DX4 d   1       9.588 -11.433  14.069  0.00  0.00     0.142 A 
ATOM      4  C8  DX4 d   1       6.274 -10.644  15.111  0.00  0.00     0.066 A 
ATOM      5  N1  DX4 d   1      10.665 -10.610  14.131  0.00  0.00    -0.054 NA
ATOM      6  N3  DX4 d   1       9.301  -8.936  15.013  0.00  0.00    -0.043 NA
ATOM      7  C2  DX4 d   1      10.502  -9.353  14.597  0.00  0.00     0.723 A 
ATOM      8  N9  DX4 d   1       6.940  -9.501  15.348  0.00  0.00    -0.333 N 
ATOM      9  N7  DX4 d   1       7.116 -11.562  14.598  0.00  0.00    -0.237 NA
ATOM     10  H   DX4 d   1       5.214 -10.804  15.304  0.00  0.00     0.143 H 
ATOM     11  H   DX4 d   1       6.549  -8.635  15.746  0.00  0.00     0.168 HD
ENDROOT
BRANCH   7  12
ATOM     12  N2  DX4 d   1      11.506  -8.489  14.675  0.00  0.00    -0.231 N 
ATOM     13  H   DX4 d   1      12.449  -8.766  14.366  0.00  0.00     0.174 HD
ATOM     14  H   DX4 d   1      11.342  -7.542  15.044  0.00  0.00     0.174 HD
ENDBRANCH   7  12
BRANCH   3  15
ATOM     15  S6  DX4 d   1       9.809 -13.067  13.461  0.00  0.00    -0.120 SA
ATOM     16  H   DX4 d   1       8.925 -13.552  13.476  0.00  0.00     0.108 HD
ENDBRANCH   3  15
TORSDOF 2
