REMARK  4 active torsions:
REMARK  status: ('A' for Active; 'I' for Inactive)
REMARK    1  A    between atoms: CAN_6  and  CAI_7 
REMARK    2  A    between atoms: CAI_7  and  CAJ_8 
REMARK    3  A    between atoms: CAJ_8  and  CAP_9 
REMARK    4  A    between atoms: CAO_18  and  NAA_19 
ROOT
ATOM      1  CAP DX6 d   1      12.406 -14.322  22.675  0.00  0.00    -0.023 A 
ATOM      2  CAH DX6 d   1      13.192 -13.408  22.100  0.00  0.00    -0.014 A 
ATOM      3  NAL DX6 d   1      12.484 -12.311  21.831  0.00  0.00    -0.350 N 
ATOM      4  CAR DX6 d   1      11.224 -12.488  22.223  0.00  0.00     0.137 A 
ATOM      5  NAK DX6 d   1      10.141 -11.690  22.162  0.00  0.00    -0.176 N 
ATOM      6  CAS DX6 d   1      11.135 -13.765  22.768  0.00  0.00     0.085 A 
ATOM      7  CAQ DX6 d   1       9.912 -14.220  23.260  0.00  0.00     0.274 A 
ATOM      8  OAB DX6 d   1       9.797 -15.342  23.750  0.00  0.00    -0.267 OA
ATOM      9  NAM DX6 d   1       8.802 -13.371  23.189  0.00  0.00    -0.155 N 
ATOM     10  CAO DX6 d   1       8.948 -12.094  22.632  0.00  0.00     0.680 A 
ATOM     11  H   DX6 d   1      14.251 -13.539  21.884  0.00  0.00     0.112 H 
ATOM     12  H   DX6 d   1      12.855 -11.458  21.388  0.00  0.00     0.166 HD
ATOM     13  H   DX6 d   1      10.228 -10.751  21.747  0.00  0.00     0.186 HD
ATOM     14  H   DX6 d   1       7.913 -13.673  23.533  0.00  0.00     0.187 HD
ENDROOT
BRANCH   1  15
ATOM     15  CAJ DX6 d   1      12.824 -15.723  23.148  0.00  0.00    -0.035 C 
ATOM     16  H   DX6 d   1      12.502 -15.854  24.192  0.00  0.00     0.040 H 
ATOM     17  H   DX6 d   1      12.328 -16.473  22.514  0.00  0.00     0.040 H 
BRANCH  15  18
ATOM     18  CAI DX6 d   1      14.341 -15.937  23.070  0.00  0.00    -0.037 C 
ATOM     19  H   DX6 d   1      14.824 -15.009  22.730  0.00  0.00     0.040 H 
ATOM     20  H   DX6 d   1      14.723 -16.206  24.066  0.00  0.00     0.040 H 
BRANCH  18  21
ATOM     21  CAN DX6 d   1      14.655 -17.062  22.085  0.00  0.00    -0.058 A 
ATOM     22  CAF DX6 d   1      14.799 -16.784  20.726  0.00  0.00    -0.077 A 
ATOM     23  CAD DX6 d   1      15.079 -17.810  19.826  0.00  0.00    -0.082 A 
ATOM     24  H   DX6 d   1      14.693 -15.766  20.369  0.00  0.00     0.084 H 
ATOM     25  CAC DX6 d   1      15.212 -19.117  20.288  0.00  0.00    -0.083 A 
ATOM     26  H   DX6 d   1      15.193 -17.592  18.770  0.00  0.00     0.083 H 
ATOM     27  CAE DX6 d   1      15.071 -19.393  21.648  0.00  0.00    -0.082 A 
ATOM     28  H   DX6 d   1      15.425 -19.919  19.591  0.00  0.00     0.083 H 
ATOM     29  CAG DX6 d   1      14.790 -18.368  22.546  0.00  0.00    -0.077 A 
ATOM     30  H   DX6 d   1      15.181 -20.410  22.007  0.00  0.00     0.083 H 
ATOM     31  H   DX6 d   1      14.677 -18.586  23.602  0.00  0.00     0.084 H 
ENDBRANCH  18  21
ENDBRANCH  15  18
ENDBRANCH   1  15
BRANCH  10  32
ATOM     32  NAA DX6 d   1       7.898 -11.285  22.558  0.00  0.00    -0.234 N 
ATOM     33  H   DX6 d   1       8.000 -10.345  22.149  0.00  0.00     0.174 HD
ATOM     34  H   DX6 d   1       6.981 -11.597  22.909  0.00  0.00     0.174 HD
ENDBRANCH  10  32
TORSDOF 4
