REMARK  2 active torsions:
REMARK  status: ('A' for Active; 'I' for Inactive)
REMARK    1  A    between atoms: C2_1  and  N7_4 
REMARK    2  A    between atoms: C6_3  and  N8_5 
ROOT
ATOM      1  C2  AX2 d   1       9.732 -11.326  13.862  0.00  0.00     0.751 A 
ATOM      2  C4  AX2 d   1       8.272  -9.652  14.712  0.00  0.00     0.751 A 
ATOM      3  C6  AX2 d   1      10.579  -9.186  14.530  0.00  0.00     0.751 A 
ATOM      4  N5  AX2 d   1       9.314  -8.794  14.870  0.00  0.00     0.130 NA
ATOM      5  N9  AX2 d   1       7.025  -9.271  15.067  0.00  0.00    -0.230 N 
ATOM      6  N3  AX2 d   1       8.464 -10.910  14.197  0.00  0.00     0.130 NA
ATOM      7  N1  AX2 d   1      10.797 -10.491  14.061  0.00  0.00     0.130 NA
ATOM      8  H   AX2 d   1       6.865  -8.330  15.455  0.00  0.00     0.174 HD
ATOM      9  H   AX2 d   1       6.235  -9.921  14.950  0.00  0.00     0.174 HD
ENDROOT
BRANCH   1  10
ATOM     10  N7  AX2 d   1       9.890 -12.588  13.371  0.00  0.00    -0.230 N 
ATOM     11  H   AX2 d   1       9.068 -13.193  13.232  0.00  0.00     0.174 HD
ATOM     12  H   AX2 d   1      10.831 -12.936  13.139  0.00  0.00     0.174 HD
ENDBRANCH   1  10
BRANCH   3  13
ATOM     13  N8  AX2 d   1      11.611  -8.326  14.693  0.00  0.00    -0.230 N 
ATOM     14  H   AX2 d   1      11.436  -7.371  15.038  0.00  0.00     0.174 HD
ATOM     15  H   AX2 d   1      12.571  -8.626  14.472  0.00  0.00     0.174 HD
ENDBRANCH   3  13
TORSDOF 2
