REMARK  7 active torsions:
REMARK  status: ('A' for Active; 'I' for Inactive)
REMARK    1  A    between atoms: SAM_15  and  C4_1 
REMARK    2  A    between atoms: C6_3  and  NAB_18 
REMARK    3  A    between atoms: OAL_7  and  CAA_6 
REMARK    4  A    between atoms: CAP_8  and  OAL_7 
REMARK    5  A    between atoms: CAI_14  and  CAO_13 
REMARK    6  A    between atoms: CAI_14  and  SAM_15 
REMARK    7  A    between atoms: C2_16  and  NAC_17 
ROOT
ATOM      1  CAI AX6 d   1       8.738 -13.518  13.144  0.00  0.00     0.006 C 
ATOM      2  H   AX6 d   1       8.305 -12.665  12.602  0.00  0.00     0.056 H 
ATOM      3  H   AX6 d   1       8.972 -14.324  12.433  0.00  0.00     0.056 H 
ENDROOT
BRANCH   1   4
ATOM      4  CAO AX6 d   1       7.674 -14.046  14.126  0.00  0.00    -0.048 A 
ATOM      5  CAE AX6 d   1       6.359 -14.063  13.674  0.00  0.00    -0.073 A 
ATOM      6  CAG AX6 d   1       5.349 -14.540  14.503  0.00  0.00    -0.050 A 
ATOM      7  H   AX6 d   1       6.122 -13.706  12.678  0.00  0.00     0.084 H 
ATOM      8  CAP AX6 d   1       5.641 -15.003  15.786  0.00  0.00     0.068 A 
ATOM      9  H   AX6 d   1       4.325 -14.552  14.148  0.00  0.00     0.087 H 
ATOM     10  CAF AX6 d   1       6.954 -15.004  16.255  0.00  0.00    -0.050 A 
ATOM     11  CAD AX6 d   1       7.967 -14.518  15.420  0.00  0.00    -0.073 A 
ATOM     12  H   AX6 d   1       7.186 -15.374  17.247  0.00  0.00     0.087 H 
ATOM     13  H   AX6 d   1       8.991 -14.505  15.774  0.00  0.00     0.084 H 
BRANCH   8  14
ATOM     14  OAL AX6 d   1       4.622 -15.444  16.567  0.00  0.00    -0.356 OA
BRANCH  14  15
ATOM     15  CAA AX6 d   1       3.620 -14.399  16.708  0.00  0.00     0.010 C 
ATOM     16  H   AX6 d   1       2.798 -14.763  17.342  0.00  0.00     0.066 H 
ATOM     17  H   AX6 d   1       3.228 -14.131  15.716  0.00  0.00     0.066 H 
ATOM     18  H   AX6 d   1       4.077 -13.513  17.173  0.00  0.00     0.066 H 
ENDBRANCH  14  15
ENDBRANCH   8  14
ENDBRANCH   1   4
BRANCH   1  19
ATOM     19  SAM AX6 d   1      10.314 -12.962  13.905  0.00  0.00    -0.105 SA
BRANCH  19  20
ATOM     20  C4  AX6 d   1       9.837 -11.287  14.432  0.00  0.00     0.116 A 
ATOM     21  C5  AX6 d   1       8.515 -10.863  14.756  0.00  0.00    -0.004 A 
ATOM     22  C6  AX6 d   1       8.304  -9.526  15.166  0.00  0.00     0.143 A 
ATOM     23  H   AX6 d   1       7.684 -11.555  14.689  0.00  0.00     0.093 H 
ATOM     24  N1  AX6 d   1       9.366  -8.697  15.212  0.00  0.00    -0.046 NA
ATOM     25  C2  AX6 d   1      10.610  -9.122  14.900  0.00  0.00     0.723 A 
ATOM     26  N3  AX6 d   1      10.837 -10.400  14.512  0.00  0.00    -0.056 NA
BRANCH  22  27
ATOM     27  NAB AX6 d   1       7.081  -9.038  15.511  0.00  0.00    -0.383 N 
ATOM     28  H   AX6 d   1       6.982  -8.055  15.803  0.00  0.00     0.157 HD
ATOM     29  H   AX6 d   1       6.254  -9.652  15.480  0.00  0.00     0.157 HD
ENDBRANCH  22  27
BRANCH  25  30
ATOM     30  NAC AX6 d   1      11.630  -8.272  14.975  0.00  0.00    -0.231 N 
ATOM     31  H   AX6 d   1      11.468  -7.298  15.269  0.00  0.00     0.174 HD
ATOM     32  H   AX6 d   1      12.582  -8.588  14.739  0.00  0.00     0.174 HD
ENDBRANCH  25  30
ENDBRANCH  19  20
ENDBRANCH   1  19
TORSDOF 7
