REMARK  3 active torsions:
REMARK  status: ('A' for Active; 'I' for Inactive)
REMARK    1  A    between atoms: N3_3  and  C10_10 
REMARK    2  A    between atoms: C8_8  and  C16_16 
REMARK    3  A    between atoms: C16_16  and  C17_17 
ROOT
ATOM      1  C1  WTC d   1      77.390  52.075  43.810  0.00  0.00     0.099 A 
ATOM      2  C2  WTC d   1      77.345  52.193  42.405  0.00  0.00     0.165 A 
ATOM      3  N3  WTC d   1      78.466  51.586  41.929  0.00  0.00    -0.247 N 
ATOM      4  N4  WTC d   1      79.207  51.100  43.015  0.00  0.00    -0.182 NA
ATOM      5  C5  WTC d   1      78.572  51.373  44.123  0.00  0.00     0.041 A 
ATOM      6  C6  WTC d   1      76.286  52.667  44.588  0.00  0.00     0.262 A 
ATOM      7  N7  WTC d   1      75.300  53.291  43.886  0.00  0.00    -0.310 N 
ATOM      8  C8  WTC d   1      75.335  53.351  42.523  0.00  0.00     0.113 A 
ATOM      9  N9  WTC d   1      76.309  52.834  41.820  0.00  0.00    -0.215 NA
ATOM     10  O15 WTC d   1      76.251  52.623  45.810  0.00  0.00    -0.267 OA
ATOM     11  H1  WTC d   1      78.902  51.103  45.125  0.00  0.00     0.119 H 
ATOM     12  H2  WTC d   1      74.538  53.712  44.377  0.00  0.00     0.170 HD
ENDROOT
BRANCH   3  13
ATOM     13  C10 WTC d   1      78.848  51.519  40.515  0.00  0.00     0.036 C 
ATOM     14  C11 WTC d   1      78.816  50.085  39.973  0.00  0.00    -0.044 C 
ATOM     15  C12 WTC d   1      80.039  50.001  39.039  0.00  0.00    -0.063 C 
ATOM     16  H4  WTC d   1      77.886  49.901  39.415  0.00  0.00     0.036 H 
ATOM     17  H5  WTC d   1      78.902  49.357  40.793  0.00  0.00     0.036 H 
ATOM     18  C13 WTC d   1      81.106  50.839  39.787  0.00  0.00    -0.063 C 
ATOM     19  H6  WTC d   1      79.815  50.435  38.054  0.00  0.00     0.033 H 
ATOM     20  H7  WTC d   1      80.370  48.960  38.914  0.00  0.00     0.033 H 
ATOM     21  C14 WTC d   1      80.292  52.040  40.326  0.00  0.00    -0.044 C 
ATOM     22  H8  WTC d   1      81.898  51.174  39.101  0.00  0.00     0.033 H 
ATOM     23  H9  WTC d   1      81.554  50.264  40.611  0.00  0.00     0.033 H 
ATOM     24  H10 WTC d   1      80.705  52.382  41.286  0.00  0.00     0.036 H 
ATOM     25  H11 WTC d   1      80.309  52.869  39.603  0.00  0.00     0.036 H 
ATOM     26  H3  WTC d   1      78.152  52.141  39.934  0.00  0.00     0.076 H 
ENDBRANCH   3  13
BRANCH   8  27
ATOM     27  C16 WTC d   1      74.211  54.061  41.807  0.00  0.00     0.014 C 
ATOM     28  H12 WTC d   1      73.306  54.038  42.431  0.00  0.00     0.051 H 
ATOM     29  H13 WTC d   1      74.010  53.557  40.850  0.00  0.00     0.051 H 
BRANCH  27  30
ATOM     30  C17 WTC d   1      74.606  55.495  41.547  0.00  0.00    -0.051 A 
ATOM     31  C18 WTC d   1      74.609  55.993  40.254  0.00  0.00    -0.076 A 
ATOM     32  C19 WTC d   1      74.975  57.312  40.010  0.00  0.00    -0.082 A 
ATOM     33  H14 WTC d   1      74.325  55.351  39.428  0.00  0.00     0.084 H 
ATOM     34  C20 WTC d   1      75.342  58.143  41.058  0.00  0.00    -0.083 A 
ATOM     35  H15 WTC d   1      74.974  57.693  38.995  0.00  0.00     0.083 H 
ATOM     36  C21 WTC d   1      75.343  57.647  42.352  0.00  0.00    -0.082 A 
ATOM     37  H16 WTC d   1      75.626  59.172  40.867  0.00  0.00     0.083 H 
ATOM     38  C22 WTC d   1      74.972  56.329  42.595  0.00  0.00    -0.076 A 
ATOM     39  H17 WTC d   1      75.634  58.288  43.177  0.00  0.00     0.083 H 
ATOM     40  H18 WTC d   1      74.969  55.950  43.611  0.00  0.00     0.084 H 
ENDBRANCH  27  30
ENDBRANCH   8  27
TORSDOF 3
