REMARK  7 active torsions:
REMARK  status: ('A' for Active; 'I' for Inactive)
REMARK    1  A    between atoms: C1_1  and  C2_2 
REMARK    2  A    between atoms: C2_2  and  C3_3 
REMARK    3  A    between atoms: C2_2  and  N4_4 
REMARK    4  A    between atoms: C11_11  and  C14_14 
REMARK    5  A    between atoms: N17_16  and  C18_17 
REMARK    6  A    between atoms: C18_17  and  C19_18 
REMARK    7  A    between atoms: C26_25  and  C28_26 
ROOT
ATOM      1  C14 JAR d   1      73.662  53.665  41.604  0.00  0.00     0.032 C 
ATOM      2  C16 JAR d   1      72.824  52.763  40.691  0.00  0.00     0.094 C 
ATOM      3  N17 JAR d   1      73.120  53.251  39.338  0.00  0.00    -0.066 N 
ATOM      4  C25 JAR d   1      73.457  54.631  39.449  0.00  0.00     0.087 C 
ATOM      5  C26 JAR d   1      74.308  54.711  40.696  0.00  0.00    -0.022 C 
ATOM      6  H10 JAR d   1      72.999  54.173  42.320  0.00  0.00     0.055 H 
ATOM      7  H11 JAR d   1      71.752  52.865  40.917  0.00  0.00     0.077 H 
ATOM      8  H12 JAR d   1      73.123  51.710  40.801  0.00  0.00     0.077 H 
ATOM      9  H13 JAR d   1      73.876  52.727  38.925  0.00  0.00     0.280 HD
ATOM     10  H21 JAR d   1      72.551  55.246  39.556  0.00  0.00     0.076 H 
ATOM     11  H22 JAR d   1      74.025  54.965  38.568  0.00  0.00     0.076 H 
ATOM     12  H23 JAR d   1      75.319  54.364  40.437  0.00  0.00     0.043 H 
ENDROOT
BRANCH   1  13
ATOM     13  C11 JAR d   1      74.670  52.872  42.387  0.00  0.00     0.115 A 
ATOM     14  N10 JAR d   1      74.585  52.716  43.738  0.00  0.00    -0.195 NA
ATOM     15  C8  JAR d   1      75.413  51.993  44.524  0.00  0.00     0.284 A 
ATOM     16  C7  JAR d   1      76.490  51.279  43.838  0.00  0.00     0.099 A 
ATOM     17  O9  JAR d   1      75.206  51.960  45.748  0.00  0.00    -0.265 OA
ATOM     18  C6  JAR d   1      77.579  50.491  44.203  0.00  0.00     0.041 A 
ATOM     19  C13 JAR d   1      76.531  51.496  42.464  0.00  0.00     0.143 A 
ATOM     20  N5  JAR d   1      78.310  50.213  43.096  0.00  0.00    -0.182 NA
ATOM     21  H8  JAR d   1      77.806  50.153  45.213  0.00  0.00     0.119 H 
ATOM     22  N4  JAR d   1      77.612  50.825  42.044  0.00  0.00    -0.249 N 
ATOM     23  N12 JAR d   1      75.621  52.284  41.725  0.00  0.00    -0.328 N 
ATOM     24  H9  JAR d   1      75.708  52.388  40.704  0.00  0.00     0.169 HD
BRANCH  22  25
ATOM     25  C2  JAR d   1      78.089  50.774  40.638  0.00  0.00     0.029 C 
ATOM     26  H4  JAR d   1      77.640  51.622  40.100  0.00  0.00     0.074 H 
BRANCH  25  27
ATOM     27  C1  JAR d   1      79.600  50.959  40.574  0.00  0.00    -0.056 C 
ATOM     28  H1  JAR d   1      79.930  50.918  39.526  0.00  0.00     0.030 H 
ATOM     29  H2  JAR d   1      80.092  50.158  41.145  0.00  0.00     0.030 H 
ATOM     30  H3  JAR d   1      79.868  51.935  41.005  0.00  0.00     0.030 H 
ENDBRANCH  25  27
BRANCH  25  31
ATOM     31  C3  JAR d   1      77.584  49.502  39.969  0.00  0.00    -0.056 C 
ATOM     32  H5  JAR d   1      76.489  49.449  40.062  0.00  0.00     0.030 H 
ATOM     33  H6  JAR d   1      78.036  48.626  40.458  0.00  0.00     0.030 H 
ATOM     34  H7  JAR d   1      77.862  49.512  38.905  0.00  0.00     0.030 H 
ENDBRANCH  25  31
ENDBRANCH  22  25
ENDBRANCH   1  13
BRANCH   5  35
ATOM     35  C28 JAR d   1      74.501  56.091  41.318  0.00  0.00    -0.071 C 
ATOM     36  H24 JAR d   1      75.136  56.005  42.212  0.00  0.00     0.028 H 
ATOM     37  H25 JAR d   1      73.522  56.505  41.602  0.00  0.00     0.028 H 
ATOM     38  H26 JAR d   1      74.984  56.758  40.588  0.00  0.00     0.028 H 
ENDBRANCH   5  35
BRANCH   3  39
ATOM     39  C18 JAR d   1      71.919  53.142  38.532  0.00  0.00     0.107 C 
ATOM     40  H14 JAR d   1      72.070  53.643  37.565  0.00  0.00     0.083 H 
ATOM     41  H15 JAR d   1      71.072  53.607  39.057  0.00  0.00     0.083 H 
BRANCH  39  42
ATOM     42  C19 JAR d   1      71.640  51.649  38.309  0.00  0.00    -0.033 A 
ATOM     43  C20 JAR d   1      70.361  51.115  38.655  0.00  0.00    -0.075 A 
ATOM     44  C21 JAR d   1      70.077  49.731  38.455  0.00  0.00    -0.082 A 
ATOM     45  H16 JAR d   1      69.601  51.766  39.072  0.00  0.00     0.084 H 
ATOM     46  C22 JAR d   1      71.089  48.912  37.899  0.00  0.00    -0.083 A 
ATOM     47  H17 JAR d   1      69.111  49.317  38.722  0.00  0.00     0.083 H 
ATOM     48  C23 JAR d   1      72.349  49.463  37.567  0.00  0.00    -0.082 A 
ATOM     49  H18 JAR d   1      70.898  47.859  37.727  0.00  0.00     0.083 H 
ATOM     50  C24 JAR d   1      72.627  50.830  37.774  0.00  0.00    -0.075 A 
ATOM     51  H19 JAR d   1      73.115  48.822  37.146  0.00  0.00     0.083 H 
ATOM     52  H20 JAR d   1      73.599  51.237  37.519  0.00  0.00     0.084 H 
ENDBRANCH  39  42
ENDBRANCH   3  39
TORSDOF 7
