REMARK  3 active torsions:
REMARK  status: ('A' for Active; 'I' for Inactive)
REMARK    1  A    between atoms: CAO_15  and  NAL_12 
REMARK    2  A    between atoms: NAL_12  and  CAQ_17 
REMARK    3  A    between atoms: CAM_13  and  CAP_16 
ROOT
ATOM      1  CAG AJD d   1      38.738  -1.683  92.047  0.00  0.00    -0.041 C 
ATOM      2  CAH AJD d   1      38.859  -0.732  90.870  0.00  0.00     0.082 C 
ATOM      3  CAI AJD d   1      40.097  -2.258  92.442  0.00  0.00    -0.043 C 
ATOM      4  CAJ AJD d   1      41.290  -0.454  91.257  0.00  0.00     0.100 C 
ATOM      5  NAK AJD d   1      39.978   0.159  91.116  0.00  0.00    -0.073 N 
ATOM      6  CAQ AJD d   1      41.285  -1.247  92.569  0.00  0.00     0.033 C 
ATOM      7  H4  AJD d   1      38.066  -2.509  91.772  0.00  0.00     0.035 H 
ATOM      8  H5  AJD d   1      38.317  -1.139  92.905  0.00  0.00     0.035 H 
ATOM      9  H6  AJD d   1      37.933  -0.147  90.768  0.00  0.00     0.075 H 
ATOM     10  H7  AJD d   1      39.035  -1.304  89.947  0.00  0.00     0.075 H 
ATOM     11  H8  AJD d   1      40.375  -3.004  91.683  0.00  0.00     0.036 H 
ATOM     12  H9  AJD d   1      39.977  -2.754  93.417  0.00  0.00     0.036 H 
ATOM     13  H10 AJD d   1      42.067   0.324  91.290  0.00  0.00     0.078 H 
ATOM     14  H11 AJD d   1      41.483  -1.129  90.410  0.00  0.00     0.078 H 
ATOM     15  H12 AJD d   1      39.785   0.663  91.967  0.00  0.00     0.277 HD
ATOM     16  H13 AJD d   1      40.026   0.807  90.346  0.00  0.00     0.277 HD
ATOM     17  H15 AJD d   1      41.132  -0.568  93.421  0.00  0.00     0.074 H 
ENDROOT
BRANCH   6  18
ATOM     18  NAL AJD d   1      42.536  -2.014  92.767  0.00  0.00    -0.383 N 
ATOM     19  H14 AJD d   1      42.479  -3.042  92.738  0.00  0.00     0.160 HD
BRANCH  18  20
ATOM     20  CAO AJD d   1      43.747  -1.455  92.983  0.00  0.00     0.045 A 
ATOM     21  CAE AJD d   1      43.847  -0.120  93.326  0.00  0.00    -0.055 A 
ATOM     22  CAD AJD d   1      45.068   0.484  93.545  0.00  0.00    -0.064 A 
ATOM     23  H2  AJD d   1      42.942   0.468  93.426  0.00  0.00     0.087 H 
ATOM     24  CAN AJD d   1      46.235  -0.256  93.497  0.00  0.00     0.012 A 
ATOM     25  H1  AJD d   1      45.113   1.546  93.756  0.00  0.00     0.085 H 
ATOM     26 BRAC AJD d   1      47.965   0.531  93.785  0.00  0.00    -0.051 Br
ATOM     27  CAF AJD d   1      46.161  -1.577  93.181  0.00  0.00    -0.047 A 
ATOM     28  CAP AJD d   1      44.928  -2.182  92.927  0.00  0.00     0.068 A 
ATOM     29  H3  AJD d   1      47.069  -2.167  93.126  0.00  0.00     0.087 H 
BRANCH  28  30
ATOM     30  CAM AJD d   1      44.933  -3.627  92.605  0.00  0.00     0.211 C 
ATOM     31  OAA AJD d   1      45.904  -4.294  93.027  0.00  0.00    -0.644 OA
ATOM     32  OAB AJD d   1      43.965  -4.103  91.960  0.00  0.00    -0.644 OA
ENDBRANCH  28  30
ENDBRANCH  18  20
ENDBRANCH   6  18
TORSDOF 3
