REMARK  15 active torsions:
REMARK  status: ('A' for Active; 'I' for Inactive)
REMARK    1  A    between atoms: CA_2  and  N_1 
REMARK    2  A    between atoms: C_3  and  CA_2 
REMARK       I    between atoms: N_5  and  C_3 
REMARK    3  A    between atoms: CA_6  and  N_5 
REMARK    4  A    between atoms: C_7  and  CA_6 
REMARK       I    between atoms: N_18  and  C_7 
REMARK    5  A    between atoms: CH_10  and  CH3_11 
REMARK       I    between atoms: NZ_12  and  CH_10 
REMARK    6  A    between atoms: CE_13  and  NZ_12 
REMARK    7  A    between atoms: CD_14  and  CE_13 
REMARK    8  A    between atoms: CG_15  and  CD_14 
REMARK    9  A    between atoms: CB_16  and  CG_15 
REMARK   10  A    between atoms: CA_17  and  CB_16 
REMARK   11  A    between atoms: CA_17  and  N_18 
REMARK   12  A    between atoms: CA_17  and  C_19 
REMARK       I    between atoms: C_19  and  N_21 
REMARK   13  A    between atoms: N_21  and  CA_22 
REMARK   14  A    between atoms: CA_22  and  C_23 
REMARK   15  A    between atoms: CA_22  and  CB_25 
ROOT
ATOM      1  CA  ALY d   1      14.676  -9.386  -5.441  0.00  0.00     0.089 C 
ATOM      2  H   ALY d   1      15.314  -8.569  -5.777  0.00  0.00     0.087 H 
ENDROOT
BRANCH   1   3
ATOM      3  CB  ALY d   1      13.890  -9.109  -4.166  0.00  0.00    -0.038 C 
ATOM      4  H   ALY d   1      12.840  -9.205  -4.441  0.00  0.00     0.036 H 
ATOM      5  H   ALY d   1      14.280  -9.805  -3.423  0.00  0.00     0.036 H 
BRANCH   3   6
ATOM      6  CG  ALY d   1      14.027  -7.726  -3.545  0.00  0.00    -0.061 C 
ATOM      7  H   ALY d   1      15.032  -7.340  -3.718  0.00  0.00     0.033 H 
ATOM      8  H   ALY d   1      13.309  -7.043  -3.998  0.00  0.00     0.033 H 
BRANCH   6   9
ATOM      9  CD  ALY d   1      13.764  -7.836  -2.047  0.00  0.00    -0.050 C 
ATOM     10  H   ALY d   1      13.000  -8.600  -1.903  0.00  0.00     0.035 H 
ATOM     11  H   ALY d   1      14.712  -8.074  -1.564  0.00  0.00     0.035 H 
BRANCH   9  12
ATOM     12  CE  ALY d   1      13.251  -6.563  -1.435  0.00  0.00    -0.006 C 
ATOM     13  H   ALY d   1      13.880  -5.757  -1.813  0.00  0.00     0.064 H 
ATOM     14  H   ALY d   1      12.196  -6.490  -1.701  0.00  0.00     0.064 H 
BRANCH  12  15
ATOM     15  NZ  ALY d   1      13.323  -6.503   0.032  0.00  0.00    -0.372 N 
ATOM     16  CH  ALY d   1      13.439  -5.134   0.410  0.00  0.00     0.147 C 
ATOM     17  OH  ALY d   1      14.665  -4.494   0.277  0.00  0.00    -0.178 OA
ATOM     18  H   ALY d   1      13.295  -7.301   0.667  0.00  0.00     0.161 HD
BRANCH  16  19
ATOM     19  CH3 ALY d   1      12.413  -4.189   0.930  0.00  0.00    -0.015 C 
ATOM     20  H   ALY d   1      12.726  -3.815   1.905  0.00  0.00     0.038 H 
ATOM     21  H   ALY d   1      12.305  -3.355   0.237  0.00  0.00     0.038 H 
ATOM     22  H   ALY d   1      11.459  -4.708   1.028  0.00  0.00     0.038 H 
ENDBRANCH  16  19
ENDBRANCH  12  15
ENDBRANCH   9  12
ENDBRANCH   6   9
ENDBRANCH   3   6
ENDBRANCH   1   3
BRANCH   1  23
ATOM     23  N   ALY d   1      13.705  -9.625  -6.571  0.00  0.00    -0.346 N 
ATOM     24  C   GLY d   1      14.039  -9.903  -7.843  0.00  0.00     0.236 C 
ATOM     25  O   GLY d   1      14.905  -9.306  -8.498  0.00  0.00    -0.272 OA
ATOM     26  H   ALY d   1      12.710  -9.571  -6.351  0.00  0.00     0.163 HD
BRANCH  24  27
ATOM     27  CA  GLY d   1      13.176 -10.965  -8.505  0.00  0.00     0.069 C 
ATOM     28  H   GLY d   1      13.857 -11.777  -8.762  0.00  0.00     0.078 H 
ATOM     29  H   GLY d   1      12.380 -11.181  -7.793  0.00  0.00     0.078 H 
BRANCH  27  30
ATOM     30  N   GLY d   1      12.501 -10.608  -9.753  0.00  0.00    -0.351 N 
ATOM     31  C   GLY d   1      12.001 -11.549 -10.561  0.00  0.00     0.243 C 
ATOM     32  O   GLY d   1      12.144 -12.763 -10.353  0.00  0.00    -0.272 OA
ATOM     33  H   GLY d   1      12.410  -9.625 -10.011  0.00  0.00     0.163 HD
BRANCH  31  34
ATOM     34  CA  GLY d   1      11.213 -11.093 -11.767  0.00  0.00     0.152 C 
ATOM     35  H   GLY d   1      10.723 -10.131 -11.615  0.00  0.00     0.090 H 
ATOM     36  H   GLY d   1      11.840 -10.909 -12.639  0.00  0.00     0.090 H 
BRANCH  34  37
ATOM     37  N   GLY d   1      10.255 -12.202 -11.970  0.00  0.00    -0.071 N 
ATOM     38  H   GLY d   1       9.662 -11.995 -12.774  0.00  0.00     0.274 HD
ATOM     39  H   GLY d   1      10.769 -13.067 -12.139  0.00  0.00     0.274 HD
ATOM     40  H   GLY d   1       9.676 -12.306 -11.137  0.00  0.00     0.274 HD
ENDBRANCH  34  37
ENDBRANCH  31  34
ENDBRANCH  27  30
ENDBRANCH  24  27
ENDBRANCH   1  23
BRANCH   1  41
ATOM     41  C   ALY d   1      15.516 -10.604  -5.089  0.00  0.00     0.241 C 
ATOM     42  O   ALY d   1      14.983 -11.716  -4.902  0.00  0.00    -0.271 OA
ATOM     43  N   ALA d   1      16.824 -10.443  -4.957  0.00  0.00    -0.345 N 
ATOM     44  H   ALA d   1      17.211  -9.533  -4.708  0.00  0.00     0.163 HD
BRANCH  43  45
ATOM     45  CA  ALA d   1      17.712 -11.599  -5.176  0.00  0.00     0.093 C 
ATOM     46  H   ALA d   1      17.364 -12.046  -6.107  0.00  0.00     0.089 H 
BRANCH  45  47
ATOM     47  C   ALA d   1      17.592 -12.687  -4.130  0.00  0.00     0.196 C 
ATOM     48  O   ALA d   1      17.495 -13.875  -4.497  0.00  0.00    -0.646 OA
ATOM     49  O1  ALA d   1      17.590 -12.396  -2.904  0.00  0.00    -0.646 OA
ENDBRANCH  45  47
BRANCH  45  50
ATOM     50  CB  ALA d   1      19.185 -11.163  -5.355  0.00  0.00    -0.048 C 
ATOM     51  H   ALA d   1      19.264 -10.501  -6.217  0.00  0.00     0.030 H 
ATOM     52  H   ALA d   1      19.519 -10.638  -4.460  0.00  0.00     0.030 H 
ATOM     53  H   ALA d   1      19.807 -12.044  -5.514  0.00  0.00     0.030 H 
ENDBRANCH  45  50
ENDBRANCH  43  45
ENDBRANCH   1  41
TORSDOF 15
