REMARK  11 active torsions:
REMARK  status: ('A' for Active; 'I' for Inactive)
REMARK    1  A    between atoms: C34_1  and  C33_2 
REMARK    2  A    between atoms: C33_2  and  C32_3 
REMARK    3  A    between atoms: C32_3  and  C30_4 
REMARK    4  A    between atoms: N28_6  and  C31_7 
REMARK    5  A    between atoms: C21_12  and  C9_15 
REMARK    6  A    between atoms: C7_17  and  S10_24 
REMARK    7  A    between atoms: C4_20  and  O3_21 
REMARK    8  A    between atoms: O3_21  and  C2_22 
REMARK    9  A    between atoms: C2_22  and  C1_23 
REMARK   10  A    between atoms: S10_24  and  N14_27 
REMARK   11  A    between atoms: N17_30  and  C20_31 
ROOT
ATOM      1  C9  VIA d   1      -8.960 -29.015  45.948  0.00  0.00     0.045 A 
ATOM      2  C8  VIA d   1      -7.748 -28.835  45.282  0.00  0.00    -0.044 A 
ATOM      3  C7  VIA d   1      -6.589 -29.462  45.735  0.00  0.00     0.075 A 
ATOM      4  C6  VIA d   1      -6.633 -30.252  46.866  0.00  0.00    -0.058 A 
ATOM      5  C5  VIA d   1      -7.837 -30.408  47.539  0.00  0.00    -0.048 A 
ATOM      6  C4  VIA d   1      -8.991 -29.787  47.095  0.00  0.00     0.082 A 
ATOM      7  H12 VIA d   1      -7.707 -28.201  44.404  0.00  0.00     0.087 H 
ATOM      8  H13 VIA d   1      -5.737 -30.745  47.225  0.00  0.00     0.086 H 
ATOM      9  H14 VIA d   1      -7.874 -31.027  48.428  0.00  0.00     0.087 H 
ENDROOT
BRANCH   1  10
ATOM     10  C21 VIA d   1     -10.104 -28.339  45.522  0.00  0.00     0.144 A 
ATOM     11  N22 VIA d   1     -10.856 -27.682  46.512  0.00  0.00    -0.305 N 
ATOM     12  C23 VIA d   1     -11.960 -26.930  46.197  0.00  0.00     0.278 A 
ATOM     13  H11 VIA d   1     -10.579 -27.765  47.469  0.00  0.00     0.170 HD
ATOM     14  C24 VIA d   1     -12.315 -26.835  44.838  0.00  0.00     0.151 A 
ATOM     15  O27 VIA d   1     -12.578 -26.367  47.112  0.00  0.00    -0.265 OA
ATOM     16  N28 VIA d   1     -13.302 -26.232  44.153  0.00  0.00    -0.266 N 
ATOM     17  C25 VIA d   1     -11.550 -27.482  43.868  0.00  0.00     0.119 A 
ATOM     18  N29 VIA d   1     -13.236 -26.423  42.928  0.00  0.00    -0.174 NA
ATOM     19  C30 VIA d   1     -12.188 -27.172  42.651  0.00  0.00     0.086 A 
ATOM     20  N26 VIA d   1     -10.455 -28.222  44.227  0.00  0.00    -0.226 NA
BRANCH  16  21
ATOM     21  C31 VIA d   1     -14.370 -25.391  44.834  0.00  0.00     0.003 C 
ATOM     22  H8  VIA d   1     -14.196 -25.387  45.920  0.00  0.00     0.059 H 
ATOM     23  H9  VIA d   1     -15.362 -25.817  44.623  0.00  0.00     0.059 H 
ATOM     24  H10 VIA d   1     -14.324 -24.361  44.452  0.00  0.00     0.059 H 
ENDBRANCH  16  21
BRANCH  19  25
ATOM     25  C32 VIA d   1     -11.804 -27.622  41.262  0.00  0.00    -0.021 C 
ATOM     26  H6  VIA d   1     -12.035 -26.828  40.537  0.00  0.00     0.042 H 
ATOM     27  H7  VIA d   1     -10.728 -27.847  41.229  0.00  0.00     0.042 H 
BRANCH  25  28
ATOM     28  C33 VIA d   1     -12.609 -28.886  40.921  0.00  0.00    -0.063 C 
ATOM     29  H4  VIA d   1     -12.303 -29.693  41.603  0.00  0.00     0.033 H 
ATOM     30  H5  VIA d   1     -13.678 -28.672  41.063  0.00  0.00     0.033 H 
BRANCH  28  31
ATOM     31  C34 VIA d   1     -12.387 -29.357  39.464  0.00  0.00    -0.076 C 
ATOM     32  H1  VIA d   1     -12.985 -30.261  39.276  0.00  0.00     0.027 H 
ATOM     33  H2  VIA d   1     -11.322 -29.583  39.310  0.00  0.00     0.027 H 
ATOM     34  H3  VIA d   1     -12.697 -28.562  38.770  0.00  0.00     0.027 H 
ENDBRANCH  28  31
ENDBRANCH  25  28
ENDBRANCH  19  25
ENDBRANCH   1  10
BRANCH   6  35
ATOM     35  O3  VIA d   1     -10.188 -29.925  47.729  0.00  0.00    -0.351 OA
BRANCH  35  36
ATOM     36  C2  VIA d   1     -10.326 -30.978  48.700  0.00  0.00     0.023 C 
ATOM     37  H15 VIA d   1      -9.435 -31.041  49.342  0.00  0.00     0.074 H 
ATOM     38  H16 VIA d   1     -10.493 -31.948  48.208  0.00  0.00     0.074 H 
BRANCH  36  39
ATOM     39  C1  VIA d   1     -11.555 -30.555  49.508  0.00  0.00    -0.056 C 
ATOM     40  H17 VIA d   1     -11.754 -31.302  50.291  0.00  0.00     0.030 H 
ATOM     41  H18 VIA d   1     -12.426 -30.483  48.840  0.00  0.00     0.030 H 
ATOM     42  H19 VIA d   1     -11.368 -29.576  49.974  0.00  0.00     0.030 H 
ENDBRANCH  36  39
ENDBRANCH  35  36
ENDBRANCH   6  35
BRANCH   3  43
ATOM     43  S10 VIA d   1      -5.032 -29.273  44.945  0.00  0.00     0.243 S 
ATOM     44  O11 VIA d   1      -4.804 -27.832  44.527  0.00  0.00    -0.206 OA
ATOM     45  O12 VIA d   1      -3.985 -29.588  45.999  0.00  0.00    -0.206 OA
BRANCH  43  46
ATOM     46  N14 VIA d   1      -4.936 -30.185  43.560  0.00  0.00    -0.203 NA
ATOM     47  C19 VIA d   1      -3.517 -30.566  43.341  0.00  0.00     0.016 C 
ATOM     48  C18 VIA d   1      -3.262 -31.077  41.889  0.00  0.00     0.095 C 
ATOM     49  H20 VIA d   1      -3.251 -31.364  44.049  0.00  0.00     0.059 H 
ATOM     50  H21 VIA d   1      -2.882 -29.687  43.524  0.00  0.00     0.059 H 
ATOM     51  N17 VIA d   1      -3.731 -30.101  40.860  0.00  0.00    -0.073 N 
ATOM     52  H22 VIA d   1      -3.799 -32.027  41.748  0.00  0.00     0.077 H 
ATOM     53  H23 VIA d   1      -2.183 -31.242  41.755  0.00  0.00     0.077 H 
ATOM     54  C16 VIA d   1      -5.188 -29.843  41.006  0.00  0.00     0.095 C 
ATOM     55  H24 VIA d   1      -3.260 -29.227  41.036  0.00  0.00     0.279 HD
ATOM     56  C15 VIA d   1      -5.526 -29.358  42.453  0.00  0.00     0.016 C 
ATOM     57  H28 VIA d   1      -5.741 -30.771  40.799  0.00  0.00     0.077 H 
ATOM     58  H29 VIA d   1      -5.490 -29.068  40.286  0.00  0.00     0.077 H 
ATOM     59  H30 VIA d   1      -5.154 -28.329  42.562  0.00  0.00     0.059 H 
ATOM     60  H31 VIA d   1      -6.620 -29.367  42.568  0.00  0.00     0.059 H 
BRANCH  51  61
ATOM     61  C20 VIA d   1      -3.335 -30.536  39.498  0.00  0.00     0.066 C 
ATOM     62  H25 VIA d   1      -3.692 -29.802  38.761  0.00  0.00     0.068 H 
ATOM     63  H26 VIA d   1      -3.781 -31.518  39.283  0.00  0.00     0.068 H 
ATOM     64  H27 VIA d   1      -2.239 -30.610  39.441  0.00  0.00     0.068 H 
ENDBRANCH  51  61
ENDBRANCH  43  46
ENDBRANCH   3  43
TORSDOF 11
