REMARK  5 active torsions:
REMARK  status: ('A' for Active; 'I' for Inactive)
REMARK    1  A    between atoms: N3_6  and  C11_13 
REMARK    2  A    between atoms: N1_8  and  C10_12 
REMARK    3  A    between atoms: C11_13  and  C12_14 
REMARK    4  A    between atoms: C12_14  and  C13_15 
REMARK    5  A    between atoms: C12_14  and  C14_16 
ROOT
ATOM      1  N9  IBM d   1     -22.818  13.641 -39.376  0.00  0.00    -0.335 N 
ATOM      2  C8  IBM d   1     -22.876  14.256 -40.578  0.00  0.00     0.066 A 
ATOM      3  N7  IBM d   1     -23.151  13.352 -41.550  0.00  0.00    -0.234 NA
ATOM      4  C5  IBM d   1     -23.273  12.146 -40.963  0.00  0.00     0.170 A 
ATOM      5  C4  IBM d   1     -23.067  12.337 -39.617  0.00  0.00     0.147 A 
ATOM      6  N3  IBM d   1     -23.130  11.327 -38.736  0.00  0.00    -0.283 N 
ATOM      7  C2  IBM d   1     -23.379  10.069 -39.160  0.00  0.00     0.333 A 
ATOM      8  N1  IBM d   1     -23.591   9.785 -40.465  0.00  0.00    -0.269 N 
ATOM      9  C6  IBM d   1     -23.555  10.753 -41.407  0.00  0.00     0.283 A 
ATOM     10  O6  IBM d   1     -23.755  10.497 -42.618  0.00  0.00    -0.265 OA
ATOM     11  O2  IBM d   1     -23.435   9.135 -38.323  0.00  0.00    -0.246 OA
ATOM     12  H1  IBM d   1     -22.624  14.078 -38.464  0.00  0.00     0.168 HD
ATOM     13  H2  IBM d   1     -22.724  15.322 -40.742  0.00  0.00     0.143 H 
ENDROOT
BRANCH   6  14
ATOM     14  C11 IBM d   1     -22.902  11.575 -37.310  0.00  0.00     0.009 C 
ATOM     15  H6  IBM d   1     -21.977  12.158 -37.189  0.00  0.00     0.065 H 
ATOM     16  H7  IBM d   1     -22.799  10.612 -36.789  0.00  0.00     0.065 H 
BRANCH  14  17
ATOM     17  C12 IBM d   1     -24.067  12.353 -36.697  0.00  0.00    -0.045 C 
ATOM     18  H8  IBM d   1     -24.922  12.285 -37.386  0.00  0.00     0.041 H 
BRANCH  17  19
ATOM     19  C13 IBM d   1     -24.474  11.725 -35.366  0.00  0.00    -0.072 C 
ATOM     20  H9  IBM d   1     -25.312  12.292 -34.934  0.00  0.00     0.028 H 
ATOM     21  H10 IBM d   1     -23.620  11.748 -34.673  0.00  0.00     0.028 H 
ATOM     22  H11 IBM d   1     -24.783  10.682 -35.532  0.00  0.00     0.028 H 
ENDBRANCH  17  19
BRANCH  17  23
ATOM     23  C14 IBM d   1     -23.727  13.828 -36.516  0.00  0.00    -0.072 C 
ATOM     24  H12 IBM d   1     -23.437  14.259 -37.486  0.00  0.00     0.028 H 
ATOM     25  H13 IBM d   1     -22.892  13.928 -35.806  0.00  0.00     0.028 H 
ATOM     26  H14 IBM d   1     -24.606  14.362 -36.126  0.00  0.00     0.028 H 
ENDBRANCH  17  23
ENDBRANCH  14  17
ENDBRANCH   6  14
BRANCH   8  27
ATOM     27  C10 IBM d   1     -23.870   8.393 -40.845  0.00  0.00    -0.007 C 
ATOM     28  H3  IBM d   1     -23.857   7.758 -39.947  0.00  0.00     0.057 H 
ATOM     29  H4  IBM d   1     -23.102   8.045 -41.551  0.00  0.00     0.057 H 
ATOM     30  H5  IBM d   1     -24.860   8.334 -41.321  0.00  0.00     0.057 H 
ENDBRANCH   8  27
TORSDOF 5
