REMARK  6 active torsions:
REMARK  status: ('A' for Active; 'I' for Inactive)
REMARK    1  A    between atoms: N1_2  and  C1_1 
REMARK    2  A    between atoms: N1_2  and  C2_5 
REMARK    3  A    between atoms: C3_7  and  N1_2 
REMARK    4  A    between atoms: C4_9  and  C3_7 
REMARK    5  A    between atoms: C8_13  and  C9_14 
REMARK    6  A    between atoms: C10_15  and  C11_16 
ROOT
ATOM      1  O1  LXG d   1     -22.193 -31.569   2.544  0.00  0.00    -0.267 OA
ATOM      2  S1  LXG d   1     -23.144 -34.591   2.586  0.00  0.00    -0.082 SA
ATOM      3  N2  LXG d   1     -22.186 -33.570  -1.031  0.00  0.00    -0.231 NA
ATOM      4  N3  LXG d   1     -21.790 -31.627   0.290  0.00  0.00    -0.309 N 
ATOM      5  C4  LXG d   1     -21.828 -32.344  -0.861  0.00  0.00     0.133 A 
ATOM      6  C5  LXG d   1     -22.599 -34.213   0.153  0.00  0.00     0.093 A 
ATOM      7  C6  LXG d   1     -23.035 -35.572   0.234  0.00  0.00     0.012 A 
ATOM      8  C7  LXG d   1     -23.146 -36.507  -0.779  0.00  0.00    -0.059 A 
ATOM      9  C8  LXG d   1     -23.616 -37.774  -0.454  0.00  0.00    -0.036 A 
ATOM     10  C14 LXG d   1     -23.948 -38.073   0.864  0.00  0.00    -0.072 A 
ATOM     11  C15 LXG d   1     -23.842 -37.170   1.908  0.00  0.00    -0.065 A 
ATOM     12  C16 LXG d   1     -23.381 -35.929   1.536  0.00  0.00     0.018 A 
ATOM     13  C17 LXG d   1     -22.596 -33.539   1.338  0.00  0.00     0.103 A 
ATOM     14  C18 LXG d   1     -22.191 -32.180   1.491  0.00  0.00     0.266 A 
ATOM     15  H10 LXG d   1     -21.466 -30.681   0.269  0.00  0.00     0.170 HD
ATOM     16  H11 LXG d   1     -22.874 -36.258  -1.798  0.00  0.00     0.086 H 
ATOM     17  H19 LXG d   1     -24.310 -39.070   1.086  0.00  0.00     0.084 H 
ATOM     18  H20 LXG d   1     -24.100 -37.420   2.931  0.00  0.00     0.085 H 
ENDROOT
BRANCH   5  19
ATOM     19  C3  LXG d   1     -21.375 -31.606  -2.038  0.00  0.00     0.136 C 
ATOM     20  H8  LXG d   1     -20.535 -30.966  -1.731  0.00  0.00     0.088 H 
ATOM     21  H9  LXG d   1     -21.026 -32.338  -2.781  0.00  0.00     0.088 H 
BRANCH  19  22
ATOM     22  N1  LXG d   1     -22.386 -30.745  -2.691  0.00  0.00    -0.072 N 
ATOM     23  H4  LXG d   1     -22.484 -31.203  -3.584  0.00  0.00     0.279 HD
BRANCH  22  24
ATOM     24  C1  LXG d   1     -23.804 -30.781  -2.215  0.00  0.00     0.066 C 
ATOM     25  H1  LXG d   1     -24.409 -30.082  -2.811  0.00  0.00     0.068 H 
ATOM     26  H2  LXG d   1     -23.843 -30.488  -1.156  0.00  0.00     0.068 H 
ATOM     27  H3  LXG d   1     -24.203 -31.800  -2.328  0.00  0.00     0.068 H 
ENDBRANCH  22  24
BRANCH  22  28
ATOM     28  C2  LXG d   1     -21.833 -29.413  -3.094  0.00  0.00     0.066 C 
ATOM     29  H5  LXG d   1     -20.789 -29.533  -3.420  0.00  0.00     0.068 H 
ATOM     30  H6  LXG d   1     -21.872 -28.725  -2.237  0.00  0.00     0.068 H 
ATOM     31  H7  LXG d   1     -22.431 -29.003  -3.921  0.00  0.00     0.068 H 
ENDBRANCH  22  28
ENDBRANCH  19  22
ENDBRANCH   5  19
BRANCH   9  32
ATOM     32  C9  LXG d   1     -23.764 -38.804  -1.542  0.00  0.00    -0.076 C 
ATOM     33  C10 LXG d   1     -24.197 -38.398  -2.760  0.00  0.00    -0.098 C 
ATOM     34  H13 LXG d   1     -24.393 -37.328  -2.804  0.00  0.00     0.077 H 
ATOM     35  H12 LXG d   1     -23.529 -39.851  -1.355  0.00  0.00     0.084 H 
BRANCH  33  36
ATOM     36  C11 LXG d   1     -24.462 -39.082  -4.039  0.00  0.00    -0.038 A 
ATOM     37  C12 LXG d   1     -25.241 -38.380  -5.144  0.00  0.00    -0.058 A 
ATOM     38  C13 LXG d   1     -23.773 -38.616  -5.298  0.00  0.00    -0.058 A 
ATOM     39  H15 LXG d   1     -25.620 -37.360  -4.987  0.00  0.00     0.034 H 
ATOM     40  H16 LXG d   1     -25.956 -38.947  -5.758  0.00  0.00     0.034 H 
ATOM     41  H17 LXG d   1     -23.411 -39.354  -6.029  0.00  0.00     0.034 H 
ATOM     42  H18 LXG d   1     -23.075 -37.767  -5.258  0.00  0.00     0.034 H 
ATOM     43  H14 LXG d   1     -24.613 -40.156  -3.856  0.00  0.00     0.046 H 
ENDBRANCH  33  36
ENDBRANCH   9  32
TORSDOF 6
