REMARK  2 active torsions:
REMARK  status: ('A' for Active; 'I' for Inactive)
REMARK    1  A    between atoms: O1_1  and  C2_2 
REMARK    2  A    between atoms: C5_5  and  C8_8 
ROOT
ATOM      1  C8  JZH d   1      12.222  13.813   2.138  0.00  0.00     0.077 C 
ATOM      2  C9  JZH d   1      13.683  14.237   1.924  0.00  0.00     0.235 C 
ATOM      3  O10 JZH d   1      13.977  14.603   0.785  0.00  0.00    -0.272 OA
ATOM      4  N11 JZH d   1      14.770  14.149   2.706  0.00  0.00    -0.326 N 
ATOM      5  C12 JZH d   1      14.825  13.716   4.030  0.00  0.00     0.045 A 
ATOM      6  C13 JZH d   1      15.247  14.657   4.976  0.00  0.00    -0.056 A 
ATOM      7  C14 JZH d   1      15.381  14.316   6.328  0.00  0.00    -0.081 A 
ATOM      8  C15 JZH d   1      15.076  13.005   6.751  0.00  0.00    -0.082 A 
ATOM      9  C16 JZH d   1      14.638  12.091   5.784  0.00  0.00    -0.070 A 
ATOM     10  C17 JZH d   1      14.523  12.399   4.386  0.00  0.00     0.002 A 
ATOM     11  C18 JZH d   1      13.984  11.276   3.524  0.00  0.00    -0.008 A 
ATOM     12  C19 JZH d   1      14.495   9.960   3.736  0.00  0.00    -0.054 A 
ATOM     13  C20 JZH d   1      13.975   8.869   3.095  0.00  0.00     0.005 A 
ATOM     14  N21 JZH d   1      12.943   8.940   2.250  0.00  0.00    -0.242 NA
ATOM     15  C22 JZH d   1      12.401  10.114   1.971  0.00  0.00     0.138 A 
ATOM     16  N23 JZH d   1      11.349  10.407   1.097  0.00  0.00    -0.350 N 
ATOM     17  C25 JZH d   1      11.184  11.768   1.142  0.00  0.00    -0.013 A 
ATOM     18  C26 JZH d   1      12.042  12.335   2.056  0.00  0.00    -0.010 A 
ATOM     19  C27 JZH d   1      12.910  11.299   2.611  0.00  0.00     0.030 A 
ATOM     20  H6  JZH d   1      12.140  13.894   3.232  0.00  0.00     0.069 H 
ATOM     21  H7  JZH d   1      15.638  14.425   2.293  0.00  0.00     0.169 HD
ATOM     22  H8  JZH d   1      15.474  15.668   4.657  0.00  0.00     0.086 H 
ATOM     23  H9  JZH d   1      15.717  15.056   7.046  0.00  0.00     0.083 H 
ATOM     24  H10 JZH d   1      15.177  12.714   7.790  0.00  0.00     0.083 H 
ATOM     25  H11 JZH d   1      14.370  11.092   6.110  0.00  0.00     0.084 H 
ATOM     26  H12 JZH d   1      15.320   9.821   4.426  0.00  0.00     0.087 H 
ATOM     27  H13 JZH d   1      14.422   7.899   3.282  0.00  0.00     0.114 H 
ATOM     28  H14 JZH d   1      10.807   9.736   0.533  0.00  0.00     0.166 HD
ATOM     29  H15 JZH d   1      10.470  12.325   0.536  0.00  0.00     0.112 H 
ENDROOT
BRANCH   1  30
ATOM     30  C5  JZH d   1      11.288  14.949   1.795  0.00  0.00    -0.040 A 
ATOM     31  C4  JZH d   1      10.819  15.978   2.633  0.00  0.00    -0.073 A 
ATOM     32  C3  JZH d   1      10.037  16.985   2.138  0.00  0.00    -0.051 A 
ATOM     33  H3  JZH d   1      11.081  15.972   3.685  0.00  0.00     0.084 H 
ATOM     34  C2  JZH d   1       9.737  17.014   0.778  0.00  0.00     0.065 A 
ATOM     35  H2  JZH d   1       9.654  17.754   2.799  0.00  0.00     0.087 H 
ATOM     36  C7  JZH d   1      10.225  16.003  -0.079  0.00  0.00    -0.051 A 
ATOM     37  C6  JZH d   1      11.013  14.969   0.417  0.00  0.00    -0.073 A 
ATOM     38  H5  JZH d   1       9.983  16.033  -1.135  0.00  0.00     0.087 H 
ATOM     39  H4  JZH d   1      11.404  14.201  -0.241  0.00  0.00     0.084 H 
BRANCH  34  40
ATOM     40  O1  JZH d   1       9.003  18.065   0.254  0.00  0.00    -0.361 OA
ATOM     41  H1  JZH d   1       9.467  18.880   0.405  0.00  0.00     0.217 HD
ENDBRANCH  34  40
ENDBRANCH   1  30
TORSDOF 2
