REMARK  7 active torsions:
REMARK  status: ('A' for Active; 'I' for Inactive)
REMARK    1  A    between atoms: C1_1  and  C13_13 
REMARK    2  A    between atoms: O2_19  and  C2_2 
REMARK    3  A    between atoms: C7_7  and  O2_19 
REMARK    4  A    between atoms: C8_8  and  O1_20 
REMARK    5  A    between atoms: C13_13  and  C14_14 
REMARK    6  A    between atoms: C14_14  and  O3_18 
REMARK    7  A    between atoms: C14_14  and  O4_21 
ROOT
ATOM      1  C1  4HY d   1      25.285  37.420  34.425  0.00  0.00    -0.048 A 
ATOM      2  C3  4HY d   1      25.856  38.832  34.427  0.00  0.00    -0.048 A 
ATOM      3  C5  4HY d   1      26.685  39.240  33.228  0.00  0.00     0.024 A 
ATOM      4  C7  4HY d   1      26.903  38.282  32.095  0.00  0.00     0.063 A 
ATOM      5  C9  4HY d   1      26.364  36.831  32.116  0.00  0.00     0.024 A 
ATOM      6  C11 4HY d   1      25.531  36.395  33.304  0.00  0.00    -0.048 A 
ATOM      7  I1  4HY d   1      26.894  41.311  32.900  0.00  0.00    -0.082 I 
ATOM      8  I3  4HY d   1      25.982  35.853  30.327  0.00  0.00    -0.082 I 
ATOM      9  H1  4HY d   1      24.252  37.677  34.147  0.00  0.00     0.040 H 
ATOM     10  H3  4HY d   1      26.492  38.932  35.319  0.00  0.00     0.035 H 
ATOM     11  H4  4HY d   1      25.010  39.532  34.499  0.00  0.00     0.035 H 
ATOM     12  H6  4HY d   1      27.668  39.085  33.697  0.00  0.00     0.060 H 
ATOM     13  H7  4HY d   1      27.994  38.146  32.085  0.00  0.00     0.086 H 
ATOM     14  H9  4HY d   1      27.304  36.323  32.378  0.00  0.00     0.060 H 
ATOM     15  H12 4HY d   1      24.547  36.088  32.919  0.00  0.00     0.035 H 
ATOM     16  H13 4HY d   1      26.035  35.528  33.757  0.00  0.00     0.035 H 
ENDROOT
BRANCH   4  17
ATOM     17  O2  4HY d   1      26.594  38.878  30.910  0.00  0.00    -0.374 OA
BRANCH  17  18
ATOM     18  C2  4HY d   1      27.822  39.023  30.348  0.00  0.00     0.056 A 
ATOM     19  C4  4HY d   1      28.111  40.144  29.319  0.00  0.00    -0.061 A 
ATOM     20  C6  4HY d   1      29.472  40.150  28.726  0.00  0.00     0.011 A 
ATOM     21  H5  4HY d   1      27.360  40.884  29.047  0.00  0.00     0.082 H 
ATOM     22  C8  4HY d   1      30.514  39.178  29.061  0.00  0.00     0.066 A 
ATOM     23  I2  4HY d   1      30.048  41.581  27.332  0.00  0.00    -0.047 I 
ATOM     24  C10 4HY d   1      30.198  38.066  30.112  0.00  0.00    -0.034 A 
ATOM     25  H8  4HY d   1      30.182  38.515  28.248  0.00  0.00     0.091 H 
ATOM     26  C12 4HY d   1      28.829  37.997  30.748  0.00  0.00    -0.035 A 
ATOM     27  H10 4HY d   1      30.923  38.187  30.930  0.00  0.00     0.037 H 
ATOM     28  H11 4HY d   1      30.366  37.100  29.613  0.00  0.00     0.037 H 
ATOM     29  H14 4HY d   1      28.405  37.011  30.508  0.00  0.00     0.037 H 
ATOM     30  H15 4HY d   1      28.968  38.081  31.836  0.00  0.00     0.037 H 
ATOM     31  H2  4HY d   1      28.147  39.689  31.161  0.00  0.00     0.089 H 
BRANCH  22  32
ATOM     32  O1  4HY d   1      31.779  39.292  28.461  0.00  0.00    -0.390 OA
ATOM     33  H20 4HY d   1      31.776  40.023  27.854  0.00  0.00     0.210 HD
ENDBRANCH  22  32
ENDBRANCH  17  18
ENDBRANCH   4  17
BRANCH   1  34
ATOM     34  C13 4HY d   1      25.034  36.890  35.805  0.00  0.00    -0.016 C 
ATOM     35  H16 4HY d   1      25.653  37.469  36.506  0.00  0.00     0.040 H 
ATOM     36  H17 4HY d   1      25.348  35.836  35.823  0.00  0.00     0.040 H 
BRANCH  34  37
ATOM     37  C14 4HY d   1      23.653  36.953  36.271  0.00  0.00     0.126 C 
ATOM     38  H18 4HY d   1      23.450  38.017  36.460  0.00  0.00     0.128 H 
BRANCH  37  39
ATOM     39  O3  4HY d   1      22.902  36.692  35.387  0.00  0.00    -0.371 OA
ATOM     40  H19 4HY d   1      22.016  36.913  35.650  0.00  0.00     0.212 HD
ENDBRANCH  37  39
BRANCH  37  41
ATOM     41  O4  4HY d   1      23.572  36.375  37.560  0.00  0.00    -0.371 OA
ATOM     42  H21 4HY d   1      22.729  36.582  37.946  0.00  0.00     0.212 HD
ENDBRANCH  37  41
ENDBRANCH  34  37
ENDBRANCH   1  34
TORSDOF 7
