REMARK  5 active torsions:
REMARK  status: ('A' for Active; 'I' for Inactive)
REMARK    1  A    between atoms: C1_1  and  C13_13 
REMARK    2  A    between atoms: O2_19  and  C2_2 
REMARK    3  A    between atoms: C7_7  and  O2_19 
REMARK    4  A    between atoms: C8_8  and  O1_20 
REMARK    5  A    between atoms: C13_13  and  C14_14 
ROOT
ATOM      1  C1  4HY d   1     -15.178 -16.166 -27.122  0.00  0.00    -0.046 A 
ATOM      2  C3  4HY d   1     -14.780 -16.292 -28.446  0.00  0.00    -0.058 A 
ATOM      3  C5  4HY d   1     -14.164 -15.225 -29.102  0.00  0.00     0.042 A 
ATOM      4  C7  4HY d   1     -13.963 -14.011 -28.440  0.00  0.00     0.109 A 
ATOM      5  C9  4HY d   1     -14.388 -13.885 -27.120  0.00  0.00     0.042 A 
ATOM      6  C11 4HY d   1     -14.987 -14.957 -26.469  0.00  0.00    -0.058 A 
ATOM      7  I1  4HY d   1     -13.555 -15.475 -31.112  0.00  0.00    -0.042 I 
ATOM      8  I3  4HY d   1     -14.074 -12.076 -26.093  0.00  0.00    -0.042 I 
ATOM      9  H1  4HY d   1     -14.948 -17.224 -28.973  0.00  0.00     0.086 H 
ATOM     10  H4  4HY d   1     -15.309 -14.847 -25.440  0.00  0.00     0.086 H 
ENDROOT
BRANCH   4  11
ATOM     11  O2  4HY d   1     -13.360 -12.945 -29.062  0.00  0.00    -0.308 OA
BRANCH  11  12
ATOM     12  C2  4HY d   1     -14.182 -12.138 -29.798  0.00  0.00     0.077 A 
ATOM     13  C4  4HY d   1     -13.661 -11.427 -30.867  0.00  0.00    -0.032 A 
ATOM     14  C6  4HY d   1     -14.482 -10.610 -31.633  0.00  0.00     0.042 A 
ATOM     15  H2  4HY d   1     -12.607 -11.509 -31.107  0.00  0.00     0.089 H 
ATOM     16  C8  4HY d   1     -15.834 -10.503 -31.336  0.00  0.00     0.082 A 
ATOM     17  I2  4HY d   1     -13.640  -9.534 -33.232  0.00  0.00    -0.042 I 
ATOM     18  C10 4HY d   1     -16.361 -11.214 -30.272  0.00  0.00    -0.047 A 
ATOM     19  C12 4HY d   1     -15.539 -12.033 -29.508  0.00  0.00    -0.048 A 
ATOM     20  H3  4HY d   1     -17.416 -11.132 -30.035  0.00  0.00     0.087 H 
ATOM     21  H5  4HY d   1     -15.957 -12.594 -28.680  0.00  0.00     0.087 H 
BRANCH  16  22
ATOM     22  O1  4HY d   1     -16.635  -9.706 -32.082  0.00  0.00    -0.359 OA
ATOM     23  H8  4HY d   1     -17.020  -9.038 -31.527  0.00  0.00     0.217 HD
ENDBRANCH  16  22
ENDBRANCH  11  12
ENDBRANCH   4  11
BRANCH   1  24
ATOM     24  C13 4HY d   1     -15.887 -17.308 -26.371  0.00  0.00     0.040 C 
ATOM     25  H6  4HY d   1     -16.732 -17.637 -26.994  0.00  0.00     0.056 H 
ATOM     26  H7  4HY d   1     -16.268 -16.893 -25.426  0.00  0.00     0.056 H 
BRANCH  24  27
ATOM     27  C14 4HY d   1     -15.061 -18.554 -26.024  0.00  0.00     0.176 C 
ATOM     28  O3  4HY d   1     -13.887 -18.388 -25.623  0.00  0.00    -0.648 OA
ATOM     29  O4  4HY d   1     -15.683 -19.647 -26.088  0.00  0.00    -0.648 OA
ENDBRANCH  24  27
ENDBRANCH   1  24
TORSDOF 5
