REMARK  6 active torsions:
REMARK  status: ('A' for Active; 'I' for Inactive)
REMARK       I    between atoms: N1_1  and  C2_2 
REMARK    1  A    between atoms: C2_2  and  C4_4 
REMARK    2  A    between atoms: N8_8  and  C9_9 
REMARK    3  A    between atoms: C9_9  and  C10_10 
REMARK    4  A    between atoms: C16_16  and  N17_17 
REMARK    5  A    between atoms: N17_17  and  C18_18 
REMARK    6  A    between atoms: C18_18  and  C19_19 
ROOT
ATOM      1  C4  JZK d   1      39.029 -25.417  37.211  0.00  0.00     0.034 A 
ATOM      2  C5  JZK d   1      39.152 -23.997  37.178  0.00  0.00    -0.065 A 
ATOM      3  C6  JZK d   1      38.147 -23.000  37.662  0.00  0.00    -0.053 A 
ATOM      4  C7  JZK d   1      36.999 -23.762  38.212  0.00  0.00     0.081 A 
ATOM      5  N8  JZK d   1      35.827 -23.290  38.769  0.00  0.00    -0.179 N 
ATOM      6  C16 JZK d   1      35.069 -24.361  39.152  0.00  0.00     0.704 A 
ATOM      7  N26 JZK d   1      35.673 -25.487  38.841  0.00  0.00    -0.063 NA
ATOM      8  C27 JZK d   1      36.848 -25.159  38.260  0.00  0.00     0.104 A 
ATOM      9  C28 JZK d   1      37.853 -26.005  37.762  0.00  0.00    -0.037 A 
ATOM     10  H3  JZK d   1      40.069 -23.598  36.759  0.00  0.00     0.085 H 
ATOM     11  H4  JZK d   1      38.240 -21.921  37.619  0.00  0.00     0.087 H 
ATOM     12  H25 JZK d   1      37.737 -27.082  37.796  0.00  0.00     0.088 H 
ENDROOT
BRANCH   5  13
ATOM     13  C9  JZK d   1      35.370 -21.901  38.732  0.00  0.00     0.020 C 
ATOM     14  H5  JZK d   1      36.239 -21.231  38.651  0.00  0.00     0.066 H 
ATOM     15  H6  JZK d   1      34.815 -21.672  39.654  0.00  0.00     0.066 H 
BRANCH  13  16
ATOM     16  C10 JZK d   1      34.447 -21.697  37.512  0.00  0.00    -0.038 C 
ATOM     17  C11 JZK d   1      33.620 -20.439  37.771  0.00  0.00    -0.060 C 
ATOM     18  C12 JZK d   1      34.245 -19.177  37.183  0.00  0.00    -0.065 C 
ATOM     19  H8  JZK d   1      33.519 -20.305  38.858  0.00  0.00     0.033 H 
ATOM     20  H9  JZK d   1      32.624 -20.577  37.324  0.00  0.00     0.033 H 
ATOM     21  C13 JZK d   1      34.590 -19.283  35.692  0.00  0.00    -0.065 C 
ATOM     22  H10 JZK d   1      35.170 -18.960  37.737  0.00  0.00     0.033 H 
ATOM     23  H11 JZK d   1      33.535 -18.347  37.315  0.00  0.00     0.033 H 
ATOM     24  C14 JZK d   1      34.609 -20.722  35.154  0.00  0.00    -0.065 C 
ATOM     25  H12 JZK d   1      35.586 -18.842  35.535  0.00  0.00     0.033 H 
ATOM     26  H13 JZK d   1      33.842 -18.711  35.123  0.00  0.00     0.033 H 
ATOM     27  C15 JZK d   1      35.295 -21.608  36.213  0.00  0.00    -0.060 C 
ATOM     28  H14 JZK d   1      35.172 -20.762  34.210  0.00  0.00     0.033 H 
ATOM     29  H15 JZK d   1      33.580 -21.072  34.982  0.00  0.00     0.033 H 
ATOM     30  H16 JZK d   1      35.428 -22.620  35.802  0.00  0.00     0.033 H 
ATOM     31  H17 JZK d   1      36.278 -21.179  36.456  0.00  0.00     0.033 H 
ATOM     32  H7  JZK d   1      33.766 -22.556  37.421  0.00  0.00     0.042 H 
ENDBRANCH  13  16
ENDBRANCH   5  13
BRANCH   6  33
ATOM     33  N17 JZK d   1      33.871 -24.173  39.740  0.00  0.00    -0.220 N 
ATOM     34  H18 JZK d   1      33.422 -23.246  39.710  0.00  0.00     0.178 HD
BRANCH  33  35
ATOM     35  C18 JZK d   1      33.217 -25.270  40.411  0.00  0.00     0.035 C 
ATOM     36  H19 JZK d   1      33.305 -26.157  39.767  0.00  0.00     0.072 H 
ATOM     37  H20 JZK d   1      32.156 -25.006  40.529  0.00  0.00     0.072 H 
BRANCH  35  38
ATOM     38  C19 JZK d   1      33.759 -25.641  41.789  0.00  0.00    -0.018 A 
ATOM     39  C20 JZK d   1      34.482 -24.767  42.642  0.00  0.00    -0.074 A 
ATOM     40  C21 JZK d   1      34.913 -25.245  43.921  0.00  0.00    -0.082 A 
ATOM     41  H21 JZK d   1      34.705 -23.753  42.330  0.00  0.00     0.084 H 
ATOM     42  C22 JZK d   1      34.634 -26.575  44.354  0.00  0.00    -0.081 A 
ATOM     43  H22 JZK d   1      35.465 -24.580  44.576  0.00  0.00     0.083 H 
ATOM     44  C23 JZK d   1      33.919 -27.446  43.511  0.00  0.00    -0.061 A 
ATOM     45  H23 JZK d   1      34.971 -26.913  45.327  0.00  0.00     0.083 H 
ATOM     46  C24 JZK d   1      33.494 -26.967  42.239  0.00  0.00     0.042 A 
ATOM     47  H24 JZK d   1      33.697 -28.460  43.823  0.00  0.00     0.086 H 
ATOM     48 CL25 JZK d   1      32.625 -28.011  41.181  0.00  0.00    -0.084 Cl
ENDBRANCH  35  38
ENDBRANCH  33  35
ENDBRANCH   6  33
BRANCH   1  49
ATOM     49  C2  JZK d   1      40.115 -26.265  36.581  0.00  0.00     0.249 C 
ATOM     50  N1  JZK d   1      39.982 -27.655  36.718  0.00  0.00    -0.366 N 
ATOM     51  H1  JZK d   1      39.279 -28.033  37.320  0.00  0.00     0.159 HD
ATOM     52  H2  JZK d   1      40.590 -28.268  36.213  0.00  0.00     0.159 HD
ATOM     53  O3  JZK d   1      40.971 -25.721  35.846  0.00  0.00    -0.268 OA
ENDBRANCH   1  49
TORSDOF 6
