REMARK  23 active torsions:
REMARK  status: ('A' for Active; 'I' for Inactive)
REMARK    1  A    between atoms: N_1  and  CA_2 
REMARK    2  A    between atoms: CA_2  and  C_3 
REMARK    3  A    between atoms: CA_2  and  CB_5 
REMARK       I    between atoms: C_3  and  N_6 
REMARK    4  A    between atoms: N_6  and  CA_7 
REMARK    5  A    between atoms: CA_7  and  C_8 
REMARK    6  A    between atoms: CA_7  and  CB_10 
REMARK       I    between atoms: C_8  and  N_17 
REMARK    7  A    between atoms: CB_10  and  CG_11 
REMARK    8  A    between atoms: CG_11  and  CD_12 
REMARK    9  A    between atoms: CD_12  and  NE_13 
REMARK       I    between atoms: NE_13  and  CZ_14 
REMARK       I    between atoms: CZ_14  and  NH1_15 
REMARK   10  A    between atoms: N_17  and  CA_18 
REMARK   11  A    between atoms: CA_18  and  CB_19 
REMARK   12  A    between atoms: CA_18  and  C_24 
REMARK   13  A    between atoms: CB_19  and  CG_20 
REMARK   14  A    between atoms: CG_20  and  CD_21 
REMARK   15  A    between atoms: CD_21  and  CE_22 
REMARK   16  A    between atoms: CE_22  and  NZ_23 
REMARK   17  A    between atoms: NZ_23  and  CM1_26 
REMARK   18  A    between atoms: NZ_23  and  CM2_27 
REMARK   19  A    between atoms: NZ_23  and  CM3_28 
REMARK       I    between atoms: C_24  and  N_29 
REMARK   20  A    between atoms: N_29  and  CA_30 
REMARK   21  A    between atoms: CA_30  and  C_31 
REMARK   22  A    between atoms: CA_30  and  CB_33 
REMARK   23  A    between atoms: CB_33  and  OG_34 
ROOT
ATOM      1  CA  M3L d   1     -17.287  29.484 -27.518  0.00  0.00     0.089 C 
ATOM      2  H22 M3L d   1     -16.663  29.969 -26.753  0.00  0.00     0.087 H 
ENDROOT
BRANCH   1   3
ATOM      3  N   M3L d   1     -18.344  30.456 -27.827  0.00  0.00    -0.346 N 
ATOM      4  C   ARG d   1     -18.153  31.768 -28.042  0.00  0.00     0.241 C 
ATOM      5  O   ARG d   1     -17.069  32.371 -27.924  0.00  0.00    -0.271 OA
ATOM      6  H21 M3L d   1     -19.282  30.113 -27.882  0.00  0.00     0.163 HD
BRANCH   4   7
ATOM      7  CA  ARG d   1     -19.424  32.527 -28.427  0.00  0.00     0.089 C 
ATOM      8  H9  ARG d   1     -20.249  32.034 -27.892  0.00  0.00     0.087 H 
BRANCH   7   9
ATOM      9  N   ARG d   1     -19.395  33.908 -27.932  0.00  0.00    -0.346 N 
ATOM     10  C   ALA d   1     -19.980  34.212 -26.768  0.00  0.00     0.248 C 
ATOM     11  O   ALA d   1     -20.570  33.366 -26.084  0.00  0.00    -0.271 OA
ATOM     12  H8  ARG d   1     -18.939  34.621 -28.464  0.00  0.00     0.163 HD
BRANCH  10  13
ATOM     13  CA  ALA d   1     -19.877  35.657 -26.266  0.00  0.00     0.172 C 
ATOM     14  H4  ALA d   1     -19.322  36.253 -27.005  0.00  0.00     0.098 H 
BRANCH  13  15
ATOM     15  N   ALA d   1     -21.240  36.231 -26.116  0.00  0.00    -0.067 N 
ATOM     16  H1  ALA d   1     -21.170  37.181 -25.786  0.00  0.00     0.275 HD
ATOM     17  H2  ALA d   1     -21.764  35.682 -25.453  0.00  0.00     0.275 HD
ATOM     18  H3  ALA d   1     -21.710  36.219 -27.008  0.00  0.00     0.275 HD
ENDBRANCH  13  15
BRANCH  13  19
ATOM     19  CB  ALA d   1     -19.117  35.695 -24.934  0.00  0.00    -0.042 C 
ATOM     20  H5  ALA d   1     -18.114  35.266 -25.072  0.00  0.00     0.030 H 
ATOM     21  H6  ALA d   1     -19.666  35.110 -24.182  0.00  0.00     0.030 H 
ATOM     22  H7  ALA d   1     -19.026  36.737 -24.593  0.00  0.00     0.030 H 
ENDBRANCH  13  19
ENDBRANCH  10  13
ENDBRANCH   7   9
BRANCH   7  23
ATOM     23  CB  ARG d   1     -19.765  32.392 -29.938  0.00  0.00    -0.036 C 
ATOM     24  H10 ARG d   1     -20.799  32.742 -30.073  0.00  0.00     0.036 H 
ATOM     25  H11 ARG d   1     -19.703  31.324 -30.194  0.00  0.00     0.036 H 
BRANCH  23  26
ATOM     26  CG  ARG d   1     -18.848  33.191 -30.992  0.00  0.00    -0.048 C 
ATOM     27  H12 ARG d   1     -17.799  33.088 -30.677  0.00  0.00     0.035 H 
ATOM     28  H13 ARG d   1     -19.138  34.252 -30.961  0.00  0.00     0.035 H 
BRANCH  26  29
ATOM     29  CD  ARG d   1     -18.962  32.691 -32.506  0.00  0.00     0.009 C 
ATOM     30  H14 ARG d   1     -18.049  32.136 -32.768  0.00  0.00     0.064 H 
ATOM     31  H15 ARG d   1     -19.060  33.567 -33.164  0.00  0.00     0.064 H 
BRANCH  29  32
ATOM     32  NE  ARG d   1     -20.120  31.819 -32.702  0.00  0.00    -0.227 N 
ATOM     33  CZ  ARG d   1     -21.378  32.260 -32.806  0.00  0.00     0.665 C 
ATOM     34  NH1 ARG d   1     -21.646  33.571 -32.768  0.00  0.00    -0.235 N 
ATOM     35  NH2 ARG d   1     -22.380  31.398 -32.942  0.00  0.00    -0.235 N 
ATOM     36  H17 ARG d   1     -22.619  33.900 -32.849  0.00  0.00     0.174 HD
ATOM     37  H18 ARG d   1     -20.880  34.250 -32.658  0.00  0.00     0.174 HD
ATOM     38  H19 ARG d   1     -22.189  30.386 -32.973  0.00  0.00     0.174 HD
ATOM     39  H20 ARG d   1     -23.348  31.741 -33.017  0.00  0.00     0.174 HD
ATOM     40  H16 ARG d   1     -19.956  30.804 -32.764  0.00  0.00     0.177 HD
ENDBRANCH  29  32
ENDBRANCH  26  29
ENDBRANCH  23  26
ENDBRANCH   7  23
ENDBRANCH   4   7
ENDBRANCH   1   3
BRANCH   1  41
ATOM     41  CB  M3L d   1     -17.831  28.186 -26.867  0.00  0.00    -0.038 C 
ATOM     42  H23 M3L d   1     -18.140  27.493 -27.663  0.00  0.00     0.036 H 
ATOM     43  H24 M3L d   1     -18.701  28.440 -26.243  0.00  0.00     0.036 H 
BRANCH  41  44
ATOM     44  CG  M3L d   1     -16.779  27.496 -25.992  0.00  0.00    -0.061 C 
ATOM     45  H25 M3L d   1     -16.677  28.068 -25.058  0.00  0.00     0.033 H 
ATOM     46  H26 M3L d   1     -15.821  27.503 -26.533  0.00  0.00     0.033 H 
BRANCH  44  47
ATOM     47  CD  M3L d   1     -17.118  26.049 -25.634  0.00  0.00    -0.042 C 
ATOM     48  H27 M3L d   1     -17.131  25.456 -26.560  0.00  0.00     0.035 H 
ATOM     49  H28 M3L d   1     -18.116  26.030 -25.173  0.00  0.00     0.035 H 
BRANCH  47  50
ATOM     50  CE  M3L d   1     -16.107  25.395 -24.645  0.00  0.00     0.084 C 
ATOM     51  H29 M3L d   1     -15.898  26.128 -23.852  0.00  0.00     0.076 H 
ATOM     52  H30 M3L d   1     -15.183  25.188 -25.205  0.00  0.00     0.076 H 
BRANCH  50  53
ATOM     53  NZ  M3L d   1     -16.528  24.114 -23.977  0.00  0.00    -0.079 N 
BRANCH  53  54
ATOM     54  CM1 M3L d   1     -17.319  24.286 -22.749  0.00  0.00     0.067 C 
ATOM     55  H31 M3L d   1     -17.577  23.299 -22.338  0.00  0.00     0.068 H 
ATOM     56  H32 M3L d   1     -18.241  24.839 -22.981  0.00  0.00     0.068 H 
ATOM     57  H33 M3L d   1     -16.730  24.849 -22.010  0.00  0.00     0.068 H 
ENDBRANCH  53  54
BRANCH  53  58
ATOM     58  CM2 M3L d   1     -15.302  23.417 -23.535  0.00  0.00     0.067 C 
ATOM     59  H34 M3L d   1     -14.645  23.246 -24.401  0.00  0.00     0.068 H 
ATOM     60  H35 M3L d   1     -15.572  22.451 -23.083  0.00  0.00     0.068 H 
ATOM     61  H36 M3L d   1     -14.776  24.035 -22.792  0.00  0.00     0.068 H 
ENDBRANCH  53  58
BRANCH  53  62
ATOM     62  CM3 M3L d   1     -17.312  23.257 -24.920  0.00  0.00     0.067 C 
ATOM     63  H37 M3L d   1     -18.219  23.794 -25.236  0.00  0.00     0.068 H 
ATOM     64  H38 M3L d   1     -17.597  22.322 -24.415  0.00  0.00     0.068 H 
ATOM     65  H39 M3L d   1     -16.697  23.025 -25.802  0.00  0.00     0.068 H 
ENDBRANCH  53  62
ENDBRANCH  50  53
ENDBRANCH  47  50
ENDBRANCH  44  47
ENDBRANCH  41  44
ENDBRANCH   1  41
BRANCH   1  66
ATOM     66  C   M3L d   1     -16.347  29.167 -28.670  0.00  0.00     0.241 C 
ATOM     67  O   M3L d   1     -15.172  28.816 -28.398  0.00  0.00    -0.271 OA
ATOM     68  N   SER d   1     -16.825  29.275 -29.941  0.00  0.00    -0.343 N 
ATOM     69  H40 SER d   1     -17.805  29.427 -30.073  0.00  0.00     0.163 HD
BRANCH  68  70
ATOM     70  CA  SER d   1     -15.925  29.173 -31.177  0.00  0.00     0.116 C 
ATOM     71  H41 SER d   1     -14.909  29.316 -30.780  0.00  0.00     0.093 H 
BRANCH  70  72
ATOM     72  C   SER d   1     -16.041  30.210 -32.335  0.00  0.00     0.198 C 
ATOM     73  O   SER d   1     -17.117  30.714 -32.644  0.00  0.00    -0.646 OA
ATOM     74  O1  SER d   1     -15.004  30.539 -32.970  0.00  0.00    -0.646 OA
ENDBRANCH  70  72
BRANCH  70  75
ATOM     75  CB  SER d   1     -15.962  27.763 -31.771  0.00  0.00     0.045 C 
ATOM     76  H42 SER d   1     -15.385  27.079 -31.131  0.00  0.00     0.077 H 
ATOM     77  H43 SER d   1     -15.525  27.777 -32.780  0.00  0.00     0.077 H 
BRANCH  75  78
ATOM     78  OG  SER d   1     -17.300  27.325 -31.843  0.00  0.00    -0.398 OA
ATOM     79  H44 SER d   1     -17.326  26.450 -32.212  0.00  0.00     0.209 HD
ENDBRANCH  75  78
ENDBRANCH  70  75
ENDBRANCH  68  70
ENDBRANCH   1  66
TORSDOF 23
