REMARK  7 active torsions:
REMARK  status: ('A' for Active; 'I' for Inactive)
REMARK       I    between atoms: N1_1  and  C2_2 
REMARK    1  A    between atoms: C2_2  and  C4_4 
REMARK    2  A    between atoms: C6_6  and  N7_7 
REMARK    3  A    between atoms: N9_9  and  C10_10 
REMARK    4  A    between atoms: C10_10  and  C11_11 
REMARK    5  A    between atoms: C17_17  and  O18_18 
REMARK    6  A    between atoms: N20_20  and  C21_21 
REMARK    7  A    between atoms: C21_21  and  C22_22 
ROOT
ATOM      1  C4  JZL d   1     -14.324  -1.110   0.219  0.00  0.00     0.036 A 
ATOM      2  C5  JZL d   1     -14.598  -0.859   1.581  0.00  0.00    -0.040 A 
ATOM      3  C6  JZL d   1     -13.790  -0.011   2.363  0.00  0.00     0.057 A 
ATOM      4  C8  JZL d   1     -12.673   0.553   1.686  0.00  0.00     0.107 A 
ATOM      5  N9  JZL d   1     -11.690   1.396   2.071  0.00  0.00    -0.177 N 
ATOM      6  C19 JZL d   1     -10.846   1.636   1.013  0.00  0.00     0.704 A 
ATOM      7  N20 JZL d   1      -9.781   2.469   1.185  0.00  0.00    -0.220 N 
ATOM      8  N29 JZL d   1     -11.241   0.959  -0.037  0.00  0.00    -0.062 NA
ATOM      9  C30 JZL d   1     -12.364   0.305   0.350  0.00  0.00     0.106 A 
ATOM     10  C31 JZL d   1     -13.185  -0.544  -0.402  0.00  0.00    -0.037 A 
ATOM     11  H3  JZL d   1     -15.458  -1.334   2.039  0.00  0.00     0.088 H 
ATOM     12  H21 JZL d   1      -9.532   2.760   2.141  0.00  0.00     0.178 HD
ATOM     13  H28 JZL d   1     -12.953  -0.763  -1.438  0.00  0.00     0.088 H 
ENDROOT
BRANCH   5  14
ATOM     14  C10 JZL d   1     -11.594   1.987   3.374  0.00  0.00     0.023 C 
ATOM     15  H6  JZL d   1     -12.609   2.018   3.797  0.00  0.00     0.066 H 
ATOM     16  H7  JZL d   1     -11.220   3.013   3.243  0.00  0.00     0.066 H 
BRANCH  14  17
ATOM     17  C11 JZL d   1     -10.716   1.316   4.372  0.00  0.00    -0.013 C 
ATOM     18  C12 JZL d   1     -10.612   1.832   5.802  0.00  0.00    -0.058 C 
ATOM     19  C13 JZL d   1     -10.632   0.687   6.786  0.00  0.00    -0.065 C 
ATOM     20  H9  JZL d   1     -11.462   2.499   6.008  0.00  0.00     0.033 H 
ATOM     21  H10 JZL d   1      -9.671   2.390   5.917  0.00  0.00     0.033 H 
ATOM     22  C14 JZL d   1     -11.411  -0.495   6.278  0.00  0.00    -0.065 C 
ATOM     23  H11 JZL d   1     -11.091   1.035   7.723  0.00  0.00     0.033 H 
ATOM     24  H12 JZL d   1      -9.597   0.370   6.980  0.00  0.00     0.033 H 
ATOM     25  C15 JZL d   1     -10.619  -1.479   5.419  0.00  0.00    -0.063 C 
ATOM     26  H13 JZL d   1     -12.249  -0.116   5.675  0.00  0.00     0.033 H 
ATOM     27  H14 JZL d   1     -11.803  -1.043   7.148  0.00  0.00     0.033 H 
ATOM     28  C16 JZL d   1      -9.612  -0.961   4.369  0.00  0.00    -0.041 C 
ATOM     29  H15 JZL d   1     -11.356  -2.089   4.876  0.00  0.00     0.033 H 
ATOM     30  H16 JZL d   1     -10.052  -2.119   6.112  0.00  0.00     0.033 H 
ATOM     31  C17 JZL d   1      -9.555   0.488   3.884  0.00  0.00     0.040 C 
ATOM     32  H17 JZL d   1      -9.779  -1.571   3.469  0.00  0.00     0.036 H 
ATOM     33  H18 JZL d   1      -8.615  -1.178   4.779  0.00  0.00     0.036 H 
ATOM     34  H19 JZL d   1      -9.620   0.455   2.786  0.00  0.00     0.083 H 
ATOM     35  H8  JZL d   1     -11.399   0.481   4.586  0.00  0.00     0.046 H 
BRANCH  31  36
ATOM     36  O18 JZL d   1      -8.306   1.137   4.219  0.00  0.00    -0.395 OA
ATOM     37  H20 JZL d   1      -8.319   2.031   3.898  0.00  0.00     0.210 HD
ENDBRANCH  31  36
ENDBRANCH  14  17
ENDBRANCH   5  14
BRANCH   3  38
ATOM     38  N7  JZL d   1     -14.136   0.179   3.715  0.00  0.00    -0.397 N 
ATOM     39  H4  JZL d   1     -14.972  -0.281   4.102  0.00  0.00     0.156 HD
ATOM     40  H5  JZL d   1     -13.553   0.778   4.316  0.00  0.00     0.156 HD
ENDBRANCH   3  38
BRANCH   7  41
ATOM     41  C21 JZL d   1      -9.000   2.953   0.102  0.00  0.00     0.035 C 
ATOM     42  H22 JZL d   1      -8.848   2.133  -0.615  0.00  0.00     0.072 H 
ATOM     43  H23 JZL d   1      -8.026   3.284   0.492  0.00  0.00     0.072 H 
BRANCH  41  44
ATOM     44  C22 JZL d   1      -9.643   4.103  -0.616  0.00  0.00    -0.018 A 
ATOM     45  C23 JZL d   1     -10.453   5.078   0.058  0.00  0.00    -0.074 A 
ATOM     46  C24 JZL d   1     -11.030   6.141  -0.671  0.00  0.00    -0.082 A 
ATOM     47  H24 JZL d   1     -10.622   4.998   1.126  0.00  0.00     0.084 H 
ATOM     48  C25 JZL d   1     -10.807   6.261  -2.060  0.00  0.00    -0.081 A 
ATOM     49  H25 JZL d   1     -11.649   6.870  -0.160  0.00  0.00     0.083 H 
ATOM     50  C26 JZL d   1     -10.009   5.302  -2.734  0.00  0.00    -0.061 A 
ATOM     51  H26 JZL d   1     -11.245   7.085  -2.611  0.00  0.00     0.083 H 
ATOM     52  C27 JZL d   1      -9.426   4.229  -2.010  0.00  0.00     0.042 A 
ATOM     53  H27 JZL d   1      -9.844   5.388  -3.802  0.00  0.00     0.086 H 
ATOM     54 CL28 JZL d   1      -8.458   3.075  -2.871  0.00  0.00    -0.084 Cl
ENDBRANCH  41  44
ENDBRANCH   7  41
BRANCH   1  55
ATOM     55  C2  JZL d   1     -15.276  -1.993  -0.497  0.00  0.00     0.249 C 
ATOM     56  N1  JZL d   1     -15.133  -2.086  -1.848  0.00  0.00    -0.366 N 
ATOM     57  H1  JZL d   1     -14.401  -1.584  -2.309  0.00  0.00     0.159 HD
ATOM     58  H2  JZL d   1     -15.760  -2.656  -2.379  0.00  0.00     0.159 HD
ATOM     59  O3  JZL d   1     -16.154  -2.587   0.113  0.00  0.00    -0.268 OA
ENDBRANCH   1  55
TORSDOF 7
