REMARK  2 active torsions:
REMARK  status: ('A' for Active; 'I' for Inactive)
REMARK    1  A    between atoms: C10_17  and  C1_1 
REMARK    2  A    between atoms: C20_27  and  C7_14 
ROOT
ATOM      1  N1  YIN d   1      11.337 -16.615  24.006  0.00  0.00    -0.084 N 
ATOM      2  O1  YIN d   1       6.751 -15.320  22.739  0.00  0.00    -0.336 OA
ATOM      3  N2  YIN d   1      13.011 -16.465  22.709  0.00  0.00    -0.054 NA
ATOM      4  N3  YIN d   1      10.851 -15.314  21.949  0.00  0.00    -0.187 N 
ATOM      5  N4  YIN d   1      12.274 -17.291  24.634  0.00  0.00    -0.149 NA
ATOM      6  C7  YIN d   1       7.557 -15.274  23.939  0.00  0.00     0.097 C 
ATOM      7  C8  YIN d   1      13.346 -17.196  23.807  0.00  0.00     0.125 A 
ATOM      8  C9  YIN d   1       9.014 -15.570  23.560  0.00  0.00     0.012 A 
ATOM      9  C10 YIN d   1       9.951 -16.406  24.543  0.00  0.00     0.104 A 
ATOM     10  C11 YIN d   1      11.746 -16.091  22.815  0.00  0.00     0.725 A 
ATOM     11  C12 YIN d   1       9.476 -15.115  22.355  0.00  0.00     0.070 A 
ATOM     12  C13 YIN d   1       9.134 -13.614  20.319  0.00  0.00    -0.068 A 
ATOM     13  C14 YIN d   1       8.140 -12.955  19.488  0.00  0.00    -0.082 A 
ATOM     14  C15 YIN d   1       6.738 -13.105  19.722  0.00  0.00    -0.080 A 
ATOM     15  C16 YIN d   1       6.248 -13.925  20.809  0.00  0.00    -0.050 A 
ATOM     16  C17 YIN d   1       7.208 -14.580  21.648  0.00  0.00     0.082 A 
ATOM     17  C18 YIN d   1       8.621 -14.432  21.411  0.00  0.00     0.025 A 
ATOM     18  H3  YIN d   1      11.197 -14.916  21.064  0.00  0.00     0.184 HD
ATOM     19  H6  YIN d   1       7.225 -16.093  24.594  0.00  0.00     0.099 H 
ATOM     20  H7  YIN d   1      14.324 -17.637  23.993  0.00  0.00     0.150 H 
ATOM     21  H8  YIN d   1       9.491 -17.401  24.636  0.00  0.00     0.092 H 
ATOM     22  H9  YIN d   1      10.197 -13.503  20.137  0.00  0.00     0.085 H 
ATOM     23  H10 YIN d   1       8.472 -12.331  18.666  0.00  0.00     0.083 H 
ATOM     24  H11 YIN d   1       6.031 -12.597  19.076  0.00  0.00     0.083 H 
ATOM     25  H12 YIN d   1       5.184 -14.041  20.984  0.00  0.00     0.087 H 
ENDROOT
BRANCH   6  26
ATOM     26  C20 YIN d   1       7.335 -13.990  24.720  0.00  0.00    -0.025 A 
ATOM     27  C19 YIN d   1       6.273 -14.171  25.679  0.00  0.00    -0.073 A 
ATOM     28  C24 YIN d   1       5.878 -13.041  26.482  0.00  0.00    -0.066 A 
ATOM     29  H13 YIN d   1       5.785 -15.132  25.793  0.00  0.00     0.084 H 
ATOM     30  C23 YIN d   1       6.590 -11.794  26.273  0.00  0.00     0.011 A 
ATOM     31  H16 YIN d   1       5.081 -13.120  27.213  0.00  0.00     0.085 H 
ATOM     32 BR2  YIN d   1       6.078 -10.465  27.319  0.00  0.00    -0.051 Br
ATOM     33  C22 YIN d   1       7.661 -11.588  25.326  0.00  0.00    -0.066 A 
ATOM     34  C21 YIN d   1       8.040 -12.724  24.530  0.00  0.00    -0.073 A 
ATOM     35  H15 YIN d   1       8.153 -10.628  25.221  0.00  0.00     0.085 H 
ATOM     36  H14 YIN d   1       8.837 -12.643  23.800  0.00  0.00     0.084 H 
ENDBRANCH   6  26
BRANCH   9  37
ATOM     37  C1  YIN d   1      10.016 -15.834  25.904  0.00  0.00    -0.028 A 
ATOM     38  C2  YIN d   1       9.498 -16.600  27.040  0.00  0.00    -0.073 A 
ATOM     39  C3  YIN d   1       9.553 -16.010  28.353  0.00  0.00    -0.066 A 
ATOM     40  H1  YIN d   1       9.082 -17.590  26.896  0.00  0.00     0.084 H 
ATOM     41  C4  YIN d   1      10.126 -14.708  28.383  0.00  0.00     0.011 A 
ATOM     42  H2  YIN d   1       9.189 -16.514  29.241  0.00  0.00     0.085 H 
ATOM     43 BR1  YIN d   1      10.361 -13.819  30.039  0.00  0.00    -0.051 Br
ATOM     44  C5  YIN d   1      10.628 -13.928  27.324  0.00  0.00    -0.066 A 
ATOM     45  C6  YIN d   1      10.576 -14.514  26.036  0.00  0.00    -0.073 A 
ATOM     46  H4  YIN d   1      11.031 -12.935  27.485  0.00  0.00     0.085 H 
ATOM     47  H5  YIN d   1      10.949 -13.981  25.169  0.00  0.00     0.084 H 
ENDBRANCH   9  37
TORSDOF 2
