REMARK WARNING: 32 MAX_TORS EXCEEDED!!!
REMARK  56 active torsions:
REMARK  status: ('A' for Active; 'I' for Inactive)
REMARK    1  A    between atoms: N_1  and  CA_2 
REMARK    2  A    between atoms: CA_2  and  C_3 
REMARK    3  A    between atoms: CA_2  and  CB_5 
REMARK       I    between atoms: C_3  and  N_9 
REMARK    4  A    between atoms: CB_5  and  CG_6 
REMARK    5  A    between atoms: CG_6  and  CD1_7 
REMARK    6  A    between atoms: CG_6  and  CD2_8 
REMARK    7  A    between atoms: N_9  and  CA_10 
REMARK    8  A    between atoms: CA_10  and  C_11 
REMARK    9  A    between atoms: CA_10  and  CB_13 
REMARK       I    between atoms: C_11  and  N_16 
REMARK   10  A    between atoms: CB_13  and  OG1_14 
REMARK   11  A    between atoms: CB_13  and  CG2_15 
REMARK   12  A    between atoms: N_16  and  CA_17 
REMARK   13  A    between atoms: CA_17  and  C_18 
REMARK   14  A    between atoms: CA_17  and  CB_20 
REMARK       I    between atoms: C_18  and  N_27 
REMARK   15  A    between atoms: CB_20  and  CG_21 
REMARK   16  A    between atoms: N_27  and  CA_28 
REMARK   17  A    between atoms: CA_28  and  C_29 
REMARK   18  A    between atoms: CA_28  and  CB_31 
REMARK       I    between atoms: C_29  and  N_36 
REMARK   19  A    between atoms: CB_31  and  CG_32 
REMARK   20  A    between atoms: CG_32  and  CD_33 
REMARK   21  A    between atoms: N_36  and  CA_37 
REMARK   22  A    between atoms: CA_37  and  C_38 
REMARK   23  A    between atoms: CA_37  and  CB_40 
REMARK       I    between atoms: C_38  and  N_46 
REMARK   24  A    between atoms: CB_40  and  CG_41 
REMARK   25  A    between atoms: N_46  and  CA_47 
REMARK   26  A    between atoms: CA_47  and  C_48 
REMARK   27  A    between atoms: CA_47  and  CB_50 
REMARK       I    between atoms: C_48  and  N_58 
REMARK   28  A    between atoms: CB_50  and  CG_51 
REMARK   29  A    between atoms: CZ_56  and  OH_57 
REMARK   30  A    between atoms: N_58  and  CA_59 
REMARK   31  A    between atoms: CA_59  and  C_60 
REMARK   32  A    between atoms: CA_59  and  CB_62 
REMARK       I    between atoms: C_60  and  N_72 
REMARK   33  A    between atoms: CB_62  and  CG_63 
REMARK   34  A    between atoms: N_72  and  CA_73 
REMARK   35  A    between atoms: CA_73  and  C_74 
REMARK   36  A    between atoms: CA_73  and  CB_76 
REMARK       I    between atoms: C_74  and  N_77 
REMARK   37  A    between atoms: N_77  and  CA_78 
REMARK   38  A    between atoms: CA_78  and  C_79 
REMARK   39  A    between atoms: CA_78  and  CB_81 
REMARK       I    between atoms: C_79  and  N_86 
REMARK   40  A    between atoms: CB_81  and  CG_82 
REMARK   41  A    between atoms: CG_82  and  CD_83 
REMARK       I    between atoms: CD_83  and  NE2_85 
REMARK   42  A    between atoms: N_86  and  CA_87 
REMARK   43  A    between atoms: CA_87  and  C_88 
REMARK   44  A    between atoms: CA_87  and  CB_90 
REMARK       I    between atoms: C_88  and  N_94 
REMARK   45  A    between atoms: CB_90  and  CG_91 
REMARK   46  A    between atoms: CG_91  and  CD1_92 
REMARK   47  A    between atoms: CG_91  and  CD2_93 
REMARK   48  A    between atoms: N_94  and  CA_95 
REMARK   49  A    between atoms: CA_95  and  C_96 
REMARK   50  A    between atoms: CA_95  and  CB_98 
REMARK       I    between atoms: C_96  and  N_101 
REMARK   51  A    between atoms: CB_98  and  OG1_99 
REMARK   52  A    between atoms: CB_98  and  CG2_100 
REMARK   53  A    between atoms: N_101  and  CA_102 
REMARK   54  A    between atoms: CA_102  and  C_103 
REMARK   55  A    between atoms: CA_102  and  CB_105 
REMARK   56  A    between atoms: CB_105  and  OG_106 
ROOT
ATOM      1  CA  TYR d   1      18.460   5.843   5.057  0.00  0.00     0.093 C 
ATOM      2  H44 TYR d   1      18.798   5.792   4.011  0.00  0.00     0.088 H 
ENDROOT
BRANCH   1   3
ATOM      3  N   TYR d   1      18.615   7.226   5.533  0.00  0.00    -0.346 N 
ATOM      4  C   HIS d   1      18.091   8.259   4.884  0.00  0.00     0.241 C 
ATOM      5  O   HIS d   1      17.478   8.137   3.829  0.00  0.00    -0.271 OA
ATOM      6  H43 TYR d   1      19.132   7.394   6.373  0.00  0.00     0.163 HD
BRANCH   4   7
ATOM      7  CA  HIS d   1      18.308   9.641   5.504  0.00  0.00     0.094 C 
ATOM      8  H37 HIS d   1      17.678  10.371   4.974  0.00  0.00     0.088 H 
BRANCH   7   9
ATOM      9  N   HIS d   1      17.938   9.641   6.923  0.00  0.00    -0.346 N 
ATOM     10  C   GLU d   1      16.715   9.319   7.336  0.00  0.00     0.241 C 
ATOM     11  O   GLU d   1      15.798   9.031   6.561  0.00  0.00    -0.271 OA
ATOM     12  H36 HIS d   1      18.628   9.891   7.603  0.00  0.00     0.163 HD
BRANCH  10  13
ATOM     13  CA  GLU d   1      16.474   9.347   8.852  0.00  0.00     0.090 C 
ATOM     14  H31 GLU d   1      15.580   8.742   9.063  0.00  0.00     0.087 H 
BRANCH  13  15
ATOM     15  N   GLU d   1      17.588   8.774   9.625  0.00  0.00    -0.346 N 
ATOM     16  C   PHE d   1      18.038   7.541   9.382  0.00  0.00     0.241 C 
ATOM     17  O   PHE d   1      17.575   6.840   8.498  0.00  0.00    -0.271 OA
ATOM     18  H30 GLU d   1      18.016   9.319  10.346  0.00  0.00     0.163 HD
BRANCH  16  19
ATOM     19  CA  PHE d   1      19.183   7.021  10.260  0.00  0.00     0.093 C 
ATOM     20  H22 PHE d   1      19.610   6.114   9.807  0.00  0.00     0.088 H 
BRANCH  19  21
ATOM     21  N   PHE d   1      20.213   8.056  10.337  0.00  0.00    -0.346 N 
ATOM     22  C   THR d   1      20.777   8.513   9.224  0.00  0.00     0.243 C 
ATOM     23  O   THR d   1      20.509   8.057   8.114  0.00  0.00    -0.271 OA
ATOM     24  H21 PHE d   1      20.492   8.419  11.226  0.00  0.00     0.163 HD
BRANCH  22  25
ATOM     25  CA  THR d   1      21.812   9.634   9.375  0.00  0.00     0.113 C 
ATOM     26  H15 THR d   1      22.387   9.496  10.303  0.00  0.00     0.091 H 
BRANCH  25  27
ATOM     27  N   THR d   1      22.714   9.559   8.226  0.00  0.00    -0.344 N 
ATOM     28  C   LEU d   1      23.990   9.229   8.364  0.00  0.00     0.249 C 
ATOM     29  O   LEU d   1      24.506   9.005   9.449  0.00  0.00    -0.271 OA
ATOM     30  H14 THR d   1      22.359   9.762   7.313  0.00  0.00     0.163 HD
BRANCH  28  31
ATOM     31  CA  LEU d   1      24.804   9.160   7.085  0.00  0.00     0.176 C 
ATOM     32  H4  LEU d   1      25.384   8.226   7.064  0.00  0.00     0.099 H 
BRANCH  31  33
ATOM     33  N   LEU d   1      23.863   9.191   5.925  0.00  0.00    -0.066 N 
ATOM     34  H1  LEU d   1      24.388   9.146   5.066  0.00  0.00     0.275 HD
ATOM     35  H2  LEU d   1      23.329  10.046   5.948  0.00  0.00     0.275 HD
ATOM     36  H3  LEU d   1      23.238   8.402   5.979  0.00  0.00     0.275 HD
ENDBRANCH  31  33
BRANCH  31  37
ATOM     37  CB  LEU d   1      25.765  10.357   7.026  0.00  0.00    -0.028 C 
ATOM     38  H5  LEU d   1      26.319  10.392   7.976  0.00  0.00     0.037 H 
ATOM     39  H6  LEU d   1      25.160  11.270   6.921  0.00  0.00     0.037 H 
BRANCH  37  40
ATOM     40  CG  LEU d   1      26.788  10.338   5.887  0.00  0.00    -0.059 C 
ATOM     41  H7  LEU d   1      26.258  10.223   4.930  0.00  0.00     0.038 H 
BRANCH  40  42
ATOM     42  CD1 LEU d   1      27.584  11.646   5.853  0.00  0.00    -0.073 C 
ATOM     43  H8  LEU d   1      28.312  11.611   5.029  0.00  0.00     0.028 H 
ATOM     44  H9  LEU d   1      28.116  11.776   6.807  0.00  0.00     0.028 H 
ATOM     45  H10 LEU d   1      26.896  12.490   5.699  0.00  0.00     0.028 H 
ENDBRANCH  40  42
BRANCH  40  46
ATOM     46  CD2 LEU d   1      27.716   9.153   6.086  0.00  0.00    -0.073 C 
ATOM     47  H11 LEU d   1      27.126   8.225   6.108  0.00  0.00     0.028 H 
ATOM     48  H12 LEU d   1      28.256   9.266   7.037  0.00  0.00     0.028 H 
ATOM     49  H13 LEU d   1      28.438   9.109   5.257  0.00  0.00     0.028 H 
ENDBRANCH  40  46
ENDBRANCH  37  40
ENDBRANCH  31  37
ENDBRANCH  28  31
ENDBRANCH  25  27
BRANCH  25  50
ATOM     50  CB  THR d   1      21.063  11.004   9.432  0.00  0.00     0.060 C 
ATOM     51  H16 THR d   1      20.473  11.050  10.359  0.00  0.00     0.086 H 
BRANCH  50  52
ATOM     52  OG1 THR d   1      20.186  11.137   8.302  0.00  0.00    -0.393 OA
ATOM     53  H17 THR d   1      19.737  11.973   8.348  0.00  0.00     0.210 HD
ENDBRANCH  50  52
BRANCH  50  54
ATOM     54  CG2 THR d   1      22.072  12.175   9.410  0.00  0.00    -0.050 C 
ATOM     55  H18 THR d   1      21.527  13.130   9.451  0.00  0.00     0.031 H 
ATOM     56  H19 THR d   1      22.665  12.131   8.485  0.00  0.00     0.031 H 
ATOM     57  H20 THR d   1      22.742  12.098  10.279  0.00  0.00     0.031 H 
ENDBRANCH  50  54
ENDBRANCH  25  50
ENDBRANCH  22  25
ENDBRANCH  19  21
BRANCH  19  58
ATOM     58  CB  PHE d   1      18.658   6.681  11.657  0.00  0.00    -0.014 C 
ATOM     59  H23 PHE d   1      18.410   7.620  12.174  0.00  0.00     0.043 H 
ATOM     60  H24 PHE d   1      19.452   6.157  12.210  0.00  0.00     0.043 H 
BRANCH  58  61
ATOM     61  CG  PHE d   1      17.430   5.806  11.640  0.00  0.00    -0.056 A 
ATOM     62  CD1 PHE d   1      17.529   4.467  11.317  0.00  0.00    -0.077 A 
ATOM     63  CE1 PHE d   1      16.386   3.674  11.186  0.00  0.00    -0.082 A 
ATOM     64  H25 PHE d   1      18.507   4.025  11.163  0.00  0.00     0.084 H 
ATOM     65  CZ  PHE d   1      15.133   4.228  11.385  0.00  0.00    -0.083 A 
ATOM     66  H27 PHE d   1      16.480   2.625  10.929  0.00  0.00     0.083 H 
ATOM     67  CE2 PHE d   1      15.019   5.587  11.726  0.00  0.00    -0.082 A 
ATOM     68  H29 PHE d   1      14.244   3.617  11.278  0.00  0.00     0.083 H 
ATOM     69  CD2 PHE d   1      16.167   6.361  11.850  0.00  0.00    -0.077 A 
ATOM     70  H28 PHE d   1      14.043   6.028  11.891  0.00  0.00     0.083 H 
ATOM     71  H26 PHE d   1      16.080   7.409  12.113  0.00  0.00     0.084 H 
ENDBRANCH  58  61
ENDBRANCH  19  58
ENDBRANCH  16  19
ENDBRANCH  13  15
BRANCH  13  72
ATOM     72  CB  GLU d   1      16.188  10.795   9.281  0.00  0.00    -0.029 C 
ATOM     73  H32 GLU d   1      15.214  11.091   8.865  0.00  0.00     0.037 H 
ATOM     74  H33 GLU d   1      16.976  11.439   8.864  0.00  0.00     0.037 H 
BRANCH  72  75
ATOM     75  CG  GLU d   1      16.147  11.009  10.785  0.00  0.00     0.018 C 
ATOM     76  H34 GLU d   1      15.806  10.079  11.264  0.00  0.00     0.049 H 
ATOM     77  H35 GLU d   1      15.436  11.818  11.007  0.00  0.00     0.049 H 
BRANCH  75  78
ATOM     78  CD  GLU d   1      17.516  11.386  11.364  0.00  0.00     0.172 C 
ATOM     79  OE1 GLU d   1      17.857  12.595  11.334  0.00  0.00    -0.648 OA
ATOM     80  OE2 GLU d   1      18.245  10.478  11.828  0.00  0.00    -0.648 OA
ENDBRANCH  75  78
ENDBRANCH  72  75
ENDBRANCH  13  72
ENDBRANCH  10  13
ENDBRANCH   7   9
BRANCH   7  81
ATOM     81  CB  HIS d   1      19.778  10.043   5.349  0.00  0.00     0.004 C 
ATOM     82  H38 HIS d   1      20.378   9.443   6.048  0.00  0.00     0.046 H 
ATOM     83  H39 HIS d   1      19.876  11.109   5.604  0.00  0.00     0.046 H 
BRANCH  81  84
ATOM     84  CG  HIS d   1      20.314   9.836   3.968  0.00  0.00     0.053 A 
ATOM     85  ND1 HIS d   1      20.015  10.678   2.919  0.00  0.00    -0.247 NA
ATOM     86  CE1 HIS d   1      20.563  10.205   1.811  0.00  0.00     0.064 A 
ATOM     87  NE2 HIS d   1      21.206   9.087   2.104  0.00  0.00    -0.359 N 
ATOM     88  H41 HIS d   1      20.496  10.660   0.824  0.00  0.00     0.143 H 
ATOM     89  CD2 HIS d   1      21.070   8.836   3.448  0.00  0.00     0.002 A 
ATOM     90  H42 HIS d   1      21.724   8.500   1.434  0.00  0.00     0.166 HD
ATOM     91  H40 HIS d   1      21.490   7.992   3.994  0.00  0.00     0.114 H 
ENDBRANCH  81  84
ENDBRANCH   7  81
ENDBRANCH   4   7
ENDBRANCH   1   3
BRANCH   1  92
ATOM     92  C   TYR d   1      17.007   5.381   5.127  0.00  0.00     0.241 C 
ATOM     93  O   TYR d   1      16.491   4.795   4.174  0.00  0.00    -0.271 OA
ATOM     94  N   TRP d   1      16.342   5.674   6.248  0.00  0.00    -0.346 N 
ATOM     95  H52 TRP d   1      16.797   6.196   6.970  0.00  0.00     0.163 HD
BRANCH  94  96
ATOM     96  CA  TRP d   1      14.962   5.242   6.432  0.00  0.00     0.093 C 
ATOM     97  H53 TRP d   1      14.947   4.148   6.318  0.00  0.00     0.088 H 
BRANCH  96  98
ATOM     98  C   TRP d   1      13.994   5.816   5.390  0.00  0.00     0.241 C 
ATOM     99  O   TRP d   1      13.114   5.119   4.884  0.00  0.00    -0.271 OA
ATOM    100  N   ALA d   1      14.161   7.087   5.074  0.00  0.00    -0.346 N 
ATOM    101  H62 ALA d   1      14.899   7.604   5.507  0.00  0.00     0.163 HD
BRANCH 100 102
ATOM    102  CA  ALA d   1      13.299   7.752   4.114  0.00  0.00     0.086 C 
ATOM    103  H63 ALA d   1      12.265   7.713   4.488  0.00  0.00     0.086 H 
BRANCH 102 104
ATOM    104  C   ALA d   1      13.343   7.064   2.749  0.00  0.00     0.240 C 
ATOM    105  O   ALA d   1      12.373   7.133   1.992  0.00  0.00    -0.271 OA
ATOM    106  N   GLN d   1      14.454   6.401   2.450  0.00  0.00    -0.346 N 
ATOM    107  H67 GLN d   1      15.196   6.372   3.120  0.00  0.00     0.163 HD
BRANCH 106 108
ATOM    108  CA  GLN d   1      14.626   5.712   1.171  0.00  0.00     0.090 C 
ATOM    109  H68 GLN d   1      14.431   6.441   0.371  0.00  0.00     0.087 H 
BRANCH 108 110
ATOM    110  C   GLN d   1      13.685   4.542   0.984  0.00  0.00     0.241 C 
ATOM    111  O   GLN d   1      13.422   4.138  -0.148  0.00  0.00    -0.271 OA
ATOM    112  N   LEU d   1      13.171   3.993   2.081  0.00  0.00    -0.346 N 
ATOM    113  H75 LEU d   1      13.395   4.370   2.980  0.00  0.00     0.163 HD
BRANCH 112 114
ATOM    114  CA  LEU d   1      12.288   2.851   1.977  0.00  0.00     0.089 C 
ATOM    115  H76 LEU d   1      12.777   2.136   1.298  0.00  0.00     0.087 H 
BRANCH 114 116
ATOM    116  C   LEU d   1      10.911   3.143   1.386  0.00  0.00     0.241 C 
ATOM    117  O   LEU d   1      10.206   2.220   1.001  0.00  0.00    -0.271 OA
ATOM    118  N   THR d   1      10.536   4.408   1.321  0.00  0.00    -0.344 N 
ATOM    119  H86 THR d   1      11.142   5.121   1.674  0.00  0.00     0.163 HD
BRANCH 118 120
ATOM    120  CA  THR d   1       9.245   4.778   0.739  0.00  0.00     0.113 C 
ATOM    121  H87 THR d   1       8.792   3.886   0.282  0.00  0.00     0.091 H 
BRANCH 120 122
ATOM    122  C   THR d   1       9.455   5.843  -0.324  0.00  0.00     0.243 C 
ATOM    123  O   THR d   1      10.392   6.637  -0.238  0.00  0.00    -0.271 OA
ATOM    124  N   SER d   1       8.581   5.846  -1.328  0.00  0.00    -0.343 N 
ATOM    125  H93 SER d   1       7.855   5.159  -1.342  0.00  0.00     0.163 HD
BRANCH 124 126
ATOM    126  CA  SER d   1       8.653   6.821  -2.405  0.00  0.00     0.116 C 
ATOM    127  H94 SER d   1       9.707   6.994  -2.669  0.00  0.00     0.093 H 
BRANCH 126 128
ATOM    128  C   SER d   1       8.024   8.129  -1.945  0.00  0.00     0.198 C 
ATOM    129  O   SER d   1       7.255   8.107  -0.949  0.00  0.00    -0.646 OA
ATOM    130  OXT SER d   1       8.277   9.163  -2.604  0.00  0.00    -0.646 OA
ENDBRANCH 126 128
BRANCH 126 131
ATOM    131  CB  SER d   1       7.902   6.306  -3.632  0.00  0.00     0.045 C 
ATOM    132  H95 SER d   1       8.260   5.296  -3.881  0.00  0.00     0.077 H 
ATOM    133  H96 SER d   1       8.086   6.980  -4.481  0.00  0.00     0.077 H 
BRANCH 131 134
ATOM    134  OG  SER d   1       6.510   6.258  -3.363  0.00  0.00    -0.398 OA
ATOM    135  H97 SER d   1       6.051   5.937  -4.130  0.00  0.00     0.209 HD
ENDBRANCH 131 134
ENDBRANCH 126 131
ENDBRANCH 124 126
ENDBRANCH 120 122
BRANCH 120 136
ATOM    136  CB  THR d   1       8.288   5.340   1.799  0.00  0.00     0.060 C 
ATOM    137  H88 THR d   1       7.391   5.740   1.304  0.00  0.00     0.086 H 
BRANCH 136 138
ATOM    138  OG1 THR d   1       8.947   6.394   2.519  0.00  0.00    -0.393 OA
ATOM    139  H89 THR d   1       9.194   7.083   1.914  0.00  0.00     0.210 HD
ENDBRANCH 136 138
BRANCH 136 140
ATOM    140  CG2 THR d   1       7.880   4.243   2.766  0.00  0.00    -0.050 C 
ATOM    141  H90 THR d   1       7.195   4.656   3.521  0.00  0.00     0.031 H 
ATOM    142  H91 THR d   1       8.775   3.841   3.264  0.00  0.00     0.031 H 
ATOM    143  H92 THR d   1       7.375   3.437   2.214  0.00  0.00     0.031 H 
ENDBRANCH 136 140
ENDBRANCH 120 136
ENDBRANCH 118 120
ENDBRANCH 114 116
BRANCH 114 144
ATOM    144  CB  LEU d   1      12.144   2.175   3.334  0.00  0.00    -0.035 C 
ATOM    145  H77 LEU d   1      11.510   1.285   3.211  0.00  0.00     0.037 H 
ATOM    146  H78 LEU d   1      11.655   2.881   4.022  0.00  0.00     0.037 H 
BRANCH 144 147
ATOM    147  CG  LEU d   1      13.478   1.735   3.961  0.00  0.00    -0.059 C 
ATOM    148  H79 LEU d   1      14.095   2.624   4.156  0.00  0.00     0.038 H 
BRANCH 147 149
ATOM    149  CD1 LEU d   1      13.157   1.039   5.288  0.00  0.00    -0.073 C 
ATOM    150  H80 LEU d   1      14.092   0.710   5.765  0.00  0.00     0.028 H 
ATOM    151  H81 LEU d   1      12.515   0.166   5.098  0.00  0.00     0.028 H 
ATOM    152  H82 LEU d   1      12.633   1.741   5.953  0.00  0.00     0.028 H 
ENDBRANCH 147 149
BRANCH 147 153
ATOM    153  CD2 LEU d   1      14.255   0.797   3.035  0.00  0.00    -0.073 C 
ATOM    154  H83 LEU d   1      14.475   1.315   2.090  0.00  0.00     0.028 H 
ATOM    155  H84 LEU d   1      13.651  -0.099   2.830  0.00  0.00     0.028 H 
ATOM    156  H85 LEU d   1      15.197   0.501   3.519  0.00  0.00     0.028 H 
ENDBRANCH 147 153
ENDBRANCH 144 147
ENDBRANCH 114 144
ENDBRANCH 112 114
ENDBRANCH 108 110
BRANCH 108 157
ATOM    157  CB  GLN d   1      16.056   5.190   1.021  0.00  0.00    -0.030 C 
ATOM    158  H69 GLN d   1      16.171   4.787   0.004  0.00  0.00     0.037 H 
ATOM    159  H70 GLN d   1      16.207   4.384   1.754  0.00  0.00     0.037 H 
BRANCH 157 160
ATOM    160  CG  GLN d   1      17.126   6.236   1.239  0.00  0.00     0.011 C 
ATOM    161  H71 GLN d   1      18.113   5.758   1.148  0.00  0.00     0.047 H 
ATOM    162  H72 GLN d   1      17.013   6.654   2.250  0.00  0.00     0.047 H 
BRANCH 160 163
ATOM    163  CD  GLN d   1      17.036   7.365   0.232  0.00  0.00     0.215 C 
ATOM    164  OE1 GLN d   1      16.004   8.035   0.128  0.00  0.00    -0.274 OA
ATOM    165  NE2 GLN d   1      18.120   7.585  -0.517  0.00  0.00    -0.370 N 
ATOM    166  H73 GLN d   1      18.117   8.317  -1.198  0.00  0.00     0.159 HD
ATOM    167  H74 GLN d   1      18.934   7.017  -0.397  0.00  0.00     0.159 HD
ENDBRANCH 160 163
ENDBRANCH 157 160
ENDBRANCH 108 157
ENDBRANCH 106 108
ENDBRANCH 102 104
BRANCH 102 168
ATOM    168  CB  ALA d   1      13.722   9.221   3.983  0.00  0.00    -0.049 C 
ATOM    169  H64 ALA d   1      13.070   9.727   3.256  0.00  0.00     0.030 H 
ATOM    170  H65 ALA d   1      14.765   9.273   3.638  0.00  0.00     0.030 H 
ATOM    171  H66 ALA d   1      13.634   9.716   4.961  0.00  0.00     0.030 H 
ENDBRANCH 102 168
ENDBRANCH 100 102
ENDBRANCH  96  98
BRANCH  96 172
ATOM    172  CB  TRP d   1      14.489   5.569   7.853  0.00  0.00    -0.012 C 
ATOM    173  H54 TRP d   1      14.433   6.662   7.960  0.00  0.00     0.044 H 
ATOM    174  H55 TRP d   1      15.223   5.167   8.567  0.00  0.00     0.044 H 
BRANCH 172 175
ATOM    175  CG  TRP d   1      13.130   4.983   8.177  0.00  0.00    -0.028 A 
ATOM    176  CD1 TRP d   1      11.920   5.610   8.119  0.00  0.00    -0.015 A 
ATOM    177  NE1 TRP d   1      10.911   4.727   8.453  0.00  0.00    -0.365 N 
ATOM    178  H56 TRP d   1      11.771   6.654   7.849  0.00  0.00     0.112 H 
ATOM    179  CE2 TRP d   1      11.462   3.502   8.730  0.00  0.00     0.042 A 
ATOM    180  H57 TRP d   1       9.907   4.952   8.488  0.00  0.00     0.165 HD
ATOM    181  CD2 TRP d   1      12.864   3.627   8.565  0.00  0.00    -0.002 A 
ATOM    182  CZ2 TRP d   1      10.850   2.297   9.112  0.00  0.00    -0.056 A 
ATOM    183  CE3 TRP d   1      13.677   2.506   8.785  0.00  0.00    -0.070 A 
ATOM    184  CZ3 TRP d   1      13.066   1.295   9.169  0.00  0.00    -0.082 A 
ATOM    185  H58 TRP d   1      14.752   2.569   8.662  0.00  0.00     0.084 H 
ATOM    186  CH2 TRP d   1      11.666   1.206   9.327  0.00  0.00    -0.081 A 
ATOM    187  H60 TRP d   1      13.680   0.419   9.345  0.00  0.00     0.083 H 
ATOM    188  H61 TRP d   1      11.224   0.262   9.623  0.00  0.00     0.083 H 
ATOM    189  H59 TRP d   1       9.775   2.227   9.233  0.00  0.00     0.086 H 
ENDBRANCH 172 175
ENDBRANCH  96 172
ENDBRANCH  94  96
ENDBRANCH   1  92
BRANCH   1 190
ATOM    190  CB  TYR d   1      19.311   4.909   5.903  0.00  0.00    -0.014 C 
ATOM    191  H45 TYR d   1      19.094   3.871   5.612  0.00  0.00     0.043 H 
ATOM    192  H46 TYR d   1      19.052   5.055   6.962  0.00  0.00     0.043 H 
BRANCH 190 193
ATOM    193  CG  TYR d   1      20.794   5.167   5.723  0.00  0.00    -0.056 A 
ATOM    194  CD1 TYR d   1      21.596   5.536   6.796  0.00  0.00    -0.074 A 
ATOM    195  CE1 TYR d   1      22.958   5.808   6.613  0.00  0.00    -0.051 A 
ATOM    196  H47 TYR d   1      21.163   5.614   7.787  0.00  0.00     0.084 H 
ATOM    197  CZ  TYR d   1      23.504   5.704   5.331  0.00  0.00     0.065 A 
ATOM    198  H49 TYR d   1      23.579   6.095   7.454  0.00  0.00     0.087 H 
ATOM    199  CE2 TYR d   1      22.723   5.337   4.257  0.00  0.00    -0.051 A 
ATOM    200  CD2 TYR d   1      21.375   5.069   4.457  0.00  0.00    -0.074 A 
ATOM    201  H50 TYR d   1      23.156   5.258   3.266  0.00  0.00     0.087 H 
ATOM    202  H48 TYR d   1      20.761   4.778   3.612  0.00  0.00     0.084 H 
BRANCH 197 203
ATOM    203  OH  TYR d   1      24.829   5.962   5.109  0.00  0.00    -0.361 OA
ATOM    204  H51 TYR d   1      25.245   6.202   5.928  0.00  0.00     0.217 HD
ENDBRANCH 197 203
ENDBRANCH 190 193
ENDBRANCH   1 190
TORSDOF 56
