REMARK WARNING: 32 MAX_TORS EXCEEDED!!!
REMARK  55 active torsions:
REMARK  status: ('A' for Active; 'I' for Inactive)
REMARK    1  A    between atoms: N_1  and  CA_2 
REMARK    2  A    between atoms: CA_2  and  C_3 
REMARK    3  A    between atoms: CA_2  and  CB_5 
REMARK       I    between atoms: C_3  and  N_9 
REMARK    4  A    between atoms: CB_5  and  CG_6 
REMARK    5  A    between atoms: CG_6  and  CD1_7 
REMARK    6  A    between atoms: CG_6  and  CD2_8 
REMARK    7  A    between atoms: N_9  and  CA_10 
REMARK    8  A    between atoms: CA_10  and  C_11 
REMARK    9  A    between atoms: CA_10  and  CB_13 
REMARK       I    between atoms: C_11  and  N_16 
REMARK   10  A    between atoms: CB_13  and  OG1_14 
REMARK   11  A    between atoms: CB_13  and  CG2_15 
REMARK   12  A    between atoms: N_16  and  CA_17 
REMARK   13  A    between atoms: CA_17  and  C_18 
REMARK   14  A    between atoms: CA_17  and  CB_20 
REMARK       I    between atoms: C_18  and  N_27 
REMARK   15  A    between atoms: CB_20  and  CG_21 
REMARK   16  A    between atoms: N_27  and  CA_28 
REMARK   17  A    between atoms: CA_28  and  C_29 
REMARK   18  A    between atoms: CA_28  and  CB_31 
REMARK       I    between atoms: C_29  and  N_36 
REMARK   19  A    between atoms: CB_31  and  CG_32 
REMARK   20  A    between atoms: CG_32  and  CD_33 
REMARK   21  A    between atoms: N_36  and  CA_37 
REMARK   22  A    between atoms: CA_37  and  C_38 
REMARK   23  A    between atoms: CA_37  and  CB_40 
REMARK       I    between atoms: C_38  and  N_46 
REMARK   24  A    between atoms: CB_40  and  CG_41 
REMARK   25  A    between atoms: N_46  and  CA_47 
REMARK   26  A    between atoms: CA_47  and  C_48 
REMARK   27  A    between atoms: CA_47  and  CB_50 
REMARK       I    between atoms: C_48  and  N_60 
REMARK   28  A    between atoms: CB_50  and  CG_51 
REMARK   29  A    between atoms: N_60  and  CA_61 
REMARK   30  A    between atoms: CA_61  and  C_62 
REMARK   31  A    between atoms: CA_61  and  CB_64 
REMARK       I    between atoms: C_62  and  N_74 
REMARK   32  A    between atoms: CB_64  and  CG_65 
REMARK   33  A    between atoms: N_74  and  CA_75 
REMARK   34  A    between atoms: CA_75  and  C_76 
REMARK   35  A    between atoms: CA_75  and  CB_78 
REMARK       I    between atoms: C_76  and  N_79 
REMARK   36  A    between atoms: N_79  and  CA_80 
REMARK   37  A    between atoms: CA_80  and  C_81 
REMARK   38  A    between atoms: CA_80  and  CB_83 
REMARK       I    between atoms: C_81  and  N_88 
REMARK   39  A    between atoms: CB_83  and  CG_84 
REMARK   40  A    between atoms: CG_84  and  CD_85 
REMARK       I    between atoms: CD_85  and  NE2_87 
REMARK   41  A    between atoms: N_88  and  CA_89 
REMARK   42  A    between atoms: CA_89  and  C_90 
REMARK   43  A    between atoms: CA_89  and  CB_92 
REMARK       I    between atoms: C_90  and  N_96 
REMARK   44  A    between atoms: CB_92  and  CG_93 
REMARK   45  A    between atoms: CG_93  and  CD1_94 
REMARK   46  A    between atoms: CG_93  and  CD2_95 
REMARK   47  A    between atoms: N_96  and  CA_97 
REMARK   48  A    between atoms: CA_97  and  C_98 
REMARK   49  A    between atoms: CA_97  and  CB_100 
REMARK       I    between atoms: C_98  and  N_103 
REMARK   50  A    between atoms: CB_100  and  OG1_101 
REMARK   51  A    between atoms: CB_100  and  CG2_102 
REMARK   52  A    between atoms: N_103  and  CA_104 
REMARK   53  A    between atoms: CA_104  and  C_105 
REMARK   54  A    between atoms: CA_104  and  CB_107 
REMARK   55  A    between atoms: CB_107  and  OG_108 
ROOT
ATOM      1  CA  TRP d   1     -18.401   6.831  -5.141  0.00  0.00     0.093 C 
ATOM      2  H44 TRP d   1     -18.733   6.797  -4.093  0.00  0.00     0.088 H 
ENDROOT
BRANCH   1   3
ATOM      3  N   TRP d   1     -18.614   8.185  -5.641  0.00  0.00    -0.346 N 
ATOM      4  C   HIS d   1     -18.256   9.240  -4.922  0.00  0.00     0.241 C 
ATOM      5  O   HIS d   1     -17.734   9.148  -3.804  0.00  0.00    -0.271 OA
ATOM      6  H43 TRP d   1     -19.036   8.319  -6.538  0.00  0.00     0.163 HD
BRANCH   4   7
ATOM      7  CA  HIS d   1     -18.539  10.604  -5.547  0.00  0.00     0.094 C 
ATOM      8  H37 HIS d   1     -17.989  11.382  -4.998  0.00  0.00     0.088 H 
BRANCH   7   9
ATOM      9  N   HIS d   1     -18.103  10.612  -6.954  0.00  0.00    -0.346 N 
ATOM     10  C   GLU d   1     -16.843  10.326  -7.310  0.00  0.00     0.241 C 
ATOM     11  O   GLU d   1     -15.961  10.081  -6.480  0.00  0.00    -0.271 OA
ATOM     12  H36 HIS d   1     -18.768  10.838  -7.666  0.00  0.00     0.163 HD
BRANCH  10  13
ATOM     13  CA  GLU d   1     -16.514  10.324  -8.809  0.00  0.00     0.090 C 
ATOM     14  H31 GLU d   1     -15.641   9.670  -8.948  0.00  0.00     0.087 H 
BRANCH  13  15
ATOM     15  N   GLU d   1     -17.584   9.796  -9.638  0.00  0.00    -0.346 N 
ATOM     16  C   PHE d   1     -18.004   8.550  -9.448  0.00  0.00     0.241 C 
ATOM     17  O   PHE d   1     -17.525   7.827  -8.570  0.00  0.00    -0.271 OA
ATOM     18  H30 GLU d   1     -18.001  10.366 -10.346  0.00  0.00     0.163 HD
BRANCH  16  19
ATOM     19  CA  PHE d   1     -19.130   8.047 -10.366  0.00  0.00     0.093 C 
ATOM     20  H22 PHE d   1     -19.553   7.120  -9.951  0.00  0.00     0.088 H 
BRANCH  19  21
ATOM     21  N   PHE d   1     -20.179   9.059 -10.444  0.00  0.00    -0.346 N 
ATOM     22  C   THR d   1     -20.786   9.479  -9.343  0.00  0.00     0.243 C 
ATOM     23  O   THR d   1     -20.526   9.027  -8.231  0.00  0.00    -0.271 OA
ATOM     24  H21 PHE d   1     -20.441   9.437 -11.332  0.00  0.00     0.163 HD
BRANCH  22  25
ATOM     25  CA  THR d   1     -21.857  10.568  -9.516  0.00  0.00     0.113 C 
ATOM     26  H15 THR d   1     -22.435  10.382 -10.433  0.00  0.00     0.091 H 
BRANCH  25  27
ATOM     27  N   THR d   1     -22.763  10.505  -8.365  0.00  0.00    -0.344 N 
ATOM     28  C   LEU d   1     -24.042  10.168  -8.511  0.00  0.00     0.249 C 
ATOM     29  O   LEU d   1     -24.566   9.963  -9.619  0.00  0.00    -0.271 OA
ATOM     30  H14 THR d   1     -22.413  10.719  -7.453  0.00  0.00     0.163 HD
BRANCH  28  31
ATOM     31  CA  LEU d   1     -24.866  10.081  -7.235  0.00  0.00     0.176 C 
ATOM     32  H4  LEU d   1     -25.441   9.143  -7.244  0.00  0.00     0.099 H 
BRANCH  31  33
ATOM     33  N   LEU d   1     -23.960  10.080  -6.049  0.00  0.00    -0.066 N 
ATOM     34  H1  LEU d   1     -24.510  10.022  -5.206  0.00  0.00     0.275 HD
ATOM     35  H2  LEU d   1     -23.418  10.930  -6.039  0.00  0.00     0.275 HD
ATOM     36  H3  LEU d   1     -23.340   9.287  -6.101  0.00  0.00     0.275 HD
ENDBRANCH  31  33
BRANCH  31  37
ATOM     37  CB  LEU d   1     -25.851  11.267  -7.161  0.00  0.00    -0.028 C 
ATOM     38  H5  LEU d   1     -26.423  11.280  -8.100  0.00  0.00     0.037 H 
ATOM     39  H6  LEU d   1     -25.254  12.188  -7.083  0.00  0.00     0.037 H 
BRANCH  37  40
ATOM     40  CG  LEU d   1     -26.865  11.275  -6.002  0.00  0.00    -0.059 C 
ATOM     41  H7  LEU d   1     -26.321  11.323  -5.047  0.00  0.00     0.038 H 
BRANCH  40  42
ATOM     42  CD1 LEU d   1     -27.775  12.493  -6.117  0.00  0.00    -0.073 C 
ATOM     43  H8  LEU d   1     -28.496  12.492  -5.286  0.00  0.00     0.028 H 
ATOM     44  H9  LEU d   1     -28.317  12.457  -7.073  0.00  0.00     0.028 H 
ATOM     45  H10 LEU d   1     -27.168  13.409  -6.074  0.00  0.00     0.028 H 
ENDBRANCH  40  42
BRANCH  40  46
ATOM     46  CD2 LEU d   1     -27.687   9.999  -6.042  0.00  0.00    -0.073 C 
ATOM     47  H11 LEU d   1     -27.018   9.130  -5.958  0.00  0.00     0.028 H 
ATOM     48  H12 LEU d   1     -28.238   9.947  -6.993  0.00  0.00     0.028 H 
ATOM     49  H13 LEU d   1     -28.400   9.996  -5.204  0.00  0.00     0.028 H 
ENDBRANCH  40  46
ENDBRANCH  37  40
ENDBRANCH  31  37
ENDBRANCH  28  31
ENDBRANCH  25  27
BRANCH  25  50
ATOM     50  CB  THR d   1     -21.130  11.932  -9.649  0.00  0.00     0.060 C 
ATOM     51  H16 THR d   1     -20.477  11.900 -10.533  0.00  0.00     0.086 H 
BRANCH  50  52
ATOM     52  OG1 THR d   1     -20.332  12.166  -8.489  0.00  0.00    -0.393 OA
ATOM     53  H17 THR d   1     -19.889  13.002  -8.574  0.00  0.00     0.210 HD
ENDBRANCH  50  52
BRANCH  50  54
ATOM     54  CG2 THR d   1     -22.133  13.069  -9.820  0.00  0.00    -0.050 C 
ATOM     55  H18 THR d   1     -21.593  14.023  -9.912  0.00  0.00     0.031 H 
ATOM     56  H19 THR d   1     -22.798  13.107  -8.944  0.00  0.00     0.031 H 
ATOM     57  H20 THR d   1     -22.731  12.897 -10.727  0.00  0.00     0.031 H 
ENDBRANCH  50  54
ENDBRANCH  25  50
ENDBRANCH  22  25
ENDBRANCH  19  21
BRANCH  19  58
ATOM     58  CB  PHE d   1     -18.562   7.761 -11.745  0.00  0.00    -0.014 C 
ATOM     59  H23 PHE d   1     -18.277   8.715 -12.212  0.00  0.00     0.043 H 
ATOM     60  H24 PHE d   1     -19.340   7.274 -12.351  0.00  0.00     0.043 H 
BRANCH  58  61
ATOM     61  CG  PHE d   1     -17.369   6.877 -11.706  0.00  0.00    -0.056 A 
ATOM     62  CD1 PHE d   1     -17.511   5.515 -11.434  0.00  0.00    -0.077 A 
ATOM     63  CE1 PHE d   1     -16.393   4.706 -11.308  0.00  0.00    -0.082 A 
ATOM     64  H25 PHE d   1     -18.501   5.088 -11.321  0.00  0.00     0.084 H 
ATOM     65  CZ  PHE d   1     -15.128   5.239 -11.455  0.00  0.00    -0.083 A 
ATOM     66  H27 PHE d   1     -16.512   3.650 -11.093  0.00  0.00     0.083 H 
ATOM     67  CE2 PHE d   1     -14.975   6.596 -11.734  0.00  0.00    -0.082 A 
ATOM     68  H29 PHE d   1     -14.256   4.604 -11.354  0.00  0.00     0.083 H 
ATOM     69  CD2 PHE d   1     -16.098   7.403 -11.857  0.00  0.00    -0.077 A 
ATOM     70  H28 PHE d   1     -13.984   7.019 -11.854  0.00  0.00     0.083 H 
ATOM     71  H26 PHE d   1     -15.978   8.458 -12.074  0.00  0.00     0.084 H 
ENDBRANCH  58  61
ENDBRANCH  19  58
ENDBRANCH  16  19
ENDBRANCH  13  15
BRANCH  13  72
ATOM     72  CB  GLU d   1     -16.127  11.726  -9.280  0.00  0.00    -0.029 C 
ATOM     73  H32 GLU d   1     -16.911  12.432  -8.968  0.00  0.00     0.037 H 
ATOM     74  H33 GLU d   1     -16.054  11.721 -10.377  0.00  0.00     0.037 H 
BRANCH  72  75
ATOM     75  CG  GLU d   1     -14.789  12.192  -8.701  0.00  0.00     0.018 C 
ATOM     76  H34 GLU d   1     -14.924  12.394  -7.628  0.00  0.00     0.049 H 
ATOM     77  H35 GLU d   1     -14.490  13.118  -9.214  0.00  0.00     0.049 H 
BRANCH  75  78
ATOM     78  CD  GLU d   1     -13.660  11.155  -8.866  0.00  0.00     0.172 C 
ATOM     79  OE1 GLU d   1     -13.310  10.802 -10.026  0.00  0.00    -0.648 OA
ATOM     80  OE2 GLU d   1     -13.121  10.694  -7.825  0.00  0.00    -0.648 OA
ENDBRANCH  75  78
ENDBRANCH  72  75
ENDBRANCH  13  72
ENDBRANCH  10  13
ENDBRANCH   7   9
BRANCH   7  81
ATOM     81  CB  HIS d   1     -20.046  10.872  -5.436  0.00  0.00     0.004 C 
ATOM     82  H38 HIS d   1     -20.571  10.182  -6.114  0.00  0.00     0.046 H 
ATOM     83  H39 HIS d   1     -20.237  11.909  -5.748  0.00  0.00     0.046 H 
BRANCH  81  84
ATOM     84  CG  HIS d   1     -20.598  10.686  -4.052  0.00  0.00     0.053 A 
ATOM     85  ND1 HIS d   1     -20.443  11.628  -3.056  0.00  0.00    -0.247 NA
ATOM     86  CE1 HIS d   1     -20.973  11.171  -1.934  0.00  0.00     0.064 A 
ATOM     87  NE2 HIS d   1     -21.466   9.968  -2.164  0.00  0.00    -0.359 N 
ATOM     88  H41 HIS d   1     -20.998  11.698  -0.981  0.00  0.00     0.143 H 
ATOM     89  CD2 HIS d   1     -21.248   9.642  -3.484  0.00  0.00     0.002 A 
ATOM     90  H42 HIS d   1     -21.937   9.371  -1.469  0.00  0.00     0.166 HD
ATOM     91  H40 HIS d   1     -21.543   8.718  -3.979  0.00  0.00     0.114 H 
ENDBRANCH  81  84
ENDBRANCH   7  81
ENDBRANCH   4   7
ENDBRANCH   1   3
BRANCH   1  92
ATOM     92  C   TRP d   1     -16.936   6.402  -5.194  0.00  0.00     0.241 C 
ATOM     93  O   TRP d   1     -16.414   5.836  -4.232  0.00  0.00    -0.271 OA
ATOM     94  N   TRP d   1     -16.285   6.667  -6.326  0.00  0.00    -0.346 N 
ATOM     95  H53 TRP d   1     -16.762   7.144  -7.064  0.00  0.00     0.163 HD
BRANCH  94  96
ATOM     96  CA  TRP d   1     -14.893   6.276  -6.511  0.00  0.00     0.093 C 
ATOM     97  H54 TRP d   1     -14.830   5.187  -6.370  0.00  0.00     0.088 H 
BRANCH  96  98
ATOM     98  C   TRP d   1     -13.950   6.929  -5.495  0.00  0.00     0.241 C 
ATOM     99  O   TRP d   1     -13.059   6.276  -4.950  0.00  0.00    -0.271 OA
ATOM    100  N   ALA d   1     -14.172   8.210  -5.214  0.00  0.00    -0.346 N 
ATOM    101  H63 ALA d   1     -14.939   8.685  -5.645  0.00  0.00     0.163 HD
BRANCH 100 102
ATOM    102  CA  ALA d   1     -13.308   8.930  -4.283  0.00  0.00     0.086 C 
ATOM    103  H64 ALA d   1     -12.276   8.857  -4.657  0.00  0.00     0.086 H 
BRANCH 102 104
ATOM    104  C   ALA d   1     -13.328   8.347  -2.871  0.00  0.00     0.240 C 
ATOM    105  O   ALA d   1     -12.376   8.520  -2.105  0.00  0.00    -0.271 OA
ATOM    106  N   GLN d   1     -14.391   7.646  -2.514  0.00  0.00    -0.346 N 
ATOM    107  H68 GLN d   1     -15.144   7.496  -3.155  0.00  0.00     0.163 HD
BRANCH 106 108
ATOM    108  CA  GLN d   1     -14.439   7.099  -1.168  0.00  0.00     0.090 C 
ATOM    109  H69 GLN d   1     -13.958   7.835  -0.507  0.00  0.00     0.087 H 
BRANCH 108 110
ATOM    110  C   GLN d   1     -13.658   5.801  -1.002  0.00  0.00     0.241 C 
ATOM    111  O   GLN d   1     -13.543   5.292   0.117  0.00  0.00    -0.271 OA
ATOM    112  N   LEU d   1     -13.085   5.281  -2.093  0.00  0.00    -0.346 N 
ATOM    113  H76 LEU d   1     -13.205   5.729  -2.979  0.00  0.00     0.163 HD
BRANCH 112 114
ATOM    114  CA  LEU d   1     -12.281   4.056  -1.997  0.00  0.00     0.089 C 
ATOM    115  H77 LEU d   1     -12.792   3.353  -1.323  0.00  0.00     0.087 H 
BRANCH 114 116
ATOM    116  C   LEU d   1     -10.896   4.377  -1.427  0.00  0.00     0.241 C 
ATOM    117  O   LEU d   1     -10.160   3.467  -1.037  0.00  0.00    -0.271 OA
ATOM    118  N   THR d   1     -10.533   5.659  -1.382  0.00  0.00    -0.344 N 
ATOM    119  H87 THR d   1     -11.146   6.361  -1.746  0.00  0.00     0.163 HD
BRANCH 118 120
ATOM    120  CA  THR d   1      -9.243   6.050  -0.804  0.00  0.00     0.113 C 
ATOM    121  H88 THR d   1      -8.789   5.152  -0.359  0.00  0.00     0.091 H 
BRANCH 120 122
ATOM    122  C   THR d   1      -9.427   7.103   0.281  0.00  0.00     0.243 C 
ATOM    123  O   THR d   1     -10.328   7.945   0.195  0.00  0.00    -0.271 OA
ATOM    124  N   SER d   1      -8.554   7.068   1.287  0.00  0.00    -0.343 N 
ATOM    125  H94 SER d   1      -7.841   6.367   1.294  0.00  0.00     0.163 HD
BRANCH 124 126
ATOM    126  CA  SER d   1      -8.618   8.036   2.382  0.00  0.00     0.116 C 
ATOM    127  H95 SER d   1      -9.668   8.300   2.578  0.00  0.00     0.093 H 
BRANCH 126 128
ATOM    128  C   SER d   1      -7.839   9.283   1.984  0.00  0.00     0.198 C 
ATOM    129  O   SER d   1      -6.937   9.151   1.116  0.00  0.00    -0.646 OA
ATOM    130  OXT SER d   1      -8.118  10.367   2.556  0.00  0.00    -0.646 OA
ENDBRANCH 126 128
BRANCH 126 131
ATOM    131  CB  SER d   1      -7.996   7.445   3.647  0.00  0.00     0.045 C 
ATOM    132  H96 SER d   1      -8.455   6.467   3.853  0.00  0.00     0.077 H 
ATOM    133  H97 SER d   1      -8.182   8.123   4.493  0.00  0.00     0.077 H 
BRANCH 131 134
ATOM    134  OG  SER d   1      -6.591   7.278   3.481  0.00  0.00    -0.398 OA
ATOM    135  H98 SER d   1      -6.191   8.122   3.305  0.00  0.00     0.209 HD
ENDBRANCH 131 134
ENDBRANCH 126 131
ENDBRANCH 124 126
ENDBRANCH 120 122
BRANCH 120 136
ATOM    136  CB  THR d   1      -8.261   6.634  -1.837  0.00  0.00     0.060 C 
ATOM    137  H89 THR d   1      -7.390   7.040  -1.301  0.00  0.00     0.086 H 
BRANCH 136 138
ATOM    138  OG1 THR d   1      -8.893   7.699  -2.561  0.00  0.00    -0.393 OA
ATOM    139  H90 THR d   1      -9.154   8.382  -1.954  0.00  0.00     0.210 HD
ENDBRANCH 136 138
BRANCH 136 140
ATOM    140  CG2 THR d   1      -7.782   5.574  -2.789  0.00  0.00    -0.050 C 
ATOM    141  H91 THR d   1      -7.084   6.020  -3.513  0.00  0.00     0.031 H 
ATOM    142  H92 THR d   1      -8.642   5.146  -3.325  0.00  0.00     0.031 H 
ATOM    143  H93 THR d   1      -7.269   4.780  -2.226  0.00  0.00     0.031 H 
ENDBRANCH 136 140
ENDBRANCH 120 136
ENDBRANCH 118 120
ENDBRANCH 114 116
BRANCH 114 144
ATOM    144  CB  LEU d   1     -12.116   3.394  -3.365  0.00  0.00    -0.035 C 
ATOM    145  H78 LEU d   1     -11.471   2.512  -3.240  0.00  0.00     0.037 H 
ATOM    146  H79 LEU d   1     -11.625   4.116  -4.034  0.00  0.00     0.037 H 
BRANCH 144 147
ATOM    147  CG  LEU d   1     -13.419   2.936  -4.036  0.00  0.00    -0.059 C 
ATOM    148  H80 LEU d   1     -14.039   3.817  -4.257  0.00  0.00     0.038 H 
BRANCH 147 149
ATOM    149  CD1 LEU d   1     -13.064   2.243  -5.329  0.00  0.00    -0.073 C 
ATOM    150  H81 LEU d   1     -13.984   1.905  -5.829  0.00  0.00     0.028 H 
ATOM    151  H82 LEU d   1     -12.423   1.375  -5.116  0.00  0.00     0.028 H 
ATOM    152  H83 LEU d   1     -12.527   2.944  -5.985  0.00  0.00     0.028 H 
ENDBRANCH 147 149
BRANCH 147 153
ATOM    153  CD2 LEU d   1     -14.216   1.995  -3.114  0.00  0.00    -0.073 C 
ATOM    154  H84 LEU d   1     -14.463   2.520  -2.180  0.00  0.00     0.028 H 
ATOM    155  H85 LEU d   1     -13.610   1.106  -2.885  0.00  0.00     0.028 H 
ATOM    156  H86 LEU d   1     -15.144   1.687  -3.618  0.00  0.00     0.028 H 
ENDBRANCH 147 153
ENDBRANCH 144 147
ENDBRANCH 114 144
ENDBRANCH 112 114
ENDBRANCH 108 110
BRANCH 108 157
ATOM    157  CB  GLN d   1     -15.896   6.974  -0.718  0.00  0.00    -0.030 C 
ATOM    158  H70 GLN d   1     -15.928   6.484   0.267  0.00  0.00     0.037 H 
ATOM    159  H71 GLN d   1     -16.448   6.365  -1.449  0.00  0.00     0.037 H 
BRANCH 157 160
ATOM    160  CG  GLN d   1     -16.559   8.363  -0.614  0.00  0.00     0.011 C 
ATOM    161  H72 GLN d   1     -16.717   8.750  -1.632  0.00  0.00     0.047 H 
ATOM    162  H73 GLN d   1     -15.878   9.033  -0.069  0.00  0.00     0.047 H 
BRANCH 160 163
ATOM    163  CD  GLN d   1     -17.887   8.348   0.102  0.00  0.00     0.215 C 
ATOM    164  OE1 GLN d   1     -17.958   8.088   1.313  0.00  0.00    -0.274 OA
ATOM    165  NE2 GLN d   1     -18.957   8.626  -0.642  0.00  0.00    -0.370 N 
ATOM    166  H74 GLN d   1     -19.867   8.632  -0.227  0.00  0.00     0.159 HD
ATOM    167  H75 GLN d   1     -18.850   8.828  -1.615  0.00  0.00     0.159 HD
ENDBRANCH 160 163
ENDBRANCH 157 160
ENDBRANCH 108 157
ENDBRANCH 106 108
ENDBRANCH 102 104
BRANCH 102 168
ATOM    168  CB  ALA d   1     -13.708  10.409  -4.258  0.00  0.00    -0.049 C 
ATOM    169  H65 ALA d   1     -13.058  10.953  -3.557  0.00  0.00     0.030 H 
ATOM    170  H66 ALA d   1     -14.755  10.500  -3.933  0.00  0.00     0.030 H 
ATOM    171  H67 ALA d   1     -13.598  10.836  -5.266  0.00  0.00     0.030 H 
ENDBRANCH 102 168
ENDBRANCH 100 102
ENDBRANCH  96  98
BRANCH  96 172
ATOM    172  CB  TRP d   1     -14.446   6.600  -7.950  0.00  0.00    -0.012 C 
ATOM    173  H55 TRP d   1     -14.429   7.693  -8.075  0.00  0.00     0.044 H 
ATOM    174  H56 TRP d   1     -15.173   6.162  -8.650  0.00  0.00     0.044 H 
BRANCH 172 175
ATOM    175  CG  TRP d   1     -13.076   6.057  -8.276  0.00  0.00    -0.028 A 
ATOM    176  CD1 TRP d   1     -11.882   6.709  -8.199  0.00  0.00    -0.015 A 
ATOM    177  NE1 TRP d   1     -10.852   5.851  -8.497  0.00  0.00    -0.365 N 
ATOM    178  H57 TRP d   1     -11.762   7.760  -7.939  0.00  0.00     0.112 H 
ATOM    179  CE2 TRP d   1     -11.376   4.614  -8.784  0.00  0.00     0.042 A 
ATOM    180  H58 TRP d   1      -9.851   6.095  -8.504  0.00  0.00     0.165 HD
ATOM    181  CD2 TRP d   1     -12.779   4.712  -8.654  0.00  0.00    -0.002 A 
ATOM    182  CZ2 TRP d   1     -10.737   3.427  -9.144  0.00  0.00    -0.056 A 
ATOM    183  CE3 TRP d   1     -13.571   3.575  -8.893  0.00  0.00    -0.070 A 
ATOM    184  CZ3 TRP d   1     -12.936   2.379  -9.257  0.00  0.00    -0.082 A 
ATOM    185  H59 TRP d   1     -14.650   3.622  -8.798  0.00  0.00     0.084 H 
ATOM    186  CH2 TRP d   1     -11.524   2.320  -9.378  0.00  0.00    -0.081 A 
ATOM    187  H61 TRP d   1     -13.529   1.492  -9.447  0.00  0.00     0.083 H 
ATOM    188  H62 TRP d   1     -11.054   1.385  -9.660  0.00  0.00     0.083 H 
ATOM    189  H60 TRP d   1      -9.658   3.377  -9.236  0.00  0.00     0.086 H 
ENDBRANCH 172 175
ENDBRANCH  96 172
ENDBRANCH  94  96
ENDBRANCH   1  92
BRANCH   1 190
ATOM    190  CB  TRP d   1     -19.236   5.843  -5.958  0.00  0.00    -0.012 C 
ATOM    191  H45 TRP d   1     -19.057   4.829  -5.571  0.00  0.00     0.044 H 
ATOM    192  H46 TRP d   1     -18.914   5.897  -7.008  0.00  0.00     0.044 H 
BRANCH 190 193
ATOM    193  CG  TRP d   1     -20.698   6.124  -5.895  0.00  0.00    -0.028 A 
ATOM    194  CD1 TRP d   1     -21.507   6.523  -6.916  0.00  0.00    -0.015 A 
ATOM    195  NE1 TRP d   1     -22.796   6.690  -6.463  0.00  0.00    -0.365 N 
ATOM    196  H47 TRP d   1     -21.181   6.686  -7.942  0.00  0.00     0.112 H 
ATOM    197  CE2 TRP d   1     -22.830   6.399  -5.123  0.00  0.00     0.042 A 
ATOM    198  H48 TRP d   1     -23.601   6.984  -7.035  0.00  0.00     0.165 HD
ATOM    199  CD2 TRP d   1     -21.522   6.037  -4.735  0.00  0.00    -0.002 A 
ATOM    200  CZ2 TRP d   1     -23.902   6.422  -4.224  0.00  0.00    -0.056 A 
ATOM    201  CE3 TRP d   1     -21.281   5.686  -3.403  0.00  0.00    -0.070 A 
ATOM    202  CZ3 TRP d   1     -22.352   5.707  -2.503  0.00  0.00    -0.082 A 
ATOM    203  H49 TRP d   1     -20.287   5.404  -3.075  0.00  0.00     0.084 H 
ATOM    204  CH2 TRP d   1     -23.644   6.074  -2.924  0.00  0.00    -0.081 A 
ATOM    205  H51 TRP d   1     -22.184   5.437  -1.467  0.00  0.00     0.083 H 
ATOM    206  H52 TRP d   1     -24.454   6.082  -2.203  0.00  0.00     0.083 H 
ATOM    207  H50 TRP d   1     -24.898   6.704  -4.544  0.00  0.00     0.086 H 
ENDBRANCH 190 193
ENDBRANCH   1 190
TORSDOF 55
