REMARK WARNING: 32 MAX_TORS EXCEEDED!!!
REMARK  56 active torsions:
REMARK  status: ('A' for Active; 'I' for Inactive)
REMARK    1  A    between atoms: N_1  and  CA_2 
REMARK    2  A    between atoms: CA_2  and  C_3 
REMARK    3  A    between atoms: CA_2  and  CB_5 
REMARK       I    between atoms: C_3  and  N_10 
REMARK    4  A    between atoms: CB_5  and  CG_6 
REMARK    5  A    between atoms: CG_6  and  CD_7 
REMARK    6  A    between atoms: N_10  and  CA_11 
REMARK    7  A    between atoms: CA_11  and  C_12 
REMARK    8  A    between atoms: CA_11  and  CB_14 
REMARK       I    between atoms: C_12  and  N_17 
REMARK    9  A    between atoms: CB_14  and  OG1_15 
REMARK   10  A    between atoms: CB_14  and  CG2_16 
REMARK   11  A    between atoms: N_17  and  CA_18 
REMARK   12  A    between atoms: CA_18  and  C_19 
REMARK   13  A    between atoms: CA_18  and  CB_21 
REMARK       I    between atoms: C_19  and  N_28 
REMARK   14  A    between atoms: CB_21  and  CG_22 
REMARK   15  A    between atoms: N_28  and  CA_29 
REMARK   16  A    between atoms: CA_29  and  C_30 
REMARK   17  A    between atoms: CA_29  and  CB_32 
REMARK       I    between atoms: C_30  and  N_37 
REMARK   18  A    between atoms: CB_32  and  CG_33 
REMARK   19  A    between atoms: CG_33  and  CD_34 
REMARK   20  A    between atoms: N_37  and  CA_38 
REMARK   21  A    between atoms: CA_38  and  C_39 
REMARK   22  A    between atoms: CA_38  and  CB_41 
REMARK       I    between atoms: C_39  and  N_47 
REMARK   23  A    between atoms: CB_41  and  CG_42 
REMARK   24  A    between atoms: N_47  and  CA_48 
REMARK   25  A    between atoms: CA_48  and  C_49 
REMARK   26  A    between atoms: CA_48  and  CB_51 
REMARK       I    between atoms: C_49  and  N_61 
REMARK   27  A    between atoms: CB_51  and  CG_52 
REMARK   28  A    between atoms: N_61  and  CA_62 
REMARK   29  A    between atoms: CA_62  and  C_63 
REMARK   30  A    between atoms: CA_62  and  CB_65 
REMARK       I    between atoms: C_63  and  N_75 
REMARK   31  A    between atoms: CB_65  and  CG_66 
REMARK   32  A    between atoms: N_75  and  CA_76 
REMARK   33  A    between atoms: CA_76  and  C_77 
REMARK   34  A    between atoms: CA_76  and  CB_79 
REMARK       I    between atoms: C_77  and  N_81 
REMARK   35  A    between atoms: CB_79  and  OG_80 
REMARK   36  A    between atoms: N_81  and  CA_82 
REMARK   37  A    between atoms: CA_82  and  C_83 
REMARK   38  A    between atoms: CA_82  and  CB_85 
REMARK       I    between atoms: C_83  and  N_90 
REMARK   39  A    between atoms: CB_85  and  CG_86 
REMARK   40  A    between atoms: CG_86  and  CD_87 
REMARK       I    between atoms: CD_87  and  NE2_89 
REMARK   41  A    between atoms: N_90  and  CA_91 
REMARK   42  A    between atoms: CA_91  and  C_92 
REMARK   43  A    between atoms: CA_91  and  CB_94 
REMARK       I    between atoms: C_92  and  N_98 
REMARK   44  A    between atoms: CB_94  and  CG_95 
REMARK   45  A    between atoms: CG_95  and  CD1_96 
REMARK   46  A    between atoms: CG_95  and  CD2_97 
REMARK   47  A    between atoms: N_98  and  CA_99 
REMARK   48  A    between atoms: CA_99  and  C_100 
REMARK   49  A    between atoms: CA_99  and  CB_102 
REMARK       I    between atoms: C_100  and  N_106 
REMARK   50  A    between atoms: CB_102  and  CG_103 
REMARK   51  A    between atoms: CG_103  and  CD1_104 
REMARK   52  A    between atoms: CG_103  and  CD2_105 
REMARK   53  A    between atoms: N_106  and  CA_107 
REMARK   54  A    between atoms: CA_107  and  C_108 
REMARK   55  A    between atoms: CA_107  and  CB_110 
REMARK   56  A    between atoms: CB_110  and  OG_111 
ROOT
ATOM      1  CA  TRP d   1      30.315  38.751  -3.025  0.00  0.00     0.093 C 
ATOM      2  H39 TRP d   1      30.337  39.543  -3.788  0.00  0.00     0.088 H 
ENDROOT
BRANCH   1   3
ATOM      3  N   TRP d   1      31.295  37.733  -3.395  0.00  0.00    -0.346 N 
ATOM      4  C   HIS d   1      32.580  38.030  -3.568  0.00  0.00     0.241 C 
ATOM      5  O   HIS d   1      33.025  39.176  -3.476  0.00  0.00    -0.271 OA
ATOM      6  H38 TRP d   1      30.992  36.788  -3.522  0.00  0.00     0.163 HD
BRANCH   4   7
ATOM      7  CA  HIS d   1      33.499  36.858  -3.928  0.00  0.00     0.094 C 
ATOM      8  H32 HIS d   1      34.544  37.197  -3.869  0.00  0.00     0.088 H 
BRANCH   7   9
ATOM      9  N   HIS d   1      33.307  35.753  -2.994  0.00  0.00    -0.346 N 
ATOM     10  C   GLU d   1      33.510  35.901  -1.696  0.00  0.00     0.241 C 
ATOM     11  O   GLU d   1      33.830  36.987  -1.205  0.00  0.00    -0.271 OA
ATOM     12  H31 HIS d   1      33.015  34.863  -3.344  0.00  0.00     0.163 HD
BRANCH  10  13
ATOM     13  CA  GLU d   1      33.285  34.645  -0.807  0.00  0.00     0.090 C 
ATOM     14  H26 GLU d   1      33.141  34.988   0.228  0.00  0.00     0.087 H 
BRANCH  13  15
ATOM     15  N   GLU d   1      32.112  33.890  -1.200  0.00  0.00    -0.346 N 
ATOM     16  C   PHE d   1      30.928  34.477  -1.197  0.00  0.00     0.241 C 
ATOM     17  O   PHE d   1      30.787  35.669  -0.844  0.00  0.00    -0.271 OA
ATOM     18  H25 GLU d   1      32.198  32.931  -1.472  0.00  0.00     0.163 HD
BRANCH  16  19
ATOM     19  CA  PHE d   1      29.727  33.607  -1.616  0.00  0.00     0.093 C 
ATOM     20  H17 PHE d   1      28.866  34.255  -1.838  0.00  0.00     0.088 H 
BRANCH  19  21
ATOM     21  N   PHE d   1      30.060  32.842  -2.808  0.00  0.00    -0.346 N 
ATOM     22  C   THR d   1      30.414  33.463  -3.930  0.00  0.00     0.243 C 
ATOM     23  O   THR d   1      30.447  34.698  -4.041  0.00  0.00    -0.271 OA
ATOM     24  H16 PHE d   1      30.023  31.843  -2.784  0.00  0.00     0.163 HD
BRANCH  22  25
ATOM     25  CA  THR d   1      30.796  32.544  -5.099  0.00  0.00     0.113 C 
ATOM     26  H10 THR d   1      30.052  31.742  -5.213  0.00  0.00     0.091 H 
BRANCH  25  27
ATOM     27  N   THR d   1      30.880  33.292  -6.334  0.00  0.00    -0.344 N 
ATOM     28  C   GLU d   1      29.799  33.522  -7.059  0.00  0.00     0.249 C 
ATOM     29  O   GLU d   1      28.681  33.138  -6.719  0.00  0.00    -0.271 OA
ATOM     30  H9  THR d   1      31.766  33.639  -6.643  0.00  0.00     0.163 HD
BRANCH  28  31
ATOM     31  CA  GLU d   1      29.989  34.338  -8.336  0.00  0.00     0.176 C 
ATOM     32  H4  GLU d   1      30.867  33.964  -8.883  0.00  0.00     0.099 H 
BRANCH  31  33
ATOM     33  N   GLU d   1      28.776  34.236  -9.222  0.00  0.00    -0.066 N 
ATOM     34  H1  GLU d   1      28.923  34.781 -10.057  0.00  0.00     0.275 HD
ATOM     35  H2  GLU d   1      27.970  34.587  -8.729  0.00  0.00     0.275 HD
ATOM     36  H3  GLU d   1      28.623  33.272  -9.473  0.00  0.00     0.275 HD
ENDBRANCH  31  33
BRANCH  31  37
ATOM     37  CB  GLU d   1      30.213  35.795  -7.938  0.00  0.00    -0.021 C 
ATOM     38  H5  GLU d   1      31.087  35.837  -7.272  0.00  0.00     0.037 H 
ATOM     39  H6  GLU d   1      29.322  36.143  -7.396  0.00  0.00     0.037 H 
BRANCH  37  40
ATOM     40  CG  GLU d   1      30.458  36.741  -9.100  0.00  0.00     0.018 C 
ATOM     41  H7  GLU d   1      30.525  37.767  -8.709  0.00  0.00     0.049 H 
ATOM     42  H8  GLU d   1      29.610  36.668  -9.796  0.00  0.00     0.049 H 
BRANCH  40  43
ATOM     43  CD  GLU d   1      31.750  36.424  -9.867  0.00  0.00     0.172 C 
ATOM     44  OE1 GLU d   1      32.673  35.809  -9.297  0.00  0.00    -0.648 OA
ATOM     45  OE2 GLU d   1      31.840  36.815 -11.046  0.00  0.00    -0.648 OA
ENDBRANCH  40  43
ENDBRANCH  37  40
ENDBRANCH  31  37
ENDBRANCH  28  31
ENDBRANCH  25  27
BRANCH  25  46
ATOM     46  CB  THR d   1      32.115  31.971  -4.732  0.00  0.00     0.060 C 
ATOM     47  H11 THR d   1      31.999  31.312  -3.858  0.00  0.00     0.086 H 
BRANCH  46  48
ATOM     48  OG1 THR d   1      32.997  33.049  -4.410  0.00  0.00    -0.393 OA
ATOM     49  H12 THR d   1      33.848  32.700  -4.172  0.00  0.00     0.210 HD
ENDBRANCH  46  48
BRANCH  46  50
ATOM     50  CG2 THR d   1      32.696  31.165  -5.899  0.00  0.00    -0.050 C 
ATOM     51  H13 THR d   1      33.672  30.749  -5.608  0.00  0.00     0.031 H 
ATOM     52  H14 THR d   1      32.823  31.823  -6.771  0.00  0.00     0.031 H 
ATOM     53  H15 THR d   1      32.010  30.344  -6.155  0.00  0.00     0.031 H 
ENDBRANCH  46  50
ENDBRANCH  25  46
ENDBRANCH  22  25
ENDBRANCH  19  21
BRANCH  19  54
ATOM     54  CB  PHE d   1      29.372  32.681  -0.444  0.00  0.00    -0.014 C 
ATOM     55  H18 PHE d   1      30.177  31.941  -0.324  0.00  0.00     0.043 H 
ATOM     56  H19 PHE d   1      28.430  32.164  -0.677  0.00  0.00     0.043 H 
BRANCH  54  57
ATOM     57  CG  PHE d   1      29.204  33.427   0.858  0.00  0.00    -0.056 A 
ATOM     58  CD1 PHE d   1      28.045  34.187   1.101  0.00  0.00    -0.077 A 
ATOM     59  CE1 PHE d   1      27.935  34.968   2.276  0.00  0.00    -0.082 A 
ATOM     60  H20 PHE d   1      27.232  34.174   0.384  0.00  0.00     0.084 H 
ATOM     61  CZ  PHE d   1      28.976  34.979   3.194  0.00  0.00    -0.083 A 
ATOM     62  H22 PHE d   1      27.042  35.555   2.458  0.00  0.00     0.083 H 
ATOM     63  CE2 PHE d   1      30.126  34.223   2.959  0.00  0.00    -0.082 A 
ATOM     64  H24 PHE d   1      28.896  35.576   4.095  0.00  0.00     0.083 H 
ATOM     65  CD2 PHE d   1      30.232  33.452   1.793  0.00  0.00    -0.077 A 
ATOM     66  H23 PHE d   1      30.937  34.232   3.678  0.00  0.00     0.083 H 
ATOM     67  H21 PHE d   1      31.128  32.867   1.618  0.00  0.00     0.084 H 
ENDBRANCH  54  57
ENDBRANCH  19  54
ENDBRANCH  16  19
ENDBRANCH  13  15
BRANCH  13  68
ATOM     68  CB  GLU d   1      34.507  33.719  -0.846  0.00  0.00    -0.029 C 
ATOM     69  H27 GLU d   1      34.586  33.299  -1.859  0.00  0.00     0.037 H 
ATOM     70  H28 GLU d   1      34.343  32.906  -0.123  0.00  0.00     0.037 H 
BRANCH  68  71
ATOM     71  CG  GLU d   1      35.820  34.389  -0.511  0.00  0.00     0.018 C 
ATOM     72  H29 GLU d   1      36.539  33.616  -0.203  0.00  0.00     0.049 H 
ATOM     73  H30 GLU d   1      35.654  35.088   0.322  0.00  0.00     0.049 H 
BRANCH  71  74
ATOM     74  CD  GLU d   1      36.415  35.167  -1.691  0.00  0.00     0.172 C 
ATOM     75  OE1 GLU d   1      36.312  34.698  -2.854  0.00  0.00    -0.648 OA
ATOM     76  OE2 GLU d   1      37.003  36.247  -1.452  0.00  0.00    -0.648 OA
ENDBRANCH  71  74
ENDBRANCH  68  71
ENDBRANCH  13  68
ENDBRANCH  10  13
ENDBRANCH   7   9
BRANCH   7  77
ATOM     77  CB  HIS d   1      33.212  36.374  -5.355  0.00  0.00     0.004 C 
ATOM     78  H33 HIS d   1      32.189  35.972  -5.384  0.00  0.00     0.046 H 
ATOM     79  H34 HIS d   1      33.927  35.575  -5.599  0.00  0.00     0.046 H 
BRANCH  77  80
ATOM     80  CG  HIS d   1      33.327  37.443  -6.401  0.00  0.00     0.053 A 
ATOM     81  ND1 HIS d   1      34.433  37.580  -7.210  0.00  0.00    -0.247 NA
ATOM     82  CE1 HIS d   1      34.258  38.604  -8.028  0.00  0.00     0.064 A 
ATOM     83  NE2 HIS d   1      33.079  39.137  -7.778  0.00  0.00    -0.359 N 
ATOM     84  H36 HIS d   1      34.967  38.948  -8.780  0.00  0.00     0.143 H 
ATOM     85  CD2 HIS d   1      32.474  38.427  -6.768  0.00  0.00     0.002 A 
ATOM     86  H37 HIS d   1      32.676  39.953  -8.261  0.00  0.00     0.166 HD
ATOM     87  H35 HIS d   1      31.491  38.621  -6.342  0.00  0.00     0.114 H 
ENDBRANCH  77  80
ENDBRANCH   7  77
ENDBRANCH   4   7
ENDBRANCH   1   3
BRANCH   1  88
ATOM     88  C   TRP d   1      30.605  39.367  -1.662  0.00  0.00     0.241 C 
ATOM     89  O   TRP d   1      30.610  40.606  -1.502  0.00  0.00    -0.271 OA
ATOM     90  N   TRP d   1      30.846  38.518  -0.670  0.00  0.00    -0.346 N 
ATOM     91  H48 TRP d   1      30.868  37.534  -0.849  0.00  0.00     0.163 HD
BRANCH  90  92
ATOM     92  CA  TRP d   1      31.079  39.019   0.685  0.00  0.00     0.093 C 
ATOM     93  H49 TRP d   1      30.220  39.658   0.936  0.00  0.00     0.088 H 
BRANCH  92  94
ATOM     94  C   TRP d   1      32.333  39.849   0.867  0.00  0.00     0.241 C 
ATOM     95  O   TRP d   1      32.309  40.902   1.555  0.00  0.00    -0.271 OA
ATOM     96  N   SER d   1      33.430  39.382   0.270  0.00  0.00    -0.344 N 
ATOM     97  H58 SER d   1      33.383  38.556  -0.292  0.00  0.00     0.163 HD
BRANCH  96  98
ATOM     98  CA  SER d   1      34.697  40.079   0.440  0.00  0.00     0.109 C 
ATOM     99  H59 SER d   1      34.904  40.149   1.518  0.00  0.00     0.090 H 
BRANCH  98 100
ATOM    100  C   SER d   1      34.651  41.491  -0.134  0.00  0.00     0.243 C 
ATOM    101  O   SER d   1      35.482  42.312   0.205  0.00  0.00    -0.271 OA
ATOM    102  N   GLN d   1      33.689  41.773  -0.995  0.00  0.00    -0.346 N 
ATOM    103  H63 GLN d   1      33.003  41.089  -1.242  0.00  0.00     0.163 HD
BRANCH 102 104
ATOM    104  CA  GLN d   1      33.657  43.101  -1.571  0.00  0.00     0.090 C 
ATOM    105  H64 GLN d   1      34.627  43.569  -1.347  0.00  0.00     0.087 H 
BRANCH 104 106
ATOM    106  C   GLN d   1      32.597  44.036  -1.005  0.00  0.00     0.241 C 
ATOM    107  O   GLN d   1      32.354  45.121  -1.540  0.00  0.00    -0.271 OA
ATOM    108  N   LEU d   1      31.960  43.627   0.085  0.00  0.00    -0.346 N 
ATOM    109  H71 LEU d   1      32.147  42.724   0.471  0.00  0.00     0.163 HD
BRANCH 108 110
ATOM    110  CA  LEU d   1      30.974  44.519   0.720  0.00  0.00     0.089 C 
ATOM    111  H72 LEU d   1      30.178  44.800   0.014  0.00  0.00     0.087 H 
BRANCH 110 112
ATOM    112  C   LEU d   1      31.777  45.738   1.188  0.00  0.00     0.241 C 
ATOM    113  O   LEU d   1      32.865  45.575   1.687  0.00  0.00    -0.271 OA
ATOM    114  N   LEU d   1      31.230  46.937   1.066  0.00  0.00    -0.346 N 
ATOM    115  H82 LEU d   1      30.314  47.020   0.674  0.00  0.00     0.163 HD
BRANCH 114 116
ATOM    116  CA  LEU d   1      31.948  48.161   1.498  0.00  0.00     0.089 C 
ATOM    117  H83 LEU d   1      31.220  48.984   1.450  0.00  0.00     0.087 H 
BRANCH 116 118
ATOM    118  C   LEU d   1      33.127  48.558   0.609  0.00  0.00     0.241 C 
ATOM    119  O   LEU d   1      34.069  49.243   1.057  0.00  0.00    -0.271 OA
ATOM    120  N   SER d   1      33.053  48.124  -0.649  0.00  0.00    -0.343 N 
ATOM    121  H93 SER d   1      32.272  47.554  -0.902  0.00  0.00     0.163 HD
BRANCH 120 122
ATOM    122  CA  SER d   1      34.042  48.429  -1.682  0.00  0.00     0.116 C 
ATOM    123  H94 SER d   1      34.787  49.124  -1.268  0.00  0.00     0.093 H 
BRANCH 122 124
ATOM    124  C   SER d   1      33.334  49.088  -2.858  0.00  0.00     0.198 C 
ATOM    125  O   SER d   1      32.113  49.325  -2.738  0.00  0.00    -0.646 OA
ATOM    126  OXT SER d   1      34.001  49.371  -3.883  0.00  0.00    -0.646 OA
ENDBRANCH 122 124
BRANCH 122 127
ATOM    127  CB  SER d   1      34.759  47.172  -2.166  0.00  0.00     0.045 C 
ATOM    128  H95 SER d   1      35.260  47.385  -3.122  0.00  0.00     0.077 H 
ATOM    129  H96 SER d   1      34.024  46.366  -2.309  0.00  0.00     0.077 H 
BRANCH 127 130
ATOM    130  OG  SER d   1      35.731  46.759  -1.205  0.00  0.00    -0.398 OA
ATOM    131  H97 SER d   1      35.299  46.573  -0.379  0.00  0.00     0.209 HD
ENDBRANCH 127 130
ENDBRANCH 122 127
ENDBRANCH 120 122
ENDBRANCH 116 118
BRANCH 116 132
ATOM    132  CB  LEU d   1      32.422  48.046   2.954  0.00  0.00    -0.035 C 
ATOM    133  H84 LEU d   1      32.974  48.961   3.215  0.00  0.00     0.037 H 
ATOM    134  H85 LEU d   1      33.092  47.178   3.035  0.00  0.00     0.037 H 
BRANCH 132 135
ATOM    135  CG  LEU d   1      31.263  47.868   3.964  0.00  0.00    -0.059 C 
ATOM    136  H86 LEU d   1      30.702  46.958   3.704  0.00  0.00     0.038 H 
BRANCH 135 137
ATOM    137  CD1 LEU d   1      31.859  47.703   5.370  0.00  0.00    -0.073 C 
ATOM    138  H87 LEU d   1      31.046  47.575   6.100  0.00  0.00     0.028 H 
ATOM    139  H88 LEU d   1      32.445  48.597   5.627  0.00  0.00     0.028 H 
ATOM    140  H89 LEU d   1      32.512  46.818   5.390  0.00  0.00     0.028 H 
ENDBRANCH 135 137
BRANCH 135 141
ATOM    141  CD2 LEU d   1      30.296  49.065   3.922  0.00  0.00    -0.073 C 
ATOM    142  H90 LEU d   1      29.881  49.166   2.908  0.00  0.00     0.028 H 
ATOM    143  H91 LEU d   1      30.838  49.984   4.189  0.00  0.00     0.028 H 
ATOM    144  H92 LEU d   1      29.478  48.901   4.639  0.00  0.00     0.028 H 
ENDBRANCH 135 141
ENDBRANCH 132 135
ENDBRANCH 116 132
ENDBRANCH 114 116
ENDBRANCH 110 112
BRANCH 110 145
ATOM    145  CB  LEU d   1      30.388  43.858   1.963  0.00  0.00    -0.035 C 
ATOM    146  H73 LEU d   1      29.887  44.628   2.568  0.00  0.00     0.037 H 
ATOM    147  H74 LEU d   1      31.209  43.412   2.544  0.00  0.00     0.037 H 
BRANCH 145 148
ATOM    148  CG  LEU d   1      29.384  42.774   1.632  0.00  0.00    -0.059 C 
ATOM    149  H75 LEU d   1      29.890  41.984   1.058  0.00  0.00     0.038 H 
BRANCH 148 150
ATOM    150  CD1 LEU d   1      28.907  42.193   2.909  0.00  0.00    -0.073 C 
ATOM    151  H76 LEU d   1      28.174  41.400   2.700  0.00  0.00     0.028 H 
ATOM    152  H77 LEU d   1      28.434  42.979   3.515  0.00  0.00     0.028 H 
ATOM    153  H78 LEU d   1      29.759  41.768   3.460  0.00  0.00     0.028 H 
ENDBRANCH 148 150
BRANCH 148 154
ATOM    154  CD2 LEU d   1      28.246  43.329   0.764  0.00  0.00    -0.073 C 
ATOM    155  H79 LEU d   1      28.663  43.744  -0.165  0.00  0.00     0.028 H 
ATOM    156  H80 LEU d   1      27.718  44.121   1.315  0.00  0.00     0.028 H 
ATOM    157  H81 LEU d   1      27.542  42.519   0.521  0.00  0.00     0.028 H 
ENDBRANCH 148 154
ENDBRANCH 145 148
ENDBRANCH 110 145
ENDBRANCH 108 110
ENDBRANCH 104 106
BRANCH 104 158
ATOM    158  CB  GLN d   1      33.556  42.963  -3.073  0.00  0.00    -0.030 C 
ATOM    159  H65 GLN d   1      33.645  43.954  -3.541  0.00  0.00     0.037 H 
ATOM    160  H66 GLN d   1      32.586  42.518  -3.338  0.00  0.00     0.037 H 
BRANCH 158 161
ATOM    161  CG  GLN d   1      34.690  42.057  -3.568  0.00  0.00     0.011 C 
ATOM    162  H67 GLN d   1      34.409  41.007  -3.397  0.00  0.00     0.047 H 
ATOM    163  H68 GLN d   1      35.605  42.288  -3.002  0.00  0.00     0.047 H 
BRANCH 161 164
ATOM    164  CD  GLN d   1      34.953  42.252  -4.998  0.00  0.00     0.215 C 
ATOM    165  OE1 GLN d   1      35.566  43.251  -5.390  0.00  0.00    -0.274 OA
ATOM    166  NE2 GLN d   1      34.471  41.316  -5.823  0.00  0.00    -0.370 N 
ATOM    167  H69 GLN d   1      34.618  41.395  -6.809  0.00  0.00     0.159 HD
ATOM    168  H70 GLN d   1      33.963  40.538  -5.454  0.00  0.00     0.159 HD
ENDBRANCH 161 164
ENDBRANCH 158 161
ENDBRANCH 104 158
ENDBRANCH 102 104
ENDBRANCH  98 100
BRANCH  98 169
ATOM    169  CB  SER d   1      35.847  39.310  -0.230  0.00  0.00     0.044 C 
ATOM    170  H60 SER d   1      35.874  38.281   0.158  0.00  0.00     0.077 H 
ATOM    171  H61 SER d   1      36.801  39.811  -0.007  0.00  0.00     0.077 H 
BRANCH 169 172
ATOM    172  OG  SER d   1      35.649  39.280  -1.622  0.00  0.00    -0.398 OA
ATOM    173  H62 SER d   1      34.826  38.847  -1.814  0.00  0.00     0.209 HD
ENDBRANCH 169 172
ENDBRANCH  98 169
ENDBRANCH  96  98
ENDBRANCH  92  94
BRANCH  92 174
ATOM    174  CB  TRP d   1      31.143  37.871   1.709  0.00  0.00    -0.012 C 
ATOM    175  H50 TRP d   1      32.078  37.313   1.553  0.00  0.00     0.044 H 
ATOM    176  H51 TRP d   1      30.285  37.203   1.542  0.00  0.00     0.044 H 
BRANCH 174 177
ATOM    177  CG  TRP d   1      31.104  38.359   3.144  0.00  0.00    -0.028 A 
ATOM    178  CD1 TRP d   1      32.167  38.614   3.975  0.00  0.00    -0.015 A 
ATOM    179  NE1 TRP d   1      31.715  39.071   5.198  0.00  0.00    -0.365 N 
ATOM    180  H52 TRP d   1      33.214  38.476   3.709  0.00  0.00     0.112 H 
ATOM    181  CE2 TRP d   1      30.343  39.119   5.173  0.00  0.00     0.042 A 
ATOM    182  H53 TRP d   1      32.310  39.333   5.997  0.00  0.00     0.165 HD
ATOM    183  CD2 TRP d   1      29.922  38.677   3.897  0.00  0.00    -0.002 A 
ATOM    184  CZ2 TRP d   1      29.433  39.512   6.170  0.00  0.00    -0.056 A 
ATOM    185  CE3 TRP d   1      28.546  38.635   3.611  0.00  0.00    -0.070 A 
ATOM    186  CZ3 TRP d   1      27.646  39.021   4.598  0.00  0.00    -0.082 A 
ATOM    187  H54 TRP d   1      28.194  38.308   2.639  0.00  0.00     0.084 H 
ATOM    188  CH2 TRP d   1      28.098  39.456   5.866  0.00  0.00    -0.081 A 
ATOM    189  H56 TRP d   1      26.582  38.988   4.393  0.00  0.00     0.083 H 
ATOM    190  H57 TRP d   1      27.372  39.752   6.614  0.00  0.00     0.083 H 
ATOM    191  H55 TRP d   1      29.775  39.847   7.143  0.00  0.00     0.086 H 
ENDBRANCH 174 177
ENDBRANCH  92 174
ENDBRANCH  90  92
ENDBRANCH   1  88
BRANCH   1 192
ATOM    192  CB  TRP d   1      28.906  38.156  -2.952  0.00  0.00    -0.012 C 
ATOM    193  H40 TRP d   1      28.238  38.906  -2.503  0.00  0.00     0.044 H 
ATOM    194  H41 TRP d   1      28.942  37.265  -2.308  0.00  0.00     0.044 H 
BRANCH 192 195
ATOM    195  CG  TRP d   1      28.346  37.762  -4.253  0.00  0.00    -0.028 A 
ATOM    196  CD1 TRP d   1      28.239  36.491  -4.762  0.00  0.00    -0.015 A 
ATOM    197  NE1 TRP d   1      27.583  36.523  -5.977  0.00  0.00    -0.365 N 
ATOM    198  H42 TRP d   1      28.616  35.591  -4.279  0.00  0.00     0.112 H 
ATOM    199  CE2 TRP d   1      27.268  37.823  -6.274  0.00  0.00     0.042 A 
ATOM    200  H43 TRP d   1      27.366  35.704  -6.563  0.00  0.00     0.165 HD
ATOM    201  CD2 TRP d   1      27.734  38.631  -5.203  0.00  0.00    -0.002 A 
ATOM    202  CZ2 TRP d   1      26.600  38.359  -7.379  0.00  0.00    -0.056 A 
ATOM    203  CE3 TRP d   1      27.530  40.021  -5.257  0.00  0.00    -0.070 A 
ATOM    204  CZ3 TRP d   1      26.869  40.554  -6.355  0.00  0.00    -0.082 A 
ATOM    205  H44 TRP d   1      27.882  40.663  -4.458  0.00  0.00     0.084 H 
ATOM    206  CH2 TRP d   1      26.415  39.724  -7.406  0.00  0.00    -0.081 A 
ATOM    207  H46 TRP d   1      26.698  41.623  -6.408  0.00  0.00     0.083 H 
ATOM    208  H47 TRP d   1      25.909  40.172  -8.253  0.00  0.00     0.083 H 
ATOM    209  H45 TRP d   1      26.242  37.726  -8.183  0.00  0.00     0.086 H 
ENDBRANCH 192 195
ENDBRANCH   1 192
TORSDOF 56
