REMARK WARNING: 32 MAX_TORS EXCEEDED!!!
REMARK  55 active torsions:
REMARK  status: ('A' for Active; 'I' for Inactive)
REMARK    1  A    between atoms: N_1  and  CA_2 
REMARK    2  A    between atoms: CA_2  and  C_3 
REMARK    3  A    between atoms: CA_2  and  CB_5 
REMARK       I    between atoms: C_3  and  N_9 
REMARK    4  A    between atoms: CB_5  and  CG_6 
REMARK    5  A    between atoms: CG_6  and  CD1_7 
REMARK    6  A    between atoms: CG_6  and  CD2_8 
REMARK    7  A    between atoms: N_9  and  CA_10 
REMARK    8  A    between atoms: CA_10  and  C_11 
REMARK    9  A    between atoms: CA_10  and  CB_13 
REMARK       I    between atoms: C_11  and  N_16 
REMARK   10  A    between atoms: CB_13  and  OG1_14 
REMARK   11  A    between atoms: CB_13  and  CG2_15 
REMARK   12  A    between atoms: N_16  and  CA_17 
REMARK   13  A    between atoms: CA_17  and  C_18 
REMARK   14  A    between atoms: CA_17  and  CB_20 
REMARK       I    between atoms: C_18  and  N_27 
REMARK   15  A    between atoms: CB_20  and  CG_21 
REMARK   16  A    between atoms: N_27  and  CA_28 
REMARK   17  A    between atoms: CA_28  and  C_29 
REMARK   18  A    between atoms: CA_28  and  CB_31 
REMARK       I    between atoms: C_29  and  N_36 
REMARK   19  A    between atoms: CB_31  and  CG_32 
REMARK   20  A    between atoms: CG_32  and  CD_33 
REMARK   21  A    between atoms: N_36  and  CA_37 
REMARK   22  A    between atoms: CA_37  and  C_38 
REMARK   23  A    between atoms: CA_37  and  CB_40 
REMARK       I    between atoms: C_38  and  N_46 
REMARK   24  A    between atoms: CB_40  and  CG_41 
REMARK   25  A    between atoms: N_46  and  CA_47 
REMARK   26  A    between atoms: CA_47  and  C_48 
REMARK   27  A    between atoms: CA_47  and  CB_50 
REMARK       I    between atoms: C_48  and  N_60 
REMARK   28  A    between atoms: CB_50  and  CG_51 
REMARK   29  A    between atoms: N_60  and  CA_61 
REMARK   30  A    between atoms: CA_61  and  C_62 
REMARK   31  A    between atoms: CA_61  and  CB_64 
REMARK       I    between atoms: C_62  and  N_74 
REMARK   32  A    between atoms: CB_64  and  CG_65 
REMARK   33  A    between atoms: N_74  and  CA_75 
REMARK   34  A    between atoms: CA_75  and  C_76 
REMARK   35  A    between atoms: CA_75  and  CB_78 
REMARK       I    between atoms: C_76  and  N_79 
REMARK   36  A    between atoms: N_79  and  CA_80 
REMARK   37  A    between atoms: CA_80  and  C_81 
REMARK   38  A    between atoms: CA_80  and  CB_83 
REMARK       I    between atoms: C_81  and  N_88 
REMARK   39  A    between atoms: CB_83  and  CG_84 
REMARK   40  A    between atoms: CG_84  and  CD_85 
REMARK       I    between atoms: CD_85  and  NE2_87 
REMARK   41  A    between atoms: N_88  and  CA_89 
REMARK   42  A    between atoms: CA_89  and  C_90 
REMARK   43  A    between atoms: CA_89  and  CB_92 
REMARK       I    between atoms: C_90  and  N_96 
REMARK   44  A    between atoms: CB_92  and  CG_93 
REMARK   45  A    between atoms: CG_93  and  CD1_94 
REMARK   46  A    between atoms: CG_93  and  CD2_95 
REMARK   47  A    between atoms: N_96  and  CA_97 
REMARK   48  A    between atoms: CA_97  and  C_98 
REMARK   49  A    between atoms: CA_97  and  CB_100 
REMARK       I    between atoms: C_98  and  N_103 
REMARK   50  A    between atoms: CB_100  and  OG1_101 
REMARK   51  A    between atoms: CB_100  and  CG2_102 
REMARK   52  A    between atoms: N_103  and  CA_104 
REMARK   53  A    between atoms: CA_104  and  C_105 
REMARK   54  A    between atoms: CA_104  and  CB_107 
REMARK   55  A    between atoms: CB_107  and  OG_108 
ROOT
ATOM      1  CA  TRP d   1       6.217  -8.289   5.935  0.00  0.00     0.093 C 
ATOM      2  H44 TRP d   1       6.174  -7.200   6.085  0.00  0.00     0.088 H 
ENDROOT
BRANCH   1   3
ATOM      3  N   TRP d   1       5.958  -8.565   4.523  0.00  0.00    -0.346 N 
ATOM      4  C   HIS d   1       6.742  -8.089   3.562  0.00  0.00     0.241 C 
ATOM      5  O   HIS d   1       7.735  -7.400   3.798  0.00  0.00    -0.271 OA
ATOM      6  H43 TRP d   1       5.170  -9.127   4.274  0.00  0.00     0.163 HD
BRANCH   4   7
ATOM      7  CA  HIS d   1       6.361  -8.459   2.119  0.00  0.00     0.094 C 
ATOM      8  H37 HIS d   1       7.125  -8.081   1.424  0.00  0.00     0.088 H 
BRANCH   7   9
ATOM      9  N   HIS d   1       6.298  -9.914   2.036  0.00  0.00    -0.346 N 
ATOM     10  C   GLU d   1       7.377 -10.649   2.294  0.00  0.00     0.241 C 
ATOM     11  O   GLU d   1       8.463 -10.146   2.586  0.00  0.00    -0.271 OA
ATOM     12  H36 HIS d   1       5.440 -10.361   1.784  0.00  0.00     0.163 HD
BRANCH  10  13
ATOM     13  CA  GLU d   1       7.218 -12.170   2.245  0.00  0.00     0.090 C 
ATOM     14  H31 GLU d   1       7.929 -12.592   2.971  0.00  0.00     0.087 H 
BRANCH  13  15
ATOM     15  N   GLU d   1       5.882 -12.600   2.641  0.00  0.00    -0.346 N 
ATOM     16  C   PHE d   1       5.472 -12.435   3.893  0.00  0.00     0.241 C 
ATOM     17  O   PHE d   1       6.177 -11.930   4.761  0.00  0.00    -0.271 OA
ATOM     18  H30 GLU d   1       5.273 -13.020   1.968  0.00  0.00     0.163 HD
BRANCH  16  19
ATOM     19  CA  PHE d   1       4.080 -12.934   4.231  0.00  0.00     0.093 C 
ATOM     20  H22 PHE d   1       3.769 -12.504   5.195  0.00  0.00     0.088 H 
BRANCH  19  21
ATOM     21  N   PHE d   1       3.115 -12.519   3.216  0.00  0.00    -0.346 N 
ATOM     22  C   THR d   1       2.979 -11.242   2.855  0.00  0.00     0.243 C 
ATOM     23  O   THR d   1       3.637 -10.320   3.359  0.00  0.00    -0.271 OA
ATOM     24  H21 PHE d   1       2.540 -13.211   2.780  0.00  0.00     0.163 HD
BRANCH  22  25
ATOM     25  CA  THR d   1       1.933 -10.960   1.769  0.00  0.00     0.113 C 
ATOM     26  H15 THR d   1       1.059 -11.605   1.944  0.00  0.00     0.091 H 
BRANCH  25  27
ATOM     27  N   THR d   1       1.482  -9.578   1.802  0.00  0.00    -0.344 N 
ATOM     28  C   LEU d   1       0.693  -9.142   2.784  0.00  0.00     0.249 C 
ATOM     29  O   LEU d   1       0.313  -9.861   3.712  0.00  0.00    -0.271 OA
ATOM     30  H14 THR d   1       1.767  -8.948   1.080  0.00  0.00     0.163 HD
BRANCH  28  31
ATOM     31  CA  LEU d   1       0.264  -7.682   2.723  0.00  0.00     0.176 C 
ATOM     32  H4  LEU d   1       0.179  -7.300   3.751  0.00  0.00     0.099 H 
BRANCH  31  33
ATOM     33  N   LEU d   1       1.245  -6.828   1.993  0.00  0.00    -0.066 N 
ATOM     34  H1  LEU d   1       0.917  -5.875   1.980  0.00  0.00     0.275 HD
ATOM     35  H2  LEU d   1       1.343  -7.162   1.047  0.00  0.00     0.275 HD
ATOM     36  H3  LEU d   1       2.138  -6.870   2.458  0.00  0.00     0.275 HD
ENDBRANCH  31  33
BRANCH  31  37
ATOM     37  CB  LEU d   1      -1.110  -7.613   2.055  0.00  0.00    -0.028 C 
ATOM     38  H5  LEU d   1      -1.718  -8.448   2.433  0.00  0.00     0.037 H 
ATOM     39  H6  LEU d   1      -0.970  -7.724   0.970  0.00  0.00     0.037 H 
BRANCH  37  40
ATOM     40  CG  LEU d   1      -1.871  -6.319   2.306  0.00  0.00    -0.059 C 
ATOM     41  H7  LEU d   1      -1.282  -5.471   1.927  0.00  0.00     0.038 H 
BRANCH  40  42
ATOM     42  CD1 LEU d   1      -3.190  -6.367   1.574  0.00  0.00    -0.073 C 
ATOM     43  H8  LEU d   1      -3.743  -5.433   1.753  0.00  0.00     0.028 H 
ATOM     44  H9  LEU d   1      -3.781  -7.219   1.940  0.00  0.00     0.028 H 
ATOM     45  H10 LEU d   1      -3.007  -6.484   0.496  0.00  0.00     0.028 H 
ENDBRANCH  40  42
BRANCH  40  46
ATOM     46  CD2 LEU d   1      -2.085  -6.144   3.807  0.00  0.00    -0.073 C 
ATOM     47  H11 LEU d   1      -1.110  -6.112   4.315  0.00  0.00     0.028 H 
ATOM     48  H12 LEU d   1      -2.673  -6.989   4.194  0.00  0.00     0.028 H 
ATOM     49  H13 LEU d   1      -2.626  -5.205   3.993  0.00  0.00     0.028 H 
ENDBRANCH  40  46
ENDBRANCH  37  40
ENDBRANCH  31  37
ENDBRANCH  28  31
ENDBRANCH  25  27
BRANCH  25  50
ATOM     50  CB  THR d   1       2.559 -11.333   0.401  0.00  0.00     0.060 C 
ATOM     51  H16 THR d   1       2.707 -12.423   0.374  0.00  0.00     0.086 H 
BRANCH  50  52
ATOM     52  OG1 THR d   1       3.839 -10.701   0.268  0.00  0.00    -0.393 OA
ATOM     53  H17 THR d   1       4.219 -10.932  -0.571  0.00  0.00     0.210 HD
ENDBRANCH  50  52
BRANCH  50  54
ATOM     54  CG2 THR d   1       1.625 -10.950  -0.765  0.00  0.00    -0.050 C 
ATOM     55  H18 THR d   1       2.097 -11.227  -1.719  0.00  0.00     0.031 H 
ATOM     56  H19 THR d   1       1.442  -9.865  -0.748  0.00  0.00     0.031 H 
ATOM     57  H20 THR d   1       0.669 -11.484  -0.660  0.00  0.00     0.031 H 
ENDBRANCH  50  54
ENDBRANCH  25  50
ENDBRANCH  22  25
ENDBRANCH  19  21
BRANCH  19  58
ATOM     58  CB  PHE d   1       4.155 -14.467   4.373  0.00  0.00    -0.014 C 
ATOM     59  H23 PHE d   1       4.153 -14.913   3.368  0.00  0.00     0.043 H 
ATOM     60  H24 PHE d   1       3.270 -14.812   4.929  0.00  0.00     0.043 H 
BRANCH  58  61
ATOM     61  CG  PHE d   1       5.393 -14.931   5.103  0.00  0.00    -0.056 A 
ATOM     62  CD1 PHE d   1       5.517 -14.728   6.482  0.00  0.00    -0.077 A 
ATOM     63  CE1 PHE d   1       6.704 -15.045   7.159  0.00  0.00    -0.082 A 
ATOM     64  H25 PHE d   1       4.681 -14.318   7.037  0.00  0.00     0.084 H 
ATOM     65  CZ  PHE d   1       7.784 -15.571   6.444  0.00  0.00    -0.083 A 
ATOM     66  H27 PHE d   1       6.783 -14.883   8.228  0.00  0.00     0.083 H 
ATOM     67  CE2 PHE d   1       7.667 -15.785   5.059  0.00  0.00    -0.082 A 
ATOM     68  H29 PHE d   1       8.709 -15.813   6.955  0.00  0.00     0.083 H 
ATOM     69  CD2 PHE d   1       6.474 -15.463   4.402  0.00  0.00    -0.077 A 
ATOM     70  H28 PHE d   1       8.499 -16.199   4.501  0.00  0.00     0.083 H 
ATOM     71  H26 PHE d   1       6.389 -15.630   3.334  0.00  0.00     0.084 H 
ENDBRANCH  58  61
ENDBRANCH  19  58
ENDBRANCH  16  19
ENDBRANCH  13  15
BRANCH  13  72
ATOM     72  CB  GLU d   1       7.571 -12.745   0.868  0.00  0.00    -0.029 C 
ATOM     73  H32 GLU d   1       8.510 -12.289   0.521  0.00  0.00     0.037 H 
ATOM     74  H33 GLU d   1       6.763 -12.502   0.162  0.00  0.00     0.037 H 
BRANCH  72  75
ATOM     75  CG  GLU d   1       7.748 -14.279   0.917  0.00  0.00     0.018 C 
ATOM     76  H34 GLU d   1       6.752 -14.742   0.971  0.00  0.00     0.049 H 
ATOM     77  H35 GLU d   1       8.320 -14.534   1.822  0.00  0.00     0.049 H 
BRANCH  75  78
ATOM     78  CD  GLU d   1       8.479 -14.852  -0.290  0.00  0.00     0.172 C 
ATOM     79  OE1 GLU d   1       7.915 -14.835  -1.410  0.00  0.00    -0.648 OA
ATOM     80  OE2 GLU d   1       9.629 -15.319  -0.115  0.00  0.00    -0.648 OA
ENDBRANCH  75  78
ENDBRANCH  72  75
ENDBRANCH  13  72
ENDBRANCH  10  13
ENDBRANCH   7   9
BRANCH   7  81
ATOM     81  CB  HIS d   1       5.001  -7.842   1.761  0.00  0.00     0.004 C 
ATOM     82  H38 HIS d   1       4.231  -8.311   2.390  0.00  0.00     0.046 H 
ATOM     83  H39 HIS d   1       4.791  -8.056   0.703  0.00  0.00     0.046 H 
BRANCH  81  84
ATOM     84  CG  HIS d   1       4.938  -6.360   1.964  0.00  0.00     0.053 A 
ATOM     85  ND1 HIS d   1       5.436  -5.459   1.047  0.00  0.00    -0.247 NA
ATOM     86  CE1 HIS d   1       5.287  -4.231   1.511  0.00  0.00     0.064 A 
ATOM     87  NE2 HIS d   1       4.709  -4.301   2.697  0.00  0.00    -0.359 N 
ATOM     88  H41 HIS d   1       5.589  -3.317   1.002  0.00  0.00     0.143 H 
ATOM     89  CD2 HIS d   1       4.478  -5.621   3.002  0.00  0.00     0.002 A 
ATOM     90  H42 HIS d   1       4.470  -3.497   3.295  0.00  0.00     0.166 HD
ATOM     91  H40 HIS d   1       4.012  -6.002   3.909  0.00  0.00     0.114 H 
ENDBRANCH  81  84
ENDBRANCH   7  81
ENDBRANCH   4   7
ENDBRANCH   1   3
BRANCH   1  92
ATOM     92  C   TRP d   1       7.599  -8.781   6.376  0.00  0.00     0.241 C 
ATOM     93  O   TRP d   1       8.335  -8.058   7.034  0.00  0.00    -0.271 OA
ATOM     94  N   TRP d   1       7.949 -10.009   5.999  0.00  0.00    -0.346 N 
ATOM     95  H53 TRP d   1       7.316 -10.547   5.442  0.00  0.00     0.163 HD
BRANCH  94  96
ATOM     96  CA  TRP d   1       9.232 -10.589   6.377  0.00  0.00     0.093 C 
ATOM     97  H54 TRP d   1       9.296 -10.581   7.475  0.00  0.00     0.088 H 
BRANCH  96  98
ATOM     98  C   TRP d   1      10.419  -9.792   5.830  0.00  0.00     0.241 C 
ATOM     99  O   TRP d   1      11.442  -9.628   6.513  0.00  0.00    -0.271 OA
ATOM    100  N   ALA d   1      10.285  -9.297   4.600  0.00  0.00    -0.346 N 
ATOM    101  H63 ALA d   1       9.439  -9.465   4.094  0.00  0.00     0.163 HD
BRANCH 100 102
ATOM    102  CA  ALA d   1      11.345  -8.516   3.978  0.00  0.00     0.086 C 
ATOM    103  H64 ALA d   1      12.261  -9.124   3.989  0.00  0.00     0.086 H 
BRANCH 102 104
ATOM    104  C   ALA d   1      11.640  -7.210   4.731  0.00  0.00     0.240 C 
ATOM    105  O   ALA d   1      12.742  -6.682   4.630  0.00  0.00    -0.271 OA
ATOM    106  N   GLN d   1      10.674  -6.709   5.501  0.00  0.00    -0.346 N 
ATOM    107  H68 GLN d   1       9.798  -7.187   5.571  0.00  0.00     0.163 HD
BRANCH 106 108
ATOM    108  CA  GLN d   1      10.884  -5.457   6.251  0.00  0.00     0.090 C 
ATOM    109  H69 GLN d   1      11.290  -4.719   5.544  0.00  0.00     0.087 H 
BRANCH 108 110
ATOM    110  C   GLN d   1      11.873  -5.585   7.409  0.00  0.00     0.241 C 
ATOM    111  O   GLN d   1      12.422  -4.586   7.872  0.00  0.00    -0.271 OA
ATOM    112  N   LEU d   1      12.097  -6.805   7.885  0.00  0.00    -0.346 N 
ATOM    113  H76 LEU d   1      11.620  -7.588   7.486  0.00  0.00     0.163 HD
BRANCH 112 114
ATOM    114  CA  LEU d   1      13.028  -7.012   8.980  0.00  0.00     0.089 C 
ATOM    115  H77 LEU d   1      12.748  -6.326   9.793  0.00  0.00     0.087 H 
BRANCH 114 116
ATOM    116  C   LEU d   1      14.466  -6.719   8.584  0.00  0.00     0.241 C 
ATOM    117  O   LEU d   1      15.294  -6.377   9.428  0.00  0.00    -0.271 OA
ATOM    118  N   THR d   1      14.763  -6.862   7.298  0.00  0.00    -0.344 N 
ATOM    119  H87 THR d   1      14.042  -7.130   6.659  0.00  0.00     0.163 HD
BRANCH 118 120
ATOM    120  CA  THR d   1      16.115  -6.638   6.793  0.00  0.00     0.113 C 
ATOM    121  H88 THR d   1      16.788  -6.511   7.654  0.00  0.00     0.091 H 
BRANCH 120 122
ATOM    122  C   THR d   1      16.204  -5.388   5.914  0.00  0.00     0.243 C 
ATOM    123  O   THR d   1      15.377  -5.193   5.022  0.00  0.00    -0.271 OA
ATOM    124  N   SER d   1      17.207  -4.549   6.164  0.00  0.00    -0.343 N 
ATOM    125  H94 SER d   1      17.846  -4.763   6.903  0.00  0.00     0.163 HD
BRANCH 124 126
ATOM    126  CA  SER d   1      17.402  -3.321   5.387  0.00  0.00     0.116 C 
ATOM    127  H95 SER d   1      16.413  -2.932   5.102  0.00  0.00     0.093 H 
BRANCH 126 128
ATOM    128  C   SER d   1      18.207  -3.586   4.117  0.00  0.00     0.198 C 
ATOM    129  O   SER d   1      18.535  -4.767   3.859  0.00  0.00    -0.646 OA
ATOM    130  OXT SER d   1      18.506  -2.607   3.396  0.00  0.00    -0.646 OA
ENDBRANCH 126 128
BRANCH 126 131
ATOM    131  CB  SER d   1      18.127  -2.260   6.222  0.00  0.00     0.045 C 
ATOM    132  H96 SER d   1      18.272  -1.360   5.607  0.00  0.00     0.077 H 
ATOM    133  H97 SER d   1      19.106  -2.656   6.529  0.00  0.00     0.077 H 
BRANCH 131 134
ATOM    134  OG  SER d   1      17.389  -1.911   7.380  0.00  0.00    -0.398 OA
ATOM    135  H98 SER d   1      17.866  -1.253   7.872  0.00  0.00     0.209 HD
ENDBRANCH 131 134
ENDBRANCH 126 131
ENDBRANCH 124 126
ENDBRANCH 120 122
BRANCH 120 136
ATOM    136  CB  THR d   1      16.586  -7.847   5.962  0.00  0.00     0.060 C 
ATOM    137  H89 THR d   1      17.591  -7.645   5.564  0.00  0.00     0.086 H 
BRANCH 136 138
ATOM    138  OG1 THR d   1      15.672  -8.059   4.880  0.00  0.00    -0.393 OA
ATOM    139  H90 THR d   1      15.648  -7.284   4.331  0.00  0.00     0.210 HD
ENDBRANCH 136 138
BRANCH 136 140
ATOM    140  CG2 THR d   1      16.623  -9.092   6.810  0.00  0.00    -0.050 C 
ATOM    141  H91 THR d   1      16.961  -9.942   6.199  0.00  0.00     0.031 H 
ATOM    142  H92 THR d   1      15.616  -9.299   7.201  0.00  0.00     0.031 H 
ATOM    143  H93 THR d   1      17.319  -8.944   7.649  0.00  0.00     0.031 H 
ENDBRANCH 136 140
ENDBRANCH 120 136
ENDBRANCH 118 120
ENDBRANCH 114 116
BRANCH 114 144
ATOM    144  CB  LEU d   1      12.946  -8.449   9.504  0.00  0.00    -0.035 C 
ATOM    145  H78 LEU d   1      13.886  -8.674  10.028  0.00  0.00     0.037 H 
ATOM    146  H79 LEU d   1      12.838  -9.121   8.640  0.00  0.00     0.037 H 
BRANCH 144 147
ATOM    147  CG  LEU d   1      11.797  -8.725  10.460  0.00  0.00    -0.059 C 
ATOM    148  H80 LEU d   1      11.598  -7.821  11.055  0.00  0.00     0.038 H 
BRANCH 147 149
ATOM    149  CD1 LEU d   1      10.547  -9.072   9.665  0.00  0.00    -0.073 C 
ATOM    150  H81 LEU d   1       9.716  -9.272  10.357  0.00  0.00     0.028 H 
ATOM    151  H82 LEU d   1      10.738  -9.966   9.054  0.00  0.00     0.028 H 
ATOM    152  H83 LEU d   1      10.284  -8.229   9.009  0.00  0.00     0.028 H 
ENDBRANCH 147 149
BRANCH 147 153
ATOM    153  CD2 LEU d   1      12.181  -9.854  11.401  0.00  0.00    -0.073 C 
ATOM    154  H84 LEU d   1      13.086  -9.574  11.960  0.00  0.00     0.028 H 
ATOM    155  H85 LEU d   1      12.378 -10.766  10.818  0.00  0.00     0.028 H 
ATOM    156  H86 LEU d   1      11.357 -10.040  12.106  0.00  0.00     0.028 H 
ENDBRANCH 147 153
ENDBRANCH 144 147
ENDBRANCH 114 144
ENDBRANCH 112 114
ENDBRANCH 108 110
BRANCH 108 157
ATOM    157  CB  GLN d   1       9.564  -4.917   6.803  0.00  0.00    -0.030 C 
ATOM    158  H70 GLN d   1       9.761  -3.955   7.298  0.00  0.00     0.037 H 
ATOM    159  H71 GLN d   1       9.175  -5.636   7.539  0.00  0.00     0.037 H 
BRANCH 157 160
ATOM    160  CG  GLN d   1       8.509  -4.701   5.740  0.00  0.00     0.011 C 
ATOM    161  H72 GLN d   1       8.228  -5.678   5.320  0.00  0.00     0.047 H 
ATOM    162  H73 GLN d   1       8.934  -4.069   4.946  0.00  0.00     0.047 H 
BRANCH 160 163
ATOM    163  CD  GLN d   1       7.258  -4.027   6.278  0.00  0.00     0.215 C 
ATOM    164  OE1 GLN d   1       6.808  -4.309   7.398  0.00  0.00    -0.274 OA
ATOM    165  NE2 GLN d   1       6.677  -3.137   5.474  0.00  0.00    -0.370 N 
ATOM    166  H74 GLN d   1       5.850  -2.660   5.771  0.00  0.00     0.159 HD
ATOM    167  H75 GLN d   1       7.068  -2.947   4.574  0.00  0.00     0.159 HD
ENDBRANCH 160 163
ENDBRANCH 157 160
ENDBRANCH 108 157
ENDBRANCH 106 108
ENDBRANCH 102 104
BRANCH 102 168
ATOM    168  CB  ALA d   1      10.987  -8.215   2.529  0.00  0.00    -0.049 C 
ATOM    169  H65 ALA d   1      11.793  -7.625   2.067  0.00  0.00     0.030 H 
ATOM    170  H66 ALA d   1      10.048  -7.643   2.494  0.00  0.00     0.030 H 
ATOM    171  H67 ALA d   1      10.862  -9.159   1.978  0.00  0.00     0.030 H 
ENDBRANCH 102 168
ENDBRANCH 100 102
ENDBRANCH  96  98
BRANCH  96 172
ATOM    172  CB  TRP d   1       9.311 -12.047   5.898  0.00  0.00    -0.012 C 
ATOM    173  H55 TRP d   1       9.431 -12.050   4.804  0.00  0.00     0.044 H 
ATOM    174  H56 TRP d   1       8.373 -12.555   6.165  0.00  0.00     0.044 H 
BRANCH 172 175
ATOM    175  CG  TRP d   1      10.461 -12.811   6.509  0.00  0.00    -0.028 A 
ATOM    176  CD1 TRP d   1      11.691 -13.043   5.953  0.00  0.00    -0.015 A 
ATOM    177  NE1 TRP d   1      12.502 -13.693   6.855  0.00  0.00    -0.365 N 
ATOM    178  H57 TRP d   1      11.984 -12.755   4.944  0.00  0.00     0.112 H 
ATOM    179  CE2 TRP d   1      11.801 -13.895   8.014  0.00  0.00     0.042 A 
ATOM    180  H58 TRP d   1      13.476 -13.980   6.686  0.00  0.00     0.165 HD
ATOM    181  CD2 TRP d   1      10.510 -13.355   7.833  0.00  0.00    -0.002 A 
ATOM    182  CZ2 TRP d   1      12.195 -14.504   9.210  0.00  0.00    -0.056 A 
ATOM    183  CE3 TRP d   1       9.584 -13.438   8.885  0.00  0.00    -0.070 A 
ATOM    184  CZ3 TRP d   1       9.981 -14.052  10.081  0.00  0.00    -0.082 A 
ATOM    185  H59 TRP d   1       8.583 -13.036   8.775  0.00  0.00     0.084 H 
ATOM    186  CH2 TRP d   1      11.275 -14.574  10.226  0.00  0.00    -0.081 A 
ATOM    187  H61 TRP d   1       9.279 -14.124  10.904  0.00  0.00     0.083 H 
ATOM    188  H62 TRP d   1      11.555 -15.043  11.162  0.00  0.00     0.083 H 
ATOM    189  H60 TRP d   1      13.194 -14.907   9.330  0.00  0.00     0.086 H 
ENDBRANCH 172 175
ENDBRANCH  96 172
ENDBRANCH  94  96
ENDBRANCH   1  92
BRANCH   1 190
ATOM    190  CB  TRP d   1       5.138  -8.949   6.807  0.00  0.00    -0.012 C 
ATOM    191  H45 TRP d   1       5.391  -8.777   7.864  0.00  0.00     0.044 H 
ATOM    192  H46 TRP d   1       5.136 -10.030   6.601  0.00  0.00     0.044 H 
BRANCH 190 193
ATOM    193  CG  TRP d   1       3.756  -8.414   6.555  0.00  0.00    -0.028 A 
ATOM    194  CD1 TRP d   1       2.649  -9.127   6.183  0.00  0.00    -0.015 A 
ATOM    195  NE1 TRP d   1       1.572  -8.283   6.018  0.00  0.00    -0.365 N 
ATOM    196  H47 TRP d   1       2.623 -10.206   6.038  0.00  0.00     0.112 H 
ATOM    197  CE2 TRP d   1       1.972  -6.999   6.286  0.00  0.00     0.042 A 
ATOM    198  H48 TRP d   1       0.623  -8.570   5.739  0.00  0.00     0.165 HD
ATOM    199  CD2 TRP d   1       3.343  -7.044   6.629  0.00  0.00    -0.002 A 
ATOM    200  CZ2 TRP d   1       1.247  -5.803   6.249  0.00  0.00    -0.056 A 
ATOM    201  CE3 TRP d   1       4.001  -5.848   6.954  0.00  0.00    -0.070 A 
ATOM    202  CZ3 TRP d   1       3.283  -4.661   6.918  0.00  0.00    -0.082 A 
ATOM    203  H49 TRP d   1       5.050  -5.851   7.228  0.00  0.00     0.084 H 
ATOM    204  CH2 TRP d   1       1.915  -4.649   6.568  0.00  0.00    -0.081 A 
ATOM    205  H51 TRP d   1       3.780  -3.729   7.162  0.00  0.00     0.083 H 
ATOM    206  H52 TRP d   1       1.381  -3.706   6.551  0.00  0.00     0.083 H 
ATOM    207  H50 TRP d   1       0.197  -5.789   5.979  0.00  0.00     0.086 H 
ENDBRANCH 190 193
ENDBRANCH   1 190
TORSDOF 55
