REMARK WARNING: 32 MAX_TORS EXCEEDED!!!
REMARK  56 active torsions:
REMARK  status: ('A' for Active; 'I' for Inactive)
REMARK    1  A    between atoms: N_1  and  CA_2 
REMARK    2  A    between atoms: CA_2  and  C_3 
REMARK    3  A    between atoms: CA_2  and  CB_5 
REMARK       I    between atoms: C_3  and  N_10 
REMARK    4  A    between atoms: CB_5  and  CG_6 
REMARK    5  A    between atoms: CG_6  and  CD_7 
REMARK    6  A    between atoms: N_10  and  CA_11 
REMARK    7  A    between atoms: CA_11  and  C_12 
REMARK    8  A    between atoms: CA_11  and  CB_14 
REMARK       I    between atoms: C_12  and  N_17 
REMARK    9  A    between atoms: CB_14  and  OG1_15 
REMARK   10  A    between atoms: CB_14  and  CG2_16 
REMARK   11  A    between atoms: N_17  and  CA_18 
REMARK   12  A    between atoms: CA_18  and  C_19 
REMARK   13  A    between atoms: CA_18  and  CB_21 
REMARK       I    between atoms: C_19  and  N_28 
REMARK   14  A    between atoms: CB_21  and  CG_22 
REMARK   15  A    between atoms: N_28  and  CA_29 
REMARK   16  A    between atoms: CA_29  and  C_30 
REMARK   17  A    between atoms: CA_29  and  CB_32 
REMARK       I    between atoms: C_30  and  N_37 
REMARK   18  A    between atoms: CB_32  and  CG_33 
REMARK   19  A    between atoms: CG_33  and  CD_34 
REMARK   20  A    between atoms: N_37  and  CA_38 
REMARK   21  A    between atoms: CA_38  and  C_39 
REMARK   22  A    between atoms: CA_38  and  CB_41 
REMARK       I    between atoms: C_39  and  N_47 
REMARK   23  A    between atoms: CB_41  and  CG_42 
REMARK   24  A    between atoms: N_47  and  CA_48 
REMARK   25  A    between atoms: CA_48  and  C_49 
REMARK   26  A    between atoms: CA_48  and  CB_51 
REMARK       I    between atoms: C_49  and  N_61 
REMARK   27  A    between atoms: CB_51  and  CG_52 
REMARK   28  A    between atoms: N_61  and  CA_62 
REMARK   29  A    between atoms: CA_62  and  C_63 
REMARK   30  A    between atoms: CA_62  and  CB_65 
REMARK       I    between atoms: C_63  and  N_75 
REMARK   31  A    between atoms: CB_65  and  CG_66 
REMARK   32  A    between atoms: N_75  and  CA_76 
REMARK   33  A    between atoms: CA_76  and  C_77 
REMARK   34  A    between atoms: CA_76  and  CB_79 
REMARK       I    between atoms: C_77  and  N_81 
REMARK   35  A    between atoms: CB_79  and  OG_80 
REMARK   36  A    between atoms: N_81  and  CA_82 
REMARK   37  A    between atoms: CA_82  and  C_83 
REMARK   38  A    between atoms: CA_82  and  CB_85 
REMARK       I    between atoms: C_83  and  N_90 
REMARK   39  A    between atoms: CB_85  and  CG_86 
REMARK   40  A    between atoms: CG_86  and  CD_87 
REMARK       I    between atoms: CD_87  and  NE2_89 
REMARK   41  A    between atoms: N_90  and  CA_91 
REMARK   42  A    between atoms: CA_91  and  C_92 
REMARK   43  A    between atoms: CA_91  and  CB_94 
REMARK       I    between atoms: C_92  and  N_98 
REMARK   44  A    between atoms: CB_94  and  CG_95 
REMARK   45  A    between atoms: CG_95  and  CD1_96 
REMARK   46  A    between atoms: CG_95  and  CD2_97 
REMARK   47  A    between atoms: N_98  and  CA_99 
REMARK   48  A    between atoms: CA_99  and  C_100 
REMARK   49  A    between atoms: CA_99  and  CB_102 
REMARK       I    between atoms: C_100  and  N_106 
REMARK   50  A    between atoms: CB_102  and  CG_103 
REMARK   51  A    between atoms: CG_103  and  CD1_104 
REMARK   52  A    between atoms: CG_103  and  CD2_105 
REMARK   53  A    between atoms: N_106  and  CA_107 
REMARK   54  A    between atoms: CA_107  and  C_108 
REMARK   55  A    between atoms: CA_107  and  CB_110 
REMARK   56  A    between atoms: CB_110  and  OG_111 
ROOT
ATOM      1  CA  TRP d   1     -15.742   3.560   2.943  0.00  0.00     0.093 C 
ATOM      2  H39 TRP d   1     -16.401   3.832   3.781  0.00  0.00     0.088 H 
ENDROOT
BRANCH   1   3
ATOM      3  N   TRP d   1     -15.449   2.137   3.035  0.00  0.00    -0.346 N 
ATOM      4  C   HIS d   1     -16.467   1.269   2.978  0.00  0.00     0.241 C 
ATOM      5  O   HIS d   1     -17.652   1.645   2.900  0.00  0.00    -0.271 OA
ATOM      6  H38 TRP d   1     -14.508   1.815   3.139  0.00  0.00     0.163 HD
BRANCH   4   7
ATOM      7  CA  HIS d   1     -16.122  -0.223   3.038  0.00  0.00     0.094 C 
ATOM      8  H32 HIS d   1     -17.035  -0.809   2.853  0.00  0.00     0.088 H 
BRANCH   7   9
ATOM      9  N   HIS d   1     -15.132  -0.562   1.997  0.00  0.00    -0.346 N 
ATOM     10  C   GLU d   1     -15.392  -0.374   0.707  0.00  0.00     0.241 C 
ATOM     11  O   GLU d   1     -16.485   0.031   0.320  0.00  0.00    -0.271 OA
ATOM     12  H31 HIS d   1     -14.247  -0.941   2.268  0.00  0.00     0.163 HD
BRANCH  10  13
ATOM     13  CA  GLU d   1     -14.292  -0.715  -0.305  0.00  0.00     0.090 C 
ATOM     14  H26 GLU d   1     -14.508  -0.172  -1.237  0.00  0.00     0.087 H 
BRANCH  13  15
ATOM     15  N   GLU d   1     -12.978  -0.295   0.168  0.00  0.00    -0.346 N 
ATOM     16  C   PHE d   1     -12.735   0.967   0.536  0.00  0.00     0.241 C 
ATOM     17  O   PHE d   1     -13.578   1.862   0.461  0.00  0.00    -0.271 OA
ATOM     18  H25 GLU d   1     -12.240  -0.968   0.218  0.00  0.00     0.163 HD
BRANCH  16  19
ATOM     19  CA  PHE d   1     -11.311   1.267   1.030  0.00  0.00     0.093 C 
ATOM     20  H17 PHE d   1     -11.294   2.252   1.519  0.00  0.00     0.088 H 
BRANCH  19  21
ATOM     21  N   PHE d   1     -10.920   0.244   2.003  0.00  0.00    -0.346 N 
ATOM     22  C   THR d   1     -11.638   0.081   3.117  0.00  0.00     0.243 C 
ATOM     23  O   THR d   1     -12.624   0.721   3.375  0.00  0.00    -0.271 OA
ATOM     24  H16 PHE d   1     -10.119  -0.330   1.834  0.00  0.00     0.163 HD
BRANCH  22  25
ATOM     25  CA  THR d   1     -11.174  -0.976   4.079  0.00  0.00     0.113 C 
ATOM     26  H10 THR d   1     -10.085  -0.880   4.205  0.00  0.00     0.091 H 
BRANCH  25  27
ATOM     27  N   THR d   1     -11.793  -0.857   5.401  0.00  0.00    -0.344 N 
ATOM     28  C   GLU d   1     -11.403   0.040   6.287  0.00  0.00     0.249 C 
ATOM     29  O   GLU d   1     -10.531   0.873   6.056  0.00  0.00    -0.271 OA
ATOM     30  H9  THR d   1     -12.539  -1.478   5.641  0.00  0.00     0.163 HD
BRANCH  28  31
ATOM     31  CA  GLU d   1     -12.120   0.010   7.632  0.00  0.00     0.176 C 
ATOM     32  H4  GLU d   1     -12.277  -1.045   7.901  0.00  0.00     0.099 H 
BRANCH  31  33
ATOM     33  N   GLU d   1     -11.336   0.657   8.738  0.00  0.00    -0.066 N 
ATOM     34  H1  GLU d   1     -11.861   0.605   9.597  0.00  0.00     0.275 HD
ATOM     35  H2  GLU d   1     -11.164   1.623   8.507  0.00  0.00     0.275 HD
ATOM     36  H3  GLU d   1     -10.457   0.177   8.852  0.00  0.00     0.275 HD
ENDBRANCH  31  33
BRANCH  31  37
ATOM     37  CB  GLU d   1     -13.479   0.687   7.530  0.00  0.00    -0.021 C 
ATOM     38  H5  GLU d   1     -14.056   0.204   6.727  0.00  0.00     0.037 H 
ATOM     39  H6  GLU d   1     -13.328   1.749   7.285  0.00  0.00     0.037 H 
BRANCH  37  40
ATOM     40  CG  GLU d   1     -14.263   0.592   8.816  0.00  0.00     0.018 C 
ATOM     41  H7  GLU d   1     -15.302   0.901   8.628  0.00  0.00     0.049 H 
ATOM     42  H8  GLU d   1     -13.811   1.261   9.563  0.00  0.00     0.049 H 
BRANCH  40  43
ATOM     43  CD  GLU d   1     -14.257  -0.820   9.350  0.00  0.00     0.172 C 
ATOM     44  OE1 GLU d   1     -13.217  -1.223   9.939  0.00  0.00    -0.648 OA
ATOM     45  OE2 GLU d   1     -15.273  -1.542   9.157  0.00  0.00    -0.648 OA
ENDBRANCH  40  43
ENDBRANCH  37  40
ENDBRANCH  31  37
ENDBRANCH  28  31
ENDBRANCH  25  27
BRANCH  25  46
ATOM     46  CB  THR d   1     -11.481  -2.327   3.462  0.00  0.00     0.060 C 
ATOM     47  H11 THR d   1     -10.900  -2.453   2.537  0.00  0.00     0.086 H 
BRANCH  46  48
ATOM     48  OG1 THR d   1     -12.888  -2.415   3.167  0.00  0.00    -0.393 OA
ATOM     49  H12 THR d   1     -13.077  -3.262   2.781  0.00  0.00     0.210 HD
ENDBRANCH  46  48
BRANCH  46  50
ATOM     50  CG2 THR d   1     -11.117  -3.405   4.444  0.00  0.00    -0.050 C 
ATOM     51  H13 THR d   1     -11.336  -4.390   4.005  0.00  0.00     0.031 H 
ATOM     52  H14 THR d   1     -11.704  -3.275   5.365  0.00  0.00     0.031 H 
ATOM     53  H15 THR d   1     -10.045  -3.339   4.680  0.00  0.00     0.031 H 
ENDBRANCH  46  50
ENDBRANCH  25  46
ENDBRANCH  22  25
ENDBRANCH  19  21
BRANCH  19  54
ATOM     54  CB  PHE d   1     -10.355   1.289  -0.162  0.00  0.00    -0.014 C 
ATOM     55  H18 PHE d   1     -10.217   0.259  -0.523  0.00  0.00     0.043 H 
ATOM     56  H19 PHE d   1      -9.387   1.695   0.168  0.00  0.00     0.043 H 
BRANCH  54  57
ATOM     57  CG  PHE d   1     -10.858   2.111  -1.265  0.00  0.00    -0.056 A 
ATOM     58  CD1 PHE d   1     -10.851   3.504  -1.168  0.00  0.00    -0.077 A 
ATOM     59  CE1 PHE d   1     -11.482   4.285  -2.112  0.00  0.00    -0.082 A 
ATOM     60  H20 PHE d   1     -10.341   3.978  -0.337  0.00  0.00     0.084 H 
ATOM     61  CZ  PHE d   1     -12.131   3.691  -3.173  0.00  0.00    -0.083 A 
ATOM     62  H22 PHE d   1     -11.468   5.365  -2.020  0.00  0.00     0.083 H 
ATOM     63  CE2 PHE d   1     -12.136   2.278  -3.302  0.00  0.00    -0.082 A 
ATOM     64  H24 PHE d   1     -12.638   4.304  -3.909  0.00  0.00     0.083 H 
ATOM     65  CD2 PHE d   1     -11.493   1.506  -2.334  0.00  0.00    -0.077 A 
ATOM     66  H23 PHE d   1     -12.633   1.805  -4.141  0.00  0.00     0.083 H 
ATOM     67  H21 PHE d   1     -11.491   0.425  -2.420  0.00  0.00     0.084 H 
ENDBRANCH  54  57
ENDBRANCH  19  54
ENDBRANCH  16  19
ENDBRANCH  13  15
BRANCH  13  68
ATOM     68  CB  GLU d   1     -14.293  -2.224  -0.615  0.00  0.00    -0.029 C 
ATOM     69  H27 GLU d   1     -15.336  -2.574  -0.623  0.00  0.00     0.037 H 
ATOM     70  H28 GLU d   1     -13.739  -2.740   0.182  0.00  0.00     0.037 H 
BRANCH  68  71
ATOM     71  CG  GLU d   1     -13.647  -2.593  -1.973  0.00  0.00     0.018 C 
ATOM     72  H29 GLU d   1     -12.807  -1.907  -2.158  0.00  0.00     0.049 H 
ATOM     73  H30 GLU d   1     -14.402  -2.470  -2.763  0.00  0.00     0.049 H 
BRANCH  71  74
ATOM     74  CD  GLU d   1     -13.105  -4.070  -2.027  0.00  0.00     0.172 C 
ATOM     75  OE1 GLU d   1     -11.879  -4.245  -2.157  0.00  0.00    -0.648 OA
ATOM     76  OE2 GLU d   1     -13.886  -5.046  -1.926  0.00  0.00    -0.648 OA
ENDBRANCH  71  74
ENDBRANCH  68  71
ENDBRANCH  13  68
ENDBRANCH  10  13
ENDBRANCH   7   9
BRANCH   7  77
ATOM     77  CB  HIS d   1     -15.599  -0.554   4.449  0.00  0.00     0.004 C 
ATOM     78  H33 HIS d   1     -14.556  -0.213   4.519  0.00  0.00     0.046 H 
ATOM     79  H34 HIS d   1     -15.638  -1.645   4.584  0.00  0.00     0.046 H 
BRANCH  77  80
ATOM     80  CG  HIS d   1     -16.383   0.089   5.564  0.00  0.00     0.053 A 
ATOM     81  ND1 HIS d   1     -17.537  -0.460   6.082  0.00  0.00    -0.247 NA
ATOM     82  CE1 HIS d   1     -18.024   0.335   7.020  0.00  0.00     0.064 A 
ATOM     83  NE2 HIS d   1     -17.228   1.382   7.134  0.00  0.00    -0.359 N 
ATOM     84  H36 HIS d   1     -18.928   0.156   7.600  0.00  0.00     0.143 H 
ATOM     85  CD2 HIS d   1     -16.193   1.252   6.236  0.00  0.00     0.002 A 
ATOM     86  H37 HIS d   1     -17.360   2.167   7.787  0.00  0.00     0.166 HD
ATOM     87  H35 HIS d   1     -15.373   1.954   6.092  0.00  0.00     0.114 H 
ENDBRANCH  77  80
ENDBRANCH   7  77
ENDBRANCH   4   7
ENDBRANCH   1   3
BRANCH   1  88
ATOM     88  C   TRP d   1     -16.451   3.938   1.609  0.00  0.00     0.241 C 
ATOM     89  O   TRP d   1     -17.385   4.719   1.583  0.00  0.00    -0.271 OA
ATOM     90  N   TRP d   1     -15.988   3.362   0.517  0.00  0.00    -0.346 N 
ATOM     91  H48 TRP d   1     -15.265   2.673   0.570  0.00  0.00     0.163 HD
BRANCH  90  92
ATOM     92  CA  TRP d   1     -16.542   3.744  -0.747  0.00  0.00     0.093 C 
ATOM     93  H49 TRP d   1     -16.538   4.843  -0.792  0.00  0.00     0.088 H 
BRANCH  92  94
ATOM     94  C   TRP d   1     -17.977   3.294  -0.892  0.00  0.00     0.241 C 
ATOM     95  O   TRP d   1     -18.824   4.057  -1.396  0.00  0.00    -0.271 OA
ATOM     96  N   SER d   1     -18.276   2.087  -0.409  0.00  0.00    -0.344 N 
ATOM     97  H58 SER d   1     -17.567   1.547   0.044  0.00  0.00     0.163 HD
BRANCH  96  98
ATOM     98  CA  SER d   1     -19.637   1.539  -0.535  0.00  0.00     0.109 C 
ATOM     99  H59 SER d   1     -19.890   1.464  -1.603  0.00  0.00     0.090 H 
BRANCH  98 100
ATOM    100  C   SER d   1     -20.651   2.482   0.137  0.00  0.00     0.243 C 
ATOM    101  O   SER d   1     -21.835   2.536  -0.246  0.00  0.00    -0.271 OA
ATOM    102  N   GLN d   1     -20.211   3.253   1.130  0.00  0.00    -0.346 N 
ATOM    103  H63 GLN d   1     -19.263   3.186   1.442  0.00  0.00     0.163 HD
BRANCH 102 104
ATOM    104  CA  GLN d   1     -21.132   4.196   1.755  0.00  0.00     0.090 C 
ATOM    105  H64 GLN d   1     -22.009   3.629   2.101  0.00  0.00     0.087 H 
BRANCH 104 106
ATOM    106  C   GLN d   1     -21.610   5.246   0.775  0.00  0.00     0.241 C 
ATOM    107  O   GLN d   1     -22.735   5.749   0.893  0.00  0.00    -0.271 OA
ATOM    108  N   LEU d   1     -20.773   5.612  -0.208  0.00  0.00    -0.346 N 
ATOM    109  H71 LEU d   1     -19.858   5.213  -0.263  0.00  0.00     0.163 HD
BRANCH 108 110
ATOM    110  CA  LEU d   1     -21.208   6.601  -1.202  0.00  0.00     0.089 C 
ATOM    111  H72 LEU d   1     -21.612   7.478  -0.675  0.00  0.00     0.087 H 
BRANCH 110 112
ATOM    112  C   LEU d   1     -22.278   6.031  -2.122  0.00  0.00     0.241 C 
ATOM    113  O   LEU d   1     -22.909   6.783  -2.862  0.00  0.00    -0.271 OA
ATOM    114  N   LEU d   1     -22.478   4.708  -2.094  0.00  0.00    -0.346 N 
ATOM    115  H82 LEU d   1     -21.952   4.143  -1.458  0.00  0.00     0.163 HD
BRANCH 114 116
ATOM    116  CA  LEU d   1     -23.458   4.075  -2.982  0.00  0.00     0.089 C 
ATOM    117  H83 LEU d   1     -23.720   4.792  -3.774  0.00  0.00     0.087 H 
BRANCH 116 118
ATOM    118  C   LEU d   1     -24.738   3.711  -2.224  0.00  0.00     0.241 C 
ATOM    119  O   LEU d   1     -25.669   3.093  -2.764  0.00  0.00    -0.271 OA
ATOM    120  N   SER d   1     -24.731   4.080  -0.948  0.00  0.00    -0.343 N 
ATOM    121  H93 SER d   1     -23.912   4.545  -0.612  0.00  0.00     0.163 HD
BRANCH 120 122
ATOM    122  CA  SER d   1     -25.804   3.868  -0.003  0.00  0.00     0.116 C 
ATOM    123  H94 SER d   1     -26.310   2.917  -0.225  0.00  0.00     0.093 H 
BRANCH 122 124
ATOM    124  C   SER d   1     -26.809   5.022  -0.086  0.00  0.00     0.198 C 
ATOM    125  O   SER d   1     -26.604   5.995  -0.859  0.00  0.00    -0.646 OA
ATOM    126  OXT SER d   1     -27.795   4.940   0.668  0.00  0.00    -0.646 OA
ENDBRANCH 122 124
BRANCH 122 127
ATOM    127  CB  SER d   1     -25.224   3.834   1.416  0.00  0.00     0.045 C 
ATOM    128  H95 SER d   1     -24.609   4.731   1.578  0.00  0.00     0.077 H 
ATOM    129  H96 SER d   1     -24.600   2.936   1.532  0.00  0.00     0.077 H 
BRANCH 127 130
ATOM    130  OG  SER d   1     -26.254   3.804   2.360  0.00  0.00    -0.398 OA
ATOM    131  H97 SER d   1     -25.881   3.783   3.233  0.00  0.00     0.209 HD
ENDBRANCH 127 130
ENDBRANCH 122 127
ENDBRANCH 120 122
ENDBRANCH 116 118
BRANCH 116 132
ATOM    132  CB  LEU d   1     -22.838   2.816  -3.646  0.00  0.00    -0.035 C 
ATOM    133  H84 LEU d   1     -23.554   2.451  -4.397  0.00  0.00     0.037 H 
ATOM    134  H85 LEU d   1     -22.711   2.056  -2.861  0.00  0.00     0.037 H 
BRANCH 132 135
ATOM    135  CG  LEU d   1     -21.491   2.987  -4.342  0.00  0.00    -0.059 C 
ATOM    136  H86 LEU d   1     -20.763   3.382  -3.619  0.00  0.00     0.038 H 
BRANCH 135 137
ATOM    137  CD1 LEU d   1     -20.979   1.645  -4.891  0.00  0.00    -0.073 C 
ATOM    138  H87 LEU d   1     -20.009   1.798  -5.386  0.00  0.00     0.028 H 
ATOM    139  H88 LEU d   1     -21.703   1.246  -5.617  0.00  0.00     0.028 H 
ATOM    140  H89 LEU d   1     -20.859   0.931  -4.062  0.00  0.00     0.028 H 
ENDBRANCH 135 137
BRANCH 135 141
ATOM    141  CD2 LEU d   1     -21.631   3.948  -5.485  0.00  0.00    -0.073 C 
ATOM    142  H90 LEU d   1     -21.997   4.915  -5.109  0.00  0.00     0.028 H 
ATOM    143  H91 LEU d   1     -22.346   3.545  -6.217  0.00  0.00     0.028 H 
ATOM    144  H92 LEU d   1     -20.653   4.089  -5.967  0.00  0.00     0.028 H 
ENDBRANCH 135 141
ENDBRANCH 132 135
ENDBRANCH 116 132
ENDBRANCH 114 116
ENDBRANCH 110 112
BRANCH 110 145
ATOM    145  CB  LEU d   1     -20.026   7.031  -2.076  0.00  0.00    -0.035 C 
ATOM    146  H73 LEU d   1     -20.429   7.450  -3.010  0.00  0.00     0.037 H 
ATOM    147  H74 LEU d   1     -19.428   6.136  -2.304  0.00  0.00     0.037 H 
BRANCH 145 148
ATOM    148  CG  LEU d   1     -19.095   8.075  -1.451  0.00  0.00    -0.059 C 
ATOM    149  H75 LEU d   1     -18.959   7.853  -0.382  0.00  0.00     0.038 H 
BRANCH 148 150
ATOM    150  CD1 LEU d   1     -17.725   8.076  -2.149  0.00  0.00    -0.073 C 
ATOM    151  H76 LEU d   1     -17.077   8.832  -1.683  0.00  0.00     0.028 H 
ATOM    152  H77 LEU d   1     -17.857   8.313  -3.215  0.00  0.00     0.028 H 
ATOM    153  H78 LEU d   1     -17.262   7.083  -2.048  0.00  0.00     0.028 H 
ENDBRANCH 148 150
BRANCH 148 154
ATOM    154  CD2 LEU d   1     -19.742   9.450  -1.617  0.00  0.00    -0.073 C 
ATOM    155  H79 LEU d   1     -20.723   9.456  -1.120  0.00  0.00     0.028 H 
ATOM    156  H80 LEU d   1     -19.872   9.667  -2.687  0.00  0.00     0.028 H 
ATOM    157  H81 LEU d   1     -19.096  10.216  -1.163  0.00  0.00     0.028 H 
ENDBRANCH 148 154
ENDBRANCH 145 148
ENDBRANCH 110 145
ENDBRANCH 108 110
ENDBRANCH 104 106
BRANCH 104 158
ATOM    158  CB  GLN d   1     -20.500   4.870   2.961  0.00  0.00    -0.030 C 
ATOM    159  H65 GLN d   1     -21.223   5.582   3.386  0.00  0.00     0.037 H 
ATOM    160  H66 GLN d   1     -19.601   5.412   2.631  0.00  0.00     0.037 H 
BRANCH 158 161
ATOM    161  CG  GLN d   1     -20.106   3.888   4.030  0.00  0.00     0.011 C 
ATOM    162  H67 GLN d   1     -19.234   3.317   3.678  0.00  0.00     0.047 H 
ATOM    163  H68 GLN d   1     -20.948   3.202   4.203  0.00  0.00     0.047 H 
BRANCH 161 164
ATOM    164  CD  GLN d   1     -19.747   4.557   5.348  0.00  0.00     0.215 C 
ATOM    165  OE1 GLN d   1     -19.442   3.874   6.333  0.00  0.00    -0.274 OA
ATOM    166  NE2 GLN d   1     -19.780   5.894   5.379  0.00  0.00    -0.370 N 
ATOM    167  H69 GLN d   1     -19.552   6.380   6.223  0.00  0.00     0.159 HD
ATOM    168  H70 GLN d   1     -20.033   6.407   4.559  0.00  0.00     0.159 HD
ENDBRANCH 161 164
ENDBRANCH 158 161
ENDBRANCH 104 158
ENDBRANCH 102 104
ENDBRANCH  98 100
BRANCH  98 169
ATOM    169  CB  SER d   1     -19.687   0.120   0.080  0.00  0.00     0.044 C 
ATOM    170  H60 SER d   1     -18.862  -0.486  -0.323  0.00  0.00     0.077 H 
ATOM    171  H61 SER d   1     -20.647  -0.356  -0.168  0.00  0.00     0.077 H 
BRANCH 169 172
ATOM    172  OG  SER d   1     -19.557   0.224   1.496  0.00  0.00    -0.398 OA
ATOM    173  H62 SER d   1     -18.728   0.637   1.707  0.00  0.00     0.209 HD
ENDBRANCH 169 172
ENDBRANCH  98 169
ENDBRANCH  96  98
ENDBRANCH  92  94
BRANCH  92 174
ATOM    174  CB  TRP d   1     -15.665   3.233  -1.894  0.00  0.00    -0.012 C 
ATOM    175  H50 TRP d   1     -15.851   2.161  -2.054  0.00  0.00     0.044 H 
ATOM    176  H51 TRP d   1     -14.604   3.389  -1.649  0.00  0.00     0.044 H 
BRANCH 174 177
ATOM    177  CG  TRP d   1     -16.019   4.006  -3.147  0.00  0.00    -0.028 A 
ATOM    178  CD1 TRP d   1     -16.949   3.676  -4.095  0.00  0.00    -0.015 A 
ATOM    179  NE1 TRP d   1     -17.078   4.709  -5.029  0.00  0.00    -0.365 N 
ATOM    180  H52 TRP d   1     -17.509   2.742  -4.119  0.00  0.00     0.112 H 
ATOM    181  CE2 TRP d   1     -16.233   5.723  -4.666  0.00  0.00     0.042 A 
ATOM    182  H53 TRP d   1     -17.701   4.707  -5.849  0.00  0.00     0.165 HD
ATOM    183  CD2 TRP d   1     -15.535   5.305  -3.490  0.00  0.00    -0.002 A 
ATOM    184  CZ2 TRP d   1     -16.006   6.973  -5.270  0.00  0.00    -0.056 A 
ATOM    185  CE3 TRP d   1     -14.573   6.166  -2.919  0.00  0.00    -0.070 A 
ATOM    186  CZ3 TRP d   1     -14.341   7.409  -3.524  0.00  0.00    -0.082 A 
ATOM    187  H54 TRP d   1     -14.025   5.872  -2.031  0.00  0.00     0.084 H 
ATOM    188  CH2 TRP d   1     -15.060   7.796  -4.683  0.00  0.00    -0.081 A 
ATOM    189  H56 TRP d   1     -13.604   8.082  -3.101  0.00  0.00     0.083 H 
ATOM    190  H57 TRP d   1     -14.863   8.767  -5.123  0.00  0.00     0.083 H 
ATOM    191  H55 TRP d   1     -16.549   7.279  -6.157  0.00  0.00     0.086 H 
ENDBRANCH 174 177
ENDBRANCH  92 174
ENDBRANCH  90  92
ENDBRANCH   1  88
BRANCH   1 192
ATOM    192  CB  TRP d   1     -14.446   4.364   3.042  0.00  0.00    -0.012 C 
ATOM    193  H40 TRP d   1     -14.680   5.433   2.930  0.00  0.00     0.044 H 
ATOM    194  H41 TRP d   1     -13.769   4.050   2.233  0.00  0.00     0.044 H 
BRANCH 192 195
ATOM    195  CG  TRP d   1     -13.762   4.153   4.355  0.00  0.00    -0.028 A 
ATOM    196  CD1 TRP d   1     -12.533   3.610   4.561  0.00  0.00    -0.015 A 
ATOM    197  NE1 TRP d   1     -12.276   3.536   5.903  0.00  0.00    -0.365 N 
ATOM    198  H42 TRP d   1     -11.854   3.283   3.775  0.00  0.00     0.112 H 
ATOM    199  CE2 TRP d   1     -13.344   4.037   6.586  0.00  0.00     0.042 A 
ATOM    200  H43 TRP d   1     -11.415   3.162   6.328  0.00  0.00     0.165 HD
ATOM    201  CD2 TRP d   1     -14.304   4.437   5.636  0.00  0.00    -0.002 A 
ATOM    202  CZ2 TRP d   1     -13.552   4.164   7.956  0.00  0.00    -0.056 A 
ATOM    203  CE3 TRP d   1     -15.508   4.990   6.074  0.00  0.00    -0.070 A 
ATOM    204  CZ3 TRP d   1     -15.723   5.119   7.450  0.00  0.00    -0.082 A 
ATOM    205  H44 TRP d   1     -16.260   5.313   5.363  0.00  0.00     0.084 H 
ATOM    206  CH2 TRP d   1     -14.740   4.706   8.373  0.00  0.00    -0.081 A 
ATOM    207  H46 TRP d   1     -16.654   5.541   7.811  0.00  0.00     0.083 H 
ATOM    208  H47 TRP d   1     -14.928   4.819   9.435  0.00  0.00     0.083 H 
ATOM    209  H45 TRP d   1     -12.800   3.845   8.669  0.00  0.00     0.086 H 
ENDBRANCH 192 195
ENDBRANCH   1 192
TORSDOF 56
