REMARK  20 active torsions:
REMARK  status: ('A' for Active; 'I' for Inactive)
REMARK    1  A    between atoms: N_1  and  CA_2 
REMARK    2  A    between atoms: CA_2  and  CB_3 
REMARK    3  A    between atoms: CA_2  and  C_5 
REMARK    4  A    between atoms: CB_3  and  OG_4 
REMARK    5  A    between atoms: OG_4  and  P_7 
REMARK       I    between atoms: C_5  and  N_11 
REMARK    6  A    between atoms: N_11  and  CA_12 
REMARK    7  A    between atoms: CA_12  and  C_13 
REMARK    8  A    between atoms: CA_12  and  CB_15 
REMARK       I    between atoms: C_13  and  N_20 
REMARK    9  A    between atoms: CB_15  and  CG_16 
REMARK   10  A    between atoms: CG_16  and  CD_17 
REMARK       I    between atoms: CD_17  and  NE2_19 
REMARK   11  A    between atoms: N_20  and  CA_21 
REMARK   12  A    between atoms: CA_21  and  C_22 
REMARK   13  A    between atoms: CA_21  and  CB_24 
REMARK       I    between atoms: C_22  and  N_29 
REMARK   14  A    between atoms: CB_24  and  CG_25 
REMARK   15  A    between atoms: CG_25  and  CD_26 
REMARK   16  A    between atoms: N_29  and  CA_30 
REMARK   17  A    between atoms: CA_30  and  C_31 
REMARK   18  A    between atoms: CA_30  and  CB_33 
REMARK       I    between atoms: C_31  and  N_41 
REMARK   19  A    between atoms: CB_33  and  CG_34 
REMARK   20  A    between atoms: CZ_39  and  OH_40 
ROOT
ATOM      1  CA  GLU d   1      13.994 -10.228 -29.221  0.00  0.00     0.090 C 
ATOM      2  H   GLU d   1      13.559 -10.076 -28.233  0.00  0.00     0.087 H 
ENDROOT
BRANCH   1   3
ATOM      3  N   GLU d   1      12.988 -10.790 -30.112  0.00  0.00    -0.346 N 
ATOM      4  C   GLN d   1      11.704 -10.914 -29.792  0.00  0.00     0.241 C 
ATOM      5  O   GLN d   1      11.250 -10.704 -28.667  0.00  0.00    -0.271 OA
ATOM      6  H   GLU d   1      13.286 -11.107 -31.035  0.00  0.00     0.163 HD
BRANCH   4   7
ATOM      7  CA  GLN d   1      10.783 -11.328 -30.934  0.00  0.00     0.090 C 
ATOM      8  H   GLN d   1      11.387 -11.848 -31.677  0.00  0.00     0.087 H 
BRANCH   7   9
ATOM      9  N   GLN d   1       9.752 -12.235 -30.492  0.00  0.00    -0.346 N 
ATOM     10  C   SEP d   1       9.911 -13.551 -30.504  0.00  0.00     0.251 C 
ATOM     11  O   SEP d   1      10.919 -14.117 -30.921  0.00  0.00    -0.271 OA
ATOM     12  H   GLN d   1       8.869 -11.850 -30.158  0.00  0.00     0.163 HD
BRANCH  10  13
ATOM     13  CA  SEP d   1       8.730 -14.342 -30.007  0.00  0.00     0.196 C 
ATOM     14  H   SEP d   1       7.818 -13.820 -30.296  0.00  0.00     0.102 H 
BRANCH  13  15
ATOM     15  N   SEP d   1       8.660 -15.694 -30.637  0.00  0.00    -0.064 N 
ATOM     16  H   SEP d   1       7.849 -16.195 -30.274  0.00  0.00     0.275 HD
ATOM     17  H   SEP d   1       8.574 -15.592 -31.648  0.00  0.00     0.275 HD
ATOM     18  H   SEP d   1       9.509 -16.215 -30.417  0.00  0.00     0.275 HD
ENDBRANCH  13  15
BRANCH  13  19
ATOM     19  CB  SEP d   1       8.788 -14.439 -28.487  0.00  0.00     0.067 C 
ATOM     20  H   SEP d   1       8.952 -13.456 -28.046  0.00  0.00     0.079 H 
ATOM     21  H   SEP d   1       9.616 -15.075 -28.174  0.00  0.00     0.079 H 
BRANCH  19  22
ATOM     22  OG  SEP d   1       7.553 -14.980 -28.055  0.00  0.00    -0.280 OA
BRANCH  22  23
ATOM     23  P   SEP d   1       7.461 -15.476 -26.538  0.00  0.00     0.422 P 
ATOM     24  O1P SEP d   1       8.089 -14.384 -25.599  0.00  0.00    -0.617 OA
ATOM     25  O2P SEP d   1       8.198 -16.871 -26.433  0.00  0.00    -0.617 OA
ATOM     26  O3P SEP d   1       5.884 -15.666 -26.326  0.00  0.00    -0.617 OA
ENDBRANCH  22  23
ENDBRANCH  19  22
ENDBRANCH  13  19
ENDBRANCH  10  13
ENDBRANCH   7   9
BRANCH   7  27
ATOM     27  CB  GLN d   1      10.143 -10.087 -31.551  0.00  0.00    -0.030 C 
ATOM     28  H   GLN d   1      10.944  -9.421 -31.873  0.00  0.00     0.037 H 
ATOM     29  H   GLN d   1       9.497  -9.634 -30.799  0.00  0.00     0.037 H 
BRANCH  27  30
ATOM     30  CG  GLN d   1       9.288 -10.412 -32.767  0.00  0.00     0.011 C 
ATOM     31  H   GLN d   1       8.848  -9.485 -33.134  0.00  0.00     0.047 H 
ATOM     32  H   GLN d   1       8.526 -11.131 -32.468  0.00  0.00     0.047 H 
BRANCH  30  33
ATOM     33  CD  GLN d   1      10.106 -11.023 -33.881  0.00  0.00     0.215 C 
ATOM     34  OE1 GLN d   1      10.334 -12.244 -33.941  0.00  0.00    -0.274 OA
ATOM     35  NE2 GLN d   1      10.580 -10.171 -34.772  0.00  0.00    -0.370 N 
ATOM     36  H   GLN d   1      11.155 -10.508 -35.544  0.00  0.00     0.159 HD
ATOM     37  H   GLN d   1      10.371  -9.176 -34.688  0.00  0.00     0.159 HD
ENDBRANCH  30  33
ENDBRANCH  27  30
ENDBRANCH   7  27
ENDBRANCH   4   7
ENDBRANCH   1   3
BRANCH   1  38
ATOM     38  C   GLU d   1      14.458  -8.886 -29.769  0.00  0.00     0.241 C 
ATOM     39  O   GLU d   1      14.427  -8.651 -30.976  0.00  0.00    -0.271 OA
ATOM     40  N   TYR d   1      14.880  -8.019 -28.855  0.00  0.00    -0.346 N 
ATOM     41  H   TYR d   1      14.990  -8.349 -27.896  0.00  0.00     0.163 HD
BRANCH  40  42
ATOM     42  CA  TYR d   1      15.196  -6.622 -29.141  0.00  0.00     0.093 C 
ATOM     43  H   TYR d   1      15.220  -6.502 -30.224  0.00  0.00     0.088 H 
BRANCH  42  44
ATOM     44  C   TYR d   1      16.569  -6.236 -28.571  0.00  0.00     0.238 C 
ATOM     45  O   TYR d   1      17.112  -6.909 -27.708  0.00  0.00    -0.271 OA
ATOM     46  N   NH2 d   1      17.108  -5.117 -29.024  0.00  0.00    -0.368 N 
ATOM     47  H   NH2 d   1      18.001  -4.794 -28.652  0.00  0.00     0.159 HD
ATOM     48  H   NH2 d   1      16.631  -4.577 -29.745  0.00  0.00     0.159 HD
ENDBRANCH  42  44
BRANCH  42  49
ATOM     49  CB  TYR d   1      14.113  -5.694 -28.533  0.00  0.00    -0.014 C 
ATOM     50  H   TYR d   1      14.377  -4.661 -28.761  0.00  0.00     0.043 H 
ATOM     51  H   TYR d   1      14.073  -5.870 -27.458  0.00  0.00     0.043 H 
BRANCH  49  52
ATOM     52  CG  TYR d   1      12.761  -5.974 -29.108  0.00  0.00    -0.056 A 
ATOM     53  CD1 TYR d   1      11.928  -6.929 -28.532  0.00  0.00    -0.074 A 
ATOM     54  CE1 TYR d   1      10.709  -7.218 -29.076  0.00  0.00    -0.051 A 
ATOM     55  H   TYR d   1      12.253  -7.454 -27.634  0.00  0.00     0.084 H 
ATOM     56  CZ  TYR d   1      10.281  -6.548 -30.212  0.00  0.00     0.065 A 
ATOM     57  H   TYR d   1      10.073  -7.975 -28.617  0.00  0.00     0.087 H 
ATOM     58  CE2 TYR d   1      11.101  -5.608 -30.820  0.00  0.00    -0.051 A 
ATOM     59  CD2 TYR d   1      12.321  -5.317 -30.251  0.00  0.00    -0.074 A 
ATOM     60  H   TYR d   1      10.784  -5.107 -31.735  0.00  0.00     0.087 H 
ATOM     61  H   TYR d   1      12.954  -4.556 -30.706  0.00  0.00     0.084 H 
BRANCH  56  62
ATOM     62  OH  TYR d   1       9.057  -6.831 -30.762  0.00  0.00    -0.361 OA
ATOM     63  H   TYR d   1       8.614  -7.496 -30.229  0.00  0.00     0.217 HD
ENDBRANCH  56  62
ENDBRANCH  49  52
ENDBRANCH  42  49
ENDBRANCH  40  42
ENDBRANCH   1  38
BRANCH   1  64
ATOM     64  CB  GLU d   1      15.178 -11.196 -29.070  0.00  0.00    -0.029 C 
ATOM     65  H   GLU d   1      15.961 -10.692 -28.505  0.00  0.00     0.037 H 
ATOM     66  H   GLU d   1      15.515 -11.482 -30.067  0.00  0.00     0.037 H 
BRANCH  64  67
ATOM     67  CG  GLU d   1      14.789 -12.451 -28.324  0.00  0.00     0.018 C 
ATOM     68  H   GLU d   1      13.946 -12.897 -28.852  0.00  0.00     0.049 H 
ATOM     69  H   GLU d   1      14.559 -12.163 -27.298  0.00  0.00     0.049 H 
BRANCH  67  70
ATOM     70  CD  GLU d   1      15.890 -13.490 -28.268  0.00  0.00     0.172 C 
ATOM     71  OE1 GLU d   1      17.062 -13.141 -28.044  0.00  0.00    -0.648 OA
ATOM     72  OE2 GLU d   1      15.561 -14.678 -28.426  0.00  0.00    -0.648 OA
ENDBRANCH  67  70
ENDBRANCH  64  67
ENDBRANCH   1  64
TORSDOF 20
