REMARK  15 active torsions:
REMARK  status: ('A' for Active; 'I' for Inactive)
REMARK    1  A    between atoms: N_1  and  CA_2 
REMARK    2  A    between atoms: CA_2  and  CB_3 
REMARK    3  A    between atoms: CA_2  and  C_5 
REMARK    4  A    between atoms: CB_3  and  OG_4 
REMARK    5  A    between atoms: OG_4  and  P_7 
REMARK       I    between atoms: C_5  and  N_11 
REMARK    6  A    between atoms: CA_12  and  C_13 
REMARK       I    between atoms: C_13  and  N_18 
REMARK    7  A    between atoms: N_18  and  CA_19 
REMARK    8  A    between atoms: CA_19  and  C_20 
REMARK    9  A    between atoms: CA_19  and  CB_22 
REMARK       I    between atoms: C_20  and  N_25 
REMARK   10  A    between atoms: CB_22  and  OG1_23 
REMARK   11  A    between atoms: CB_22  and  CG2_24 
REMARK   12  A    between atoms: N_25  and  CA_26 
REMARK   13  A    between atoms: CA_26  and  C_27 
REMARK   14  A    between atoms: CA_26  and  CB_29 
REMARK       I    between atoms: C_27  and  N_36 
REMARK   15  A    between atoms: CB_29  and  CG_30 
ROOT
ATOM      1  CA  THR d   1     -24.238  57.963   0.688  0.00  0.00     0.113 C 
ATOM      2  H   THR d   1     -24.164  56.911   0.414  0.00  0.00     0.091 H 
ENDROOT
BRANCH   1   3
ATOM      3  N   THR d   1     -24.299  58.074   2.135  0.00  0.00    -0.344 N 
ATOM      4  C   PRO d   1     -24.033  57.035   2.916  0.00  0.00     0.241 C 
ATOM      5  O   PRO d   1     -23.888  55.892   2.488  0.00  0.00    -0.271 OA
ATOM      6  H   THR d   1     -24.551  58.967   2.558  0.00  0.00     0.163 HD
BRANCH   4   7
ATOM      7  CA  PRO d   1     -23.951  57.297   4.404  0.00  0.00     0.091 C 
ATOM      8  N   PRO d   1     -24.446  56.128   5.106  0.00  0.00    -0.337 N 
ATOM      9  C   SEP d   1     -25.760  55.892   5.079  0.00  0.00     0.253 C 
ATOM     10  CD  PRO d   1     -23.404  55.476   5.915  0.00  0.00    -0.001 C 
ATOM     11  O   SEP d   1     -26.564  56.696   4.622  0.00  0.00    -0.271 OA
ATOM     12  CG  PRO d   1     -22.455  56.600   6.163  0.00  0.00    -0.048 C 
ATOM     13  H   PRO d   1     -22.942  54.623   5.418  0.00  0.00     0.064 H 
ATOM     14  H   PRO d   1     -23.787  55.025   6.830  0.00  0.00     0.064 H 
ATOM     15  CB  PRO d   1     -22.491  57.378   4.853  0.00  0.00    -0.036 C 
ATOM     16  H   PRO d   1     -22.737  57.208   7.022  0.00  0.00     0.035 H 
ATOM     17  H   PRO d   1     -21.453  56.257   6.422  0.00  0.00     0.035 H 
ATOM     18  H   PRO d   1     -22.157  58.408   4.979  0.00  0.00     0.036 H 
ATOM     19  H   PRO d   1     -21.810  56.962   4.110  0.00  0.00     0.036 H 
ATOM     20  H   PRO d   1     -24.504  58.214   4.608  0.00  0.00     0.087 H 
BRANCH   9  21
ATOM     21  CA  SEP d   1     -26.234  54.576   5.664  0.00  0.00     0.196 C 
ATOM     22  H   SEP d   1     -25.558  54.279   6.465  0.00  0.00     0.102 H 
BRANCH  21  23
ATOM     23  N   SEP d   1     -27.594  54.717   6.235  0.00  0.00    -0.064 N 
ATOM     24  H   SEP d   1     -27.893  53.822   6.622  0.00  0.00     0.275 HD
ATOM     25  H   SEP d   1     -27.580  55.421   6.973  0.00  0.00     0.275 HD
ATOM     26  H   SEP d   1     -28.241  55.005   5.501  0.00  0.00     0.275 HD
ENDBRANCH  21  23
BRANCH  21  27
ATOM     27  CB  SEP d   1     -26.234  53.520   4.579  0.00  0.00     0.067 C 
ATOM     28  H   SEP d   1     -25.300  53.572   4.020  0.00  0.00     0.079 H 
ATOM     29  H   SEP d   1     -27.071  53.693   3.902  0.00  0.00     0.079 H 
BRANCH  27  30
ATOM     30  OG  SEP d   1     -26.359  52.254   5.163  0.00  0.00    -0.280 OA
BRANCH  30  31
ATOM     31  P   SEP d   1     -27.589  51.510   4.490  0.00  0.00     0.422 P 
ATOM     32  O1P SEP d   1     -27.233  51.048   2.998  0.00  0.00    -0.617 OA
ATOM     33  O2P SEP d   1     -28.753  52.617   4.570  0.00  0.00    -0.617 OA
ATOM     34  O3P SEP d   1     -27.969  50.170   5.272  0.00  0.00    -0.617 OA
ENDBRANCH  30  31
ENDBRANCH  27  30
ENDBRANCH  21  27
ENDBRANCH   9  21
ENDBRANCH   4   7
ENDBRANCH   1   3
BRANCH   1  35
ATOM     35  C   THR d   1     -23.045  58.779   0.232  0.00  0.00     0.243 C 
ATOM     36  O   THR d   1     -22.613  59.712   0.919  0.00  0.00    -0.271 OA
ATOM     37  N   PHE d   1     -22.500  58.417  -0.922  0.00  0.00    -0.346 N 
ATOM     38  H   PHE d   1     -22.880  57.613  -1.421  0.00  0.00     0.163 HD
BRANCH  37  39
ATOM     39  CA  PHE d   1     -21.376  59.137  -1.493  0.00  0.00     0.093 C 
ATOM     40  H   PHE d   1     -21.132  60.011  -0.889  0.00  0.00     0.088 H 
BRANCH  39  41
ATOM     41  C   PHE d   1     -21.766  59.568  -2.895  0.00  0.00     0.238 C 
ATOM     42  O   PHE d   1     -21.733  58.771  -3.846  0.00  0.00    -0.271 OA
ATOM     43  N   NH2 d   1     -22.161  60.826  -3.014  0.00  0.00    -0.368 N 
ATOM     44  H   NH2 d   1     -22.458  61.184  -3.922  0.00  0.00     0.159 HD
ATOM     45  H   NH2 d   1     -22.168  61.438  -2.198  0.00  0.00     0.159 HD
ENDBRANCH  39  41
BRANCH  39  46
ATOM     46  CB  PHE d   1     -20.140  58.236  -1.529  0.00  0.00    -0.014 C 
ATOM     47  H   PHE d   1     -19.282  58.865  -1.764  0.00  0.00     0.043 H 
ATOM     48  H   PHE d   1     -20.323  57.457  -2.270  0.00  0.00     0.043 H 
BRANCH  46  49
ATOM     49  CG  PHE d   1     -19.858  57.559  -0.223  0.00  0.00    -0.056 A 
ATOM     50  CD1 PHE d   1     -20.508  56.379   0.110  0.00  0.00    -0.077 A 
ATOM     51  CE1 PHE d   1     -20.280  55.762   1.302  0.00  0.00    -0.082 A 
ATOM     52  H   PHE d   1     -21.213  55.939  -0.595  0.00  0.00     0.084 H 
ATOM     53  CZ  PHE d   1     -19.385  56.314   2.207  0.00  0.00    -0.083 A 
ATOM     54  H   PHE d   1     -20.800  54.835   1.545  0.00  0.00     0.083 H 
ATOM     55  CE2 PHE d   1     -18.718  57.492   1.895  0.00  0.00    -0.082 A 
ATOM     56  H   PHE d   1     -19.205  55.823   3.163  0.00  0.00     0.083 H 
ATOM     57  CD2 PHE d   1     -18.963  58.113   0.678  0.00  0.00    -0.077 A 
ATOM     58  H   PHE d   1     -18.008  57.925   2.600  0.00  0.00     0.083 H 
ATOM     59  H   PHE d   1     -18.449  59.041   0.430  0.00  0.00     0.084 H 
ENDBRANCH  46  49
ENDBRANCH  39  46
ENDBRANCH  37  39
ENDBRANCH   1  35
BRANCH   1  60
ATOM     60  CB  THR d   1     -25.486  58.545   0.020  0.00  0.00     0.060 C 
ATOM     61  H   THR d   1     -25.218  58.856  -0.990  0.00  0.00     0.086 H 
BRANCH  60  62
ATOM     62  OG1 THR d   1     -25.951  59.663   0.786  0.00  0.00    -0.393 OA
ATOM     63  H   THR d   1     -26.734  60.031   0.370  0.00  0.00     0.210 HD
ENDBRANCH  60  62
BRANCH  60  64
ATOM     64  CG2 THR d   1     -26.604  57.506  -0.081  0.00  0.00    -0.050 C 
ATOM     65  H   THR d   1     -26.258  56.659  -0.673  0.00  0.00     0.031 H 
ATOM     66  H   THR d   1     -26.874  57.166   0.919  0.00  0.00     0.031 H 
ATOM     67  H   THR d   1     -27.474  57.955  -0.560  0.00  0.00     0.031 H 
ENDBRANCH  60  64
ENDBRANCH   1  60
TORSDOF 15
