REMARK  15 active torsions:
REMARK  status: ('A' for Active; 'I' for Inactive)
REMARK    1  A    between atoms: N_1  and  CA_2 
REMARK    2  A    between atoms: CA_2  and  CB_3 
REMARK    3  A    between atoms: CA_2  and  C_5 
REMARK    4  A    between atoms: CB_3  and  OG_4 
REMARK    5  A    between atoms: OG_4  and  P_7 
REMARK       I    between atoms: C_5  and  N_11 
REMARK    6  A    between atoms: CA_12  and  C_13 
REMARK       I    between atoms: C_13  and  N_18 
REMARK    7  A    between atoms: N_18  and  CA_19 
REMARK    8  A    between atoms: CA_19  and  C_20 
REMARK    9  A    between atoms: CA_19  and  CB_22 
REMARK       I    between atoms: C_20  and  N_25 
REMARK   10  A    between atoms: CB_22  and  OG1_23 
REMARK   11  A    between atoms: CB_22  and  CG2_24 
REMARK   12  A    between atoms: N_25  and  CA_26 
REMARK   13  A    between atoms: CA_26  and  C_27 
REMARK   14  A    between atoms: CA_26  and  CB_29 
REMARK   15  A    between atoms: CB_29  and  CG_30 
ROOT
ATOM      1  CA  THR d   1     -23.819  57.929   0.710  0.00  0.00     0.113 C 
ATOM      2  H   THR d   1     -23.801  56.867   0.466  0.00  0.00     0.091 H 
ENDROOT
BRANCH   1   3
ATOM      3  N   THR d   1     -23.963  58.033   2.159  0.00  0.00    -0.344 N 
ATOM      4  C   PRO d   1     -23.862  56.960   2.937  0.00  0.00     0.241 C 
ATOM      5  O   PRO d   1     -23.786  55.818   2.498  0.00  0.00    -0.271 OA
ATOM      6  H   THR d   1     -24.144  58.944   2.581  0.00  0.00     0.163 HD
BRANCH   4   7
ATOM      7  CA  PRO d   1     -23.876  57.185   4.432  0.00  0.00     0.091 C 
ATOM      8  N   PRO d   1     -24.464  56.032   5.100  0.00  0.00    -0.337 N 
ATOM      9  C   SEP d   1     -25.792  55.895   5.062  0.00  0.00     0.253 C 
ATOM     10  CD  PRO d   1     -23.482  55.305   5.919  0.00  0.00    -0.001 C 
ATOM     11  O   SEP d   1     -26.530  56.739   4.565  0.00  0.00    -0.271 OA
ATOM     12  CG  PRO d   1     -22.506  56.385   6.264  0.00  0.00    -0.048 C 
ATOM     13  H   PRO d   1     -23.027  54.461   5.401  0.00  0.00     0.064 H 
ATOM     14  H   PRO d   1     -23.920  54.823   6.793  0.00  0.00     0.064 H 
ATOM     15  CB  PRO d   1     -22.447  57.216   4.986  0.00  0.00    -0.036 C 
ATOM     16  H   PRO d   1     -22.811  56.968   7.133  0.00  0.00     0.035 H 
ATOM     17  H   PRO d   1     -21.532  55.995   6.559  0.00  0.00     0.035 H 
ATOM     18  H   PRO d   1     -22.109  58.234   5.179  0.00  0.00     0.036 H 
ATOM     19  H   PRO d   1     -21.727  56.814   4.274  0.00  0.00     0.036 H 
ATOM     20  H   PRO d   1     -24.419  58.114   4.603  0.00  0.00     0.087 H 
BRANCH   9  21
ATOM     21  CA  SEP d   1     -26.378  54.648   5.687  0.00  0.00     0.196 C 
ATOM     22  H   SEP d   1     -25.813  54.365   6.575  0.00  0.00     0.102 H 
BRANCH  21  23
ATOM     23  N   SEP d   1     -27.790  54.933   6.063  0.00  0.00    -0.064 N 
ATOM     24  H   SEP d   1     -28.202  54.102   6.487  0.00  0.00     0.275 HD
ATOM     25  H   SEP d   1     -27.814  55.704   6.731  0.00  0.00     0.275 HD
ATOM     26  H   SEP d   1     -28.318  55.188   5.228  0.00  0.00     0.275 HD
ENDBRANCH  21  23
BRANCH  21  27
ATOM     27  CB  SEP d   1     -26.312  53.496   4.693  0.00  0.00     0.067 C 
ATOM     28  H   SEP d   1     -25.329  53.484   4.223  0.00  0.00     0.079 H 
ATOM     29  H   SEP d   1     -27.086  53.630   3.937  0.00  0.00     0.079 H 
BRANCH  27  30
ATOM     30  OG  SEP d   1     -26.521  52.277   5.356  0.00  0.00    -0.280 OA
BRANCH  30  31
ATOM     31  P   SEP d   1     -27.447  51.310   4.494  0.00  0.00     0.422 P 
ATOM     32  O1P SEP d   1     -26.817  50.963   3.065  0.00  0.00    -0.617 OA
ATOM     33  O2P SEP d   1     -28.804  52.151   4.336  0.00  0.00    -0.617 OA
ATOM     34  O3P SEP d   1     -27.701  49.890   5.187  0.00  0.00    -0.617 OA
ENDBRANCH  30  31
ENDBRANCH  27  30
ENDBRANCH  21  27
ENDBRANCH   9  21
ENDBRANCH   4   7
ENDBRANCH   1   3
BRANCH   1  35
ATOM     35  C   THR d   1     -22.528  58.598   0.261  0.00  0.00     0.243 C 
ATOM     36  O   THR d   1     -21.941  59.393   0.991  0.00  0.00    -0.271 OA
ATOM     37  N   PHE d   1     -22.078  58.272  -0.942  0.00  0.00    -0.344 N 
ATOM     38  H   PHE d   1     -22.606  57.617  -1.519  0.00  0.00     0.163 HD
BRANCH  37  39
ATOM     39  CA  PHE d   1     -20.837  58.840  -1.446  0.00  0.00     0.100 C 
ATOM     40  H   PHE d   1     -20.584  59.708  -0.838  0.00  0.00     0.090 H 
BRANCH  39  41
ATOM     41  C   PHE d   1     -21.011  59.275  -2.890  0.00  0.00     0.197 C 
ATOM     42  O   PHE d   1     -21.277  58.458  -3.788  0.00  0.00    -0.646 OA
ATOM     43  OXT PHE d   1     -20.876  60.462  -3.180  0.00  0.00    -0.646 OA
ENDBRANCH  39  41
BRANCH  39  44
ATOM     44  CB  PHE d   1     -19.695  57.817  -1.345  0.00  0.00    -0.013 C 
ATOM     45  H   PHE d   1     -18.759  58.363  -1.462  0.00  0.00     0.043 H 
ATOM     46  H   PHE d   1     -19.864  57.064  -2.115  0.00  0.00     0.043 H 
BRANCH  44  47
ATOM     47  CG  PHE d   1     -19.636  57.105  -0.029  0.00  0.00    -0.056 A 
ATOM     48  CD1 PHE d   1     -20.317  55.917   0.156  0.00  0.00    -0.077 A 
ATOM     49  CE1 PHE d   1     -20.278  55.266   1.353  0.00  0.00    -0.082 A 
ATOM     50  H   PHE d   1     -20.894  55.494  -0.667  0.00  0.00     0.084 H 
ATOM     51  CZ  PHE d   1     -19.552  55.799   2.405  0.00  0.00    -0.083 A 
ATOM     52  H   PHE d   1     -20.817  54.328   1.482  0.00  0.00     0.083 H 
ATOM     53  CE2 PHE d   1     -18.861  56.981   2.240  0.00  0.00    -0.082 A 
ATOM     54  H   PHE d   1     -19.527  55.283   3.365  0.00  0.00     0.083 H 
ATOM     55  CD2 PHE d   1     -18.910  57.631   1.022  0.00  0.00    -0.077 A 
ATOM     56  H   PHE d   1     -18.281  57.399   3.063  0.00  0.00     0.083 H 
ATOM     57  H   PHE d   1     -18.370  58.569   0.889  0.00  0.00     0.084 H 
ENDBRANCH  44  47
ENDBRANCH  39  44
ENDBRANCH  37  39
ENDBRANCH   1  35
BRANCH   1  58
ATOM     58  CB  THR d   1     -24.989  58.579  -0.028  0.00  0.00     0.060 C 
ATOM     59  H   THR d   1     -24.787  58.544  -1.099  0.00  0.00     0.086 H 
BRANCH  58  60
ATOM     60  OG1 THR d   1     -25.127  59.945   0.394  0.00  0.00    -0.393 OA
ATOM     61  H   THR d   1     -25.863  60.350  -0.071  0.00  0.00     0.210 HD
ENDBRANCH  58  60
BRANCH  58  62
ATOM     62  CG2 THR d   1     -26.283  57.827   0.250  0.00  0.00    -0.050 C 
ATOM     63  H   THR d   1     -26.182  56.795  -0.087  0.00  0.00     0.031 H 
ATOM     64  H   THR d   1     -26.488  57.842   1.321  0.00  0.00     0.031 H 
ATOM     65  H   THR d   1     -27.103  58.307  -0.285  0.00  0.00     0.031 H 
ENDBRANCH  58  62
ENDBRANCH   1  58
TORSDOF 15
