REMARK  15 active torsions:
REMARK  status: ('A' for Active; 'I' for Inactive)
REMARK    1  A    between atoms: N_1  and  CA_2 
REMARK    2  A    between atoms: CA_2  and  CB_3 
REMARK    3  A    between atoms: CA_2  and  C_5 
REMARK    4  A    between atoms: CB_3  and  OG_4 
REMARK    5  A    between atoms: OG_4  and  P_7 
REMARK       I    between atoms: C_5  and  N_11 
REMARK    6  A    between atoms: CA_12  and  C_13 
REMARK       I    between atoms: C_13  and  N_18 
REMARK    7  A    between atoms: N_18  and  CA_19 
REMARK    8  A    between atoms: CA_19  and  C_20 
REMARK    9  A    between atoms: CA_19  and  CB_22 
REMARK       I    between atoms: C_20  and  N_25 
REMARK   10  A    between atoms: CB_22  and  OG1_23 
REMARK   11  A    between atoms: CB_22  and  CG2_24 
REMARK   12  A    between atoms: N_25  and  CA_26 
REMARK   13  A    between atoms: CA_26  and  C_27 
REMARK   14  A    between atoms: CA_26  and  CB_29 
REMARK       I    between atoms: C_27  and  N_36 
REMARK   15  A    between atoms: CB_29  and  CG_30 
ROOT
ATOM      1  CA  THR d   1     -23.879  58.005   0.867  0.00  0.00     0.113 C 
ATOM      2  H   THR d   1     -23.816  56.938   0.655  0.00  0.00     0.091 H 
ENDROOT
BRANCH   1   3
ATOM      3  N   THR d   1     -23.920  58.109   2.332  0.00  0.00    -0.344 N 
ATOM      4  C   PRO d   1     -23.857  57.015   3.088  0.00  0.00     0.241 C 
ATOM      5  O   PRO d   1     -23.867  55.883   2.616  0.00  0.00    -0.271 OA
ATOM      6  H   THR d   1     -23.997  59.026   2.773  0.00  0.00     0.163 HD
BRANCH   4   7
ATOM      7  CA  PRO d   1     -23.805  57.188   4.599  0.00  0.00     0.091 C 
ATOM      8  N   PRO d   1     -24.453  56.041   5.210  0.00  0.00    -0.337 N 
ATOM      9  C   SEP d   1     -25.785  55.985   5.265  0.00  0.00     0.253 C 
ATOM     10  CD  PRO d   1     -23.496  55.009   5.646  0.00  0.00    -0.001 C 
ATOM     11  O   SEP d   1     -26.499  56.925   4.939  0.00  0.00    -0.271 OA
ATOM     12  CG  PRO d   1     -22.158  55.585   5.263  0.00  0.00    -0.048 C 
ATOM     13  H   PRO d   1     -23.683  54.042   5.179  0.00  0.00     0.064 H 
ATOM     14  H   PRO d   1     -23.569  54.796   6.712  0.00  0.00     0.064 H 
ATOM     15  CB  PRO d   1     -22.371  57.071   5.105  0.00  0.00    -0.036 C 
ATOM     16  H   PRO d   1     -21.406  55.374   6.024  0.00  0.00     0.035 H 
ATOM     17  H   PRO d   1     -21.788  55.140   4.339  0.00  0.00     0.035 H 
ATOM     18  H   PRO d   1     -22.218  57.611   6.039  0.00  0.00     0.036 H 
ATOM     19  H   PRO d   1     -21.653  57.520   4.418  0.00  0.00     0.036 H 
ATOM     20  H   PRO d   1     -24.257  58.151   4.835  0.00  0.00     0.087 H 
BRANCH   9  21
ATOM     21  CA  SEP d   1     -26.399  54.691   5.766  0.00  0.00     0.196 C 
ATOM     22  H   SEP d   1     -25.787  54.291   6.575  0.00  0.00     0.102 H 
BRANCH  21  23
ATOM     23  N   SEP d   1     -27.768  54.946   6.290  0.00  0.00    -0.064 N 
ATOM     24  H   SEP d   1     -28.171  54.071   6.624  0.00  0.00     0.275 HD
ATOM     25  H   SEP d   1     -27.717  55.614   7.059  0.00  0.00     0.275 HD
ATOM     26  H   SEP d   1     -28.350  55.328   5.545  0.00  0.00     0.275 HD
ENDBRANCH  21  23
BRANCH  21  27
ATOM     27  CB  SEP d   1     -26.446  53.675   4.632  0.00  0.00     0.067 C 
ATOM     28  H   SEP d   1     -25.643  53.891   3.928  0.00  0.00     0.079 H 
ATOM     29  H   SEP d   1     -27.414  53.741   4.136  0.00  0.00     0.079 H 
BRANCH  27  30
ATOM     30  OG  SEP d   1     -26.277  52.375   5.133  0.00  0.00    -0.280 OA
BRANCH  30  31
ATOM     31  P   SEP d   1     -27.442  51.438   4.580  0.00  0.00     0.422 P 
ATOM     32  O1P SEP d   1     -27.060  50.783   3.164  0.00  0.00    -0.617 OA
ATOM     33  O2P SEP d   1     -28.721  52.399   4.467  0.00  0.00    -0.617 OA
ATOM     34  O3P SEP d   1     -27.687  50.183   5.537  0.00  0.00    -0.617 OA
ENDBRANCH  30  31
ENDBRANCH  27  30
ENDBRANCH  21  27
ENDBRANCH   9  21
ENDBRANCH   4   7
ENDBRANCH   1   3
BRANCH   1  35
ATOM     35  C   THR d   1     -22.663  58.717   0.284  0.00  0.00     0.243 C 
ATOM     36  O   THR d   1     -22.051  59.573   0.924  0.00  0.00    -0.271 OA
ATOM     37  N   PHE d   1     -22.316  58.359  -0.943  0.00  0.00    -0.346 N 
ATOM     38  H   PHE d   1     -22.891  57.687  -1.451  0.00  0.00     0.163 HD
BRANCH  37  39
ATOM     39  CA  PHE d   1     -21.127  58.910  -1.579  0.00  0.00     0.093 C 
ATOM     40  H   PHE d   1     -20.822  59.792  -1.016  0.00  0.00     0.088 H 
BRANCH  39  41
ATOM     41  C   PHE d   1     -21.413  59.330  -3.012  0.00  0.00     0.238 C 
ATOM     42  O   PHE d   1     -21.729  58.498  -3.875  0.00  0.00    -0.271 OA
ATOM     43  N   NH2 d   1     -21.289  60.626  -3.261  0.00  0.00    -0.368 N 
ATOM     44  H   NH2 d   1     -21.456  60.983  -4.202  0.00  0.00     0.159 HD
ATOM     45  H   NH2 d   1     -21.026  61.266  -2.512  0.00  0.00     0.159 HD
ENDBRANCH  39  41
BRANCH  39  46
ATOM     46  CB  PHE d   1     -20.007  57.875  -1.567  0.00  0.00    -0.014 C 
ATOM     47  H   PHE d   1     -19.096  58.377  -1.892  0.00  0.00     0.043 H 
ATOM     48  H   PHE d   1     -20.312  57.057  -2.219  0.00  0.00     0.043 H 
BRANCH  46  49
ATOM     49  CG  PHE d   1     -19.740  57.294  -0.215  0.00  0.00    -0.056 A 
ATOM     50  CD1 PHE d   1     -20.303  56.085   0.153  0.00  0.00    -0.077 A 
ATOM     51  CE1 PHE d   1     -20.059  55.549   1.390  0.00  0.00    -0.082 A 
ATOM     52  H   PHE d   1     -20.947  55.554  -0.548  0.00  0.00     0.084 H 
ATOM     53  CZ  PHE d   1     -19.237  56.217   2.288  0.00  0.00    -0.083 A 
ATOM     54  H   PHE d   1     -20.511  54.597   1.670  0.00  0.00     0.083 H 
ATOM     55  CE2 PHE d   1     -18.667  57.421   1.932  0.00  0.00    -0.082 A 
ATOM     56  H   PHE d   1     -19.043  55.791   3.272  0.00  0.00     0.083 H 
ATOM     57  CD2 PHE d   1     -18.923  57.956   0.685  0.00  0.00    -0.077 A 
ATOM     58  H   PHE d   1     -18.018  57.948   2.631  0.00  0.00     0.083 H 
ATOM     59  H   PHE d   1     -18.477  58.910   0.406  0.00  0.00     0.084 H 
ENDBRANCH  46  49
ENDBRANCH  39  46
ENDBRANCH  37  39
ENDBRANCH   1  35
BRANCH   1  60
ATOM     60  CB  THR d   1     -25.143  58.567   0.198  0.00  0.00     0.060 C 
ATOM     61  H   THR d   1     -25.007  58.524  -0.883  0.00  0.00     0.086 H 
BRANCH  60  62
ATOM     62  OG1 THR d   1     -25.341  59.924   0.614  0.00  0.00    -0.393 OA
ATOM     63  H   THR d   1     -26.131  60.274   0.195  0.00  0.00     0.210 HD
ENDBRANCH  60  62
BRANCH  60  64
ATOM     64  CG2 THR d   1     -26.370  57.740   0.558  0.00  0.00    -0.050 C 
ATOM     65  H   THR d   1     -26.226  56.713   0.223  0.00  0.00     0.031 H 
ATOM     66  H   THR d   1     -26.512  57.754   1.639  0.00  0.00     0.031 H 
ATOM     67  H   THR d   1     -27.248  58.163   0.069  0.00  0.00     0.031 H 
ENDBRANCH  60  64
ENDBRANCH   1  60
TORSDOF 15
