REMARK  15 active torsions:
REMARK  status: ('A' for Active; 'I' for Inactive)
REMARK    1  A    between atoms: N_1  and  CA_2 
REMARK    2  A    between atoms: CA_2  and  CB_3 
REMARK    3  A    between atoms: CA_2  and  C_5 
REMARK    4  A    between atoms: CB_3  and  OG_4 
REMARK    5  A    between atoms: OG_4  and  P_7 
REMARK       I    between atoms: C_5  and  N_11 
REMARK    6  A    between atoms: CA_12  and  C_13 
REMARK       I    between atoms: C_13  and  N_18 
REMARK    7  A    between atoms: N_18  and  CA_19 
REMARK    8  A    between atoms: CA_19  and  C_20 
REMARK    9  A    between atoms: CA_19  and  CB_22 
REMARK       I    between atoms: C_20  and  N_25 
REMARK   10  A    between atoms: CB_22  and  OG1_23 
REMARK   11  A    between atoms: CB_22  and  CG2_24 
REMARK   12  A    between atoms: N_25  and  CA_26 
REMARK   13  A    between atoms: CA_26  and  C_27 
REMARK   14  A    between atoms: CA_26  and  CB_29 
REMARK   15  A    between atoms: CB_29  and  CG_30 
ROOT
ATOM      1  CA  THR d   1     -24.014  57.737   0.681  0.00  0.00     0.113 C 
ATOM      2  H   THR d   1     -23.945  56.665   0.499  0.00  0.00     0.091 H 
ENDROOT
BRANCH   1   3
ATOM      3  N   THR d   1     -24.040  57.889   2.132  0.00  0.00    -0.344 N 
ATOM      4  C   PRO d   1     -24.200  56.826   2.913  0.00  0.00     0.241 C 
ATOM      5  O   PRO d   1     -24.443  55.702   2.472  0.00  0.00    -0.271 OA
ATOM      6  H   THR d   1     -23.935  58.814   2.548  0.00  0.00     0.163 HD
BRANCH   4   7
ATOM      7  CA  PRO d   1     -24.105  57.041   4.413  0.00  0.00     0.091 C 
ATOM      8  N   PRO d   1     -24.643  55.871   5.086  0.00  0.00    -0.337 N 
ATOM      9  C   SEP d   1     -25.975  55.834   5.133  0.00  0.00     0.253 C 
ATOM     10  CD  PRO d   1     -23.645  55.214   5.940  0.00  0.00    -0.001 C 
ATOM     11  O   SEP d   1     -26.673  56.724   4.654  0.00  0.00    -0.271 OA
ATOM     12  CG  PRO d   1     -22.651  56.312   6.161  0.00  0.00    -0.048 C 
ATOM     13  H   PRO d   1     -23.210  54.323   5.487  0.00  0.00     0.064 H 
ATOM     14  H   PRO d   1     -24.063  54.818   6.865  0.00  0.00     0.064 H 
ATOM     15  CB  PRO d   1     -22.646  57.055   4.861  0.00  0.00    -0.036 C 
ATOM     16  H   PRO d   1     -22.918  56.950   7.003  0.00  0.00     0.035 H 
ATOM     17  H   PRO d   1     -21.664  55.932   6.426  0.00  0.00     0.035 H 
ATOM     18  H   PRO d   1     -22.260  58.069   4.969  0.00  0.00     0.036 H 
ATOM     19  H   PRO d   1     -21.987  56.592   4.127  0.00  0.00     0.036 H 
ATOM     20  H   PRO d   1     -24.624  57.972   4.643  0.00  0.00     0.087 H 
BRANCH   9  21
ATOM     21  CA  SEP d   1     -26.617  54.623   5.763  0.00  0.00     0.196 C 
ATOM     22  H   SEP d   1     -25.990  54.164   6.527  0.00  0.00     0.102 H 
BRANCH  21  23
ATOM     23  N   SEP d   1     -27.903  55.110   6.321  0.00  0.00    -0.064 N 
ATOM     24  H   SEP d   1     -28.394  54.335   6.766  0.00  0.00     0.275 HD
ATOM     25  H   SEP d   1     -27.719  55.839   7.011  0.00  0.00     0.275 HD
ATOM     26  H   SEP d   1     -28.477  55.490   5.568  0.00  0.00     0.275 HD
ENDBRANCH  21  23
BRANCH  21  27
ATOM     27  CB  SEP d   1     -26.887  53.593   4.681  0.00  0.00     0.067 C 
ATOM     28  H   SEP d   1     -26.280  53.834   3.808  0.00  0.00     0.079 H 
ATOM     29  H   SEP d   1     -27.948  53.614   4.434  0.00  0.00     0.079 H 
BRANCH  27  30
ATOM     30  OG  SEP d   1     -26.550  52.300   5.125  0.00  0.00    -0.280 OA
BRANCH  30  31
ATOM     31  P   SEP d   1     -27.598  51.322   4.415  0.00  0.00     0.422 P 
ATOM     32  O1P SEP d   1     -27.045  50.675   3.053  0.00  0.00    -0.617 OA
ATOM     33  O2P SEP d   1     -28.827  52.337   4.147  0.00  0.00    -0.617 OA
ATOM     34  O3P SEP d   1     -27.947  50.055   5.332  0.00  0.00    -0.617 OA
ENDBRANCH  30  31
ENDBRANCH  27  30
ENDBRANCH  21  27
ENDBRANCH   9  21
ENDBRANCH   4   7
ENDBRANCH   1   3
BRANCH   1  35
ATOM     35  C   THR d   1     -22.799  58.392   0.028  0.00  0.00     0.243 C 
ATOM     36  O   THR d   1     -22.107  59.211   0.643  0.00  0.00    -0.271 OA
ATOM     37  N   PHE d   1     -22.549  58.028  -1.228  0.00  0.00    -0.344 N 
ATOM     38  H   PHE d   1     -23.232  57.458  -1.726  0.00  0.00     0.163 HD
BRANCH  37  39
ATOM     39  CA  PHE d   1     -21.316  58.427  -1.911  0.00  0.00     0.100 C 
ATOM     40  H   PHE d   1     -20.968  59.326  -1.403  0.00  0.00     0.090 H 
BRANCH  39  41
ATOM     41  C   PHE d   1     -21.517  58.815  -3.378  0.00  0.00     0.197 C 
ATOM     42  O   PHE d   1     -20.847  59.724  -3.877  0.00  0.00    -0.646 OA
ATOM     43  OXT PHE d   1     -22.288  58.188  -4.116  0.00  0.00    -0.646 OA
ENDBRANCH  39  41
BRANCH  39  44
ATOM     44  CB  PHE d   1     -20.269  57.318  -1.802  0.00  0.00    -0.013 C 
ATOM     45  H   PHE d   1     -19.370  57.665  -2.312  0.00  0.00     0.043 H 
ATOM     46  H   PHE d   1     -20.698  56.418  -2.241  0.00  0.00     0.043 H 
BRANCH  44  47
ATOM     47  CG  PHE d   1     -19.889  56.993  -0.392  0.00  0.00    -0.056 A 
ATOM     48  CD1 PHE d   1     -20.191  55.758   0.149  0.00  0.00    -0.077 A 
ATOM     49  CE1 PHE d   1     -19.902  55.482   1.454  0.00  0.00    -0.082 A 
ATOM     50  H   PHE d   1     -20.664  54.997  -0.472  0.00  0.00     0.084 H 
ATOM     51  CZ  PHE d   1     -19.303  56.435   2.244  0.00  0.00    -0.083 A 
ATOM     52  H   PHE d   1     -20.146  54.505   1.871  0.00  0.00     0.083 H 
ATOM     53  CE2 PHE d   1     -18.995  57.668   1.714  0.00  0.00    -0.082 A 
ATOM     54  H   PHE d   1     -19.073  56.215   3.286  0.00  0.00     0.083 H 
ATOM     55  CD2 PHE d   1     -19.316  57.953   0.414  0.00  0.00    -0.077 A 
ATOM     56  H   PHE d   1     -18.496  58.417   2.329  0.00  0.00     0.083 H 
ATOM     57  H   PHE d   1     -19.117  58.947   0.013  0.00  0.00     0.084 H 
ENDBRANCH  44  47
ENDBRANCH  39  44
ENDBRANCH  37  39
ENDBRANCH   1  35
BRANCH   1  58
ATOM     58  CB  THR d   1     -25.287  58.287   0.049  0.00  0.00     0.060 C 
ATOM     59  H   THR d   1     -25.070  58.622  -0.965  0.00  0.00     0.086 H 
BRANCH  58  60
ATOM     60  OG1 THR d   1     -25.758  59.384   0.838  0.00  0.00    -0.393 OA
ATOM     61  H   THR d   1     -26.561  59.737   0.447  0.00  0.00     0.210 HD
ENDBRANCH  58  60
BRANCH  58  62
ATOM     62  CG2 THR d   1     -26.361  57.204  -0.021  0.00  0.00    -0.050 C 
ATOM     63  H   THR d   1     -25.997  56.372  -0.623  0.00  0.00     0.031 H 
ATOM     64  H   THR d   1     -26.588  56.853   0.986  0.00  0.00     0.031 H 
ATOM     65  H   THR d   1     -27.262  57.616  -0.475  0.00  0.00     0.031 H 
ENDBRANCH  58  62
ENDBRANCH   1  58
TORSDOF 15
