REMARK  12 active torsions:
REMARK  status: ('A' for Active; 'I' for Inactive)
REMARK    1  A    between atoms: C2_5  and  C1_1 
REMARK    2  A    between atoms: N1_3  and  C2_5 
REMARK       I    between atoms: C3_9  and  N1_3 
REMARK    3  A    between atoms: C2_5  and  C22_36 
REMARK    4  A    between atoms: N2_7  and  C8_22 
REMARK    5  A    between atoms: C14_28  and  O2_8 
REMARK    6  A    between atoms: C4_13  and  C3_9 
REMARK    7  A    between atoms: N4_15  and  C12_26 
REMARK    8  A    between atoms: C13_27  and  N4_15 
REMARK       I    between atoms: C22_36  and  N5_18 
REMARK    9  A    between atoms: C14_28  and  C13_27 
REMARK   10  A    between atoms: C14_28  and  C15_29 
REMARK   11  A    between atoms: C14_28  and  C16_30 
REMARK   12  A    between atoms: C18_32  and  C19_33 
ROOT
ATOM      1  N2  JZS d   1     -21.170  26.837  16.023  0.00  0.00    -0.234 N 
ATOM      2  N3  JZS d   1     -20.048  26.176  15.732  0.00  0.00    -0.178 NA
ATOM      3  C10 JZS d   1     -19.561  25.828  16.917  0.00  0.00     0.036 A 
ATOM      4  C11 JZS d   1     -20.382  26.260  17.974  0.00  0.00     0.038 A 
ATOM      5  C12 JZS d   1     -20.320  26.147  19.343  0.00  0.00     0.042 A 
ATOM      6  C17 JZS d   1     -21.359  26.726  20.020  0.00  0.00    -0.051 A 
ATOM      7  C18 JZS d   1     -22.390  27.374  19.391  0.00  0.00    -0.058 A 
ATOM      8  C20 JZS d   1     -22.459  27.493  18.030  0.00  0.00    -0.048 A 
ATOM      9  C21 JZS d   1     -21.421  26.912  17.360  0.00  0.00     0.073 A 
ATOM     10  H14 JZS d   1     -18.634  25.273  17.055  0.00  0.00     0.118 H 
ATOM     11  H17 JZS d   1     -21.367  26.669  21.102  0.00  0.00     0.087 H 
ATOM     12  H21 JZS d   1     -23.270  28.006  17.526  0.00  0.00     0.087 H 
ENDROOT
BRANCH   1  13
ATOM     13  C8  JZS d   1     -21.779  27.567  15.015  0.00  0.00     0.060 A 
ATOM     14  C7  JZS d   1     -22.642  26.922  14.169  0.00  0.00    -0.055 A 
ATOM     15  C6  JZS d   1     -23.246  27.623  13.155  0.00  0.00    -0.080 A 
ATOM     16  H12 JZS d   1     -22.846  25.866  14.299  0.00  0.00     0.087 H 
ATOM     17  C5  JZS d   1     -22.985  28.959  12.989  0.00  0.00    -0.068 A 
ATOM     18  H11 JZS d   1     -23.931  27.119  12.483  0.00  0.00     0.083 H 
ATOM     19  C4  JZS d   1     -22.116  29.578  13.849  0.00  0.00     0.034 A 
ATOM     20  H8  JZS d   1     -23.459  29.517  12.190  0.00  0.00     0.085 H 
ATOM     21  C9  JZS d   1     -21.498  28.900  14.869  0.00  0.00    -0.040 A 
ATOM     22  H13 JZS d   1     -20.809  29.403  15.538  0.00  0.00     0.088 H 
BRANCH  19  23
ATOM     23  C3  JZS d   1     -21.832  30.994  13.682  0.00  0.00     0.252 C 
ATOM     24  N1  JZS d   1     -22.006  31.468  12.419  0.00  0.00    -0.344 N 
ATOM     25  H4  JZS d   1     -22.060  30.841  11.642  0.00  0.00     0.163 HD
ATOM     26  O1  JZS d   1     -21.461  31.642  14.640  0.00  0.00    -0.268 OA
BRANCH  24  27
ATOM     27  C2  JZS d   1     -22.111  32.886  12.225  0.00  0.00     0.086 C 
ATOM     28  H5  JZS d   1     -22.616  33.359  13.080  0.00  0.00     0.086 H 
BRANCH  27  29
ATOM     29  C1  JZS d   1     -22.828  33.210  10.946  0.00  0.00    -0.049 C 
ATOM     30  H1  JZS d   1     -22.891  34.302  10.828  0.00  0.00     0.030 H 
ATOM     31  H2  JZS d   1     -23.842  32.785  10.976  0.00  0.00     0.030 H 
ATOM     32  H3  JZS d   1     -22.276  32.781  10.097  0.00  0.00     0.030 H 
ENDBRANCH  27  29
BRANCH  27  33
ATOM     33  C22 JZS d   1     -20.712  33.376  12.074  0.00  0.00     0.237 C 
ATOM     34  O3  JZS d   1     -20.417  34.555  12.104  0.00  0.00    -0.271 OA
ATOM     35  N5  JZS d   1     -19.826  32.363  11.901  0.00  0.00    -0.368 N 
ATOM     36  H9  JZS d   1     -18.853  32.564  11.788  0.00  0.00     0.159 HD
ATOM     37  H10 JZS d   1     -20.146  31.416  11.887  0.00  0.00     0.159 HD
ENDBRANCH  27  33
ENDBRANCH  24  27
ENDBRANCH  19  23
ENDBRANCH   1  13
BRANCH   5  38
ATOM     38  N4  JZS d   1     -19.280  25.490  19.998  0.00  0.00    -0.386 N 
ATOM     39  H7  JZS d   1     -18.550  24.925  19.540  0.00  0.00     0.159 HD
BRANCH  38  40
ATOM     40  C13 JZS d   1     -19.385  25.725  21.416  0.00  0.00     0.039 C 
ATOM     41  H15 JZS d   1     -20.172  25.085  21.841  0.00  0.00     0.069 H 
ATOM     42  H16 JZS d   1     -19.632  26.781  21.600  0.00  0.00     0.069 H 
BRANCH  40  43
ATOM     43  C14 JZS d   1     -18.061  25.394  22.055  0.00  0.00     0.269 C 
BRANCH  43  44
ATOM     44  O2  JZS d   1     -17.559  24.225  21.459  0.00  0.00    -0.373 OA
ATOM     45  H6  JZS d   1     -16.723  24.004  21.853  0.00  0.00     0.211 HD
ENDBRANCH  43  44
BRANCH  43  46
ATOM     46  C15 JZS d   1     -17.073  26.499  21.848  0.00  0.00     0.428 C 
ATOM     47  F1  JZS d   1     -16.881  26.722  20.540  0.00  0.00    -0.167 F 
ATOM     48  F2  JZS d   1     -15.880  26.210  22.389  0.00  0.00    -0.167 F 
ATOM     49  F3  JZS d   1     -17.508  27.633  22.420  0.00  0.00    -0.167 F 
ENDBRANCH  43  46
BRANCH  43  50
ATOM     50  C16 JZS d   1     -18.199  25.141  23.519  0.00  0.00     0.428 C 
ATOM     51  F4  JZS d   1     -17.007  25.213  24.127  0.00  0.00    -0.167 F 
ATOM     52  F5  JZS d   1     -18.690  23.917  23.750  0.00  0.00    -0.167 F 
ATOM     53  F6  JZS d   1     -19.000  26.042  24.100  0.00  0.00    -0.167 F 
ENDBRANCH  43  50
ENDBRANCH  40  43
ENDBRANCH  38  40
ENDBRANCH   5  38
BRANCH   7  54
ATOM     54  C19 JZS d   1     -23.472  27.973  20.204  0.00  0.00    -0.051 C 
ATOM     55  H18 JZS d   1     -24.209  28.448  19.540  0.00  0.00     0.033 H 
ATOM     56  H19 JZS d   1     -23.047  28.729  20.880  0.00  0.00     0.033 H 
ATOM     57  H20 JZS d   1     -23.964  27.187  20.796  0.00  0.00     0.033 H 
ENDBRANCH   7  54
TORSDOF 12
