REMARK  16 active torsions:
REMARK  status: ('A' for Active; 'I' for Inactive)
REMARK    1  A    between atoms: O1_4  and  C1_1 
REMARK    2  A    between atoms: N1_3  and  C13_26 
REMARK    3  A    between atoms: C14_27  and  N1_3 
REMARK    4  A    between atoms: C2_5  and  O1_4 
REMARK    5  A    between atoms: C22_35  and  N2_7 
REMARK    6  A    between atoms: C12_25  and  O2_8 
REMARK       I    between atoms: N4_15  and  C28_41 
REMARK       I    between atoms: C33_46  and  N5_18 
REMARK    7  A    between atoms: C8_21  and  C7_20 
REMARK    8  A    between atoms: C8_21  and  C9_22 
REMARK    9  A    between atoms: C8_21  and  C10_23 
REMARK   10  A    between atoms: C11_24  and  C8_21 
REMARK   11  A    between atoms: C12_25  and  C11_24 
REMARK   12  A    between atoms: C13_26  and  C12_25 
REMARK   13  A    between atoms: C12_25  and  C34_47 
REMARK   14  A    between atoms: C16_29  and  C17_30 
REMARK   15  A    between atoms: C28_41  and  C26_39 
REMARK   16  A    between atoms: C32_45  and  C33_46 
ROOT
ATOM      1  N2  JZN d   1      58.152   6.981  -2.116  0.00  0.00    -0.234 N 
ATOM      2  N3  JZN d   1      59.251   7.730  -1.961  0.00  0.00    -0.178 NA
ATOM      3  C14 JZN d   1      60.118   5.109  -4.336  0.00  0.00     0.042 A 
ATOM      4  C15 JZN d   1      59.248   4.126  -4.744  0.00  0.00    -0.051 A 
ATOM      5  C16 JZN d   1      57.958   4.054  -4.285  0.00  0.00    -0.058 A 
ATOM      6  C18 JZN d   1      57.446   4.961  -3.388  0.00  0.00    -0.048 A 
ATOM      7  C19 JZN d   1      58.316   5.935  -2.981  0.00  0.00     0.073 A 
ATOM      8  C20 JZN d   1      60.141   7.151  -2.770  0.00  0.00     0.036 A 
ATOM      9  C21 JZN d   1      59.613   6.020  -3.432  0.00  0.00     0.038 A 
ATOM     10  H21 JZN d   1      59.594   3.382  -5.453  0.00  0.00     0.087 H 
ATOM     11  H25 JZN d   1      56.425   4.908  -3.029  0.00  0.00     0.087 H 
ATOM     12  H26 JZN d   1      61.160   7.510  -2.905  0.00  0.00     0.118 H 
ENDROOT
BRANCH   3  13
ATOM     13  N1  JZN d   1      61.442   5.251  -4.757  0.00  0.00    -0.386 N 
ATOM     14  H4  JZN d   1      62.074   5.939  -4.322  0.00  0.00     0.159 HD
BRANCH  13  15
ATOM     15  C13 JZN d   1      61.891   4.384  -5.838  0.00  0.00     0.030 C 
ATOM     16  H19 JZN d   1      61.771   4.892  -6.806  0.00  0.00     0.069 H 
ATOM     17  H20 JZN d   1      61.312   3.449  -5.840  0.00  0.00     0.069 H 
BRANCH  15  18
ATOM     18  C12 JZN d   1      63.348   4.093  -5.580  0.00  0.00     0.172 C 
BRANCH  18  19
ATOM     19  O2  JZN d   1      63.852   5.214  -4.897  0.00  0.00    -0.379 OA
ATOM     20  H5  JZN d   1      63.364   5.339  -4.092  0.00  0.00     0.211 HD
ENDBRANCH  18  19
BRANCH  18  21
ATOM     21  C11 JZN d   1      64.241   4.070  -6.805  0.00  0.00    -0.016 C 
ATOM     22  H17 JZN d   1      64.217   5.085  -7.227  0.00  0.00     0.039 H 
ATOM     23  H18 JZN d   1      65.256   3.846  -6.446  0.00  0.00     0.039 H 
BRANCH  21  24
ATOM     24  C8  JZN d   1      63.972   3.120  -7.955  0.00  0.00    -0.015 C 
BRANCH  24  25
ATOM     25  C7  JZN d   1      62.660   3.329  -8.655  0.00  0.00    -0.014 A 
ATOM     26  C2  JZN d   1      61.677   2.360  -8.748  0.00  0.00     0.075 A 
ATOM     27  C3  JZN d   1      60.494   2.591  -9.408  0.00  0.00    -0.047 A 
ATOM     28  C4  JZN d   1      60.264   3.812  -9.993  0.00  0.00    -0.043 A 
ATOM     29  H6  JZN d   1      59.744   1.811  -9.467  0.00  0.00     0.087 H 
ATOM     30  C5  JZN d   1      61.229   4.783  -9.910  0.00  0.00     0.117 A 
ATOM     31  H7  JZN d   1      59.333   4.006 -10.513  0.00  0.00     0.088 H 
ATOM     32  F1  JZN d   1      60.997   5.970 -10.483  0.00  0.00    -0.206 F 
ATOM     33  C6  JZN d   1      62.416   4.549  -9.253  0.00  0.00    -0.036 A 
ATOM     34  H10 JZN d   1      63.166   5.330  -9.205  0.00  0.00     0.089 H 
BRANCH  26  35
ATOM     35  O1  JZN d   1      61.822   1.109  -8.195  0.00  0.00    -0.355 OA
BRANCH  35  36
ATOM     36  C1  JZN d   1      61.069   1.158  -6.992  0.00  0.00     0.010 C 
ATOM     37  H1  JZN d   1      61.132   0.186  -6.480  0.00  0.00     0.066 H 
ATOM     38  H2  JZN d   1      60.018   1.382  -7.226  0.00  0.00     0.066 H 
ATOM     39  H3  JZN d   1      61.474   1.944  -6.337  0.00  0.00     0.066 H 
ENDBRANCH  35  36
ENDBRANCH  26  35
ENDBRANCH  24  25
BRANCH  24  40
ATOM     40  C9  JZN d   1      64.211   1.688  -7.551  0.00  0.00    -0.065 C 
ATOM     41  H11 JZN d   1      65.185   1.607  -7.046  0.00  0.00     0.028 H 
ATOM     42  H12 JZN d   1      64.208   1.049  -8.446  0.00  0.00     0.028 H 
ATOM     43  H13 JZN d   1      63.415   1.363  -6.866  0.00  0.00     0.028 H 
ENDBRANCH  24  40
BRANCH  24  44
ATOM     44  C10 JZN d   1      65.053   3.413  -8.972  0.00  0.00    -0.065 C 
ATOM     45  H14 JZN d   1      64.953   4.450  -9.325  0.00  0.00     0.028 H 
ATOM     46  H15 JZN d   1      64.951   2.724  -9.824  0.00  0.00     0.028 H 
ATOM     47  H16 JZN d   1      66.040   3.278  -8.507  0.00  0.00     0.028 H 
ENDBRANCH  24  44
ENDBRANCH  21  24
ENDBRANCH  18  21
BRANCH  18  48
ATOM     48  C34 JZN d   1      63.565   3.035  -4.527  0.00  0.00     0.419 C 
ATOM     49  F2  JZN d   1      64.356   3.506  -3.530  0.00  0.00    -0.168 F 
ATOM     50  F3  JZN d   1      62.409   2.641  -3.931  0.00  0.00    -0.168 F 
ATOM     51  F4  JZN d   1      64.196   1.957  -5.016  0.00  0.00    -0.168 F 
ENDBRANCH  18  48
ENDBRANCH  15  18
ENDBRANCH  13  15
ENDBRANCH   3  13
BRANCH   5  52
ATOM     52  C17 JZN d   1      57.104   2.945  -4.796  0.00  0.00    -0.051 C 
ATOM     53  H22 JZN d   1      56.104   3.014  -4.344  0.00  0.00     0.033 H 
ATOM     54  H23 JZN d   1      57.560   1.979  -4.531  0.00  0.00     0.033 H 
ATOM     55  H24 JZN d   1      57.018   3.022  -5.890  0.00  0.00     0.033 H 
ENDBRANCH   5  52
BRANCH   1  56
ATOM     56  C22 JZN d   1      57.094   7.104  -1.236  0.00  0.00     0.059 A 
ATOM     57  C23 JZN d   1      56.010   7.894  -1.543  0.00  0.00    -0.055 A 
ATOM     58  C24 JZN d   1      54.975   7.974  -0.634  0.00  0.00    -0.080 A 
ATOM     59  H27 JZN d   1      55.970   8.441  -2.478  0.00  0.00     0.087 H 
ATOM     60  C25 JZN d   1      55.029   7.276   0.556  0.00  0.00    -0.068 A 
ATOM     61  H28 JZN d   1      54.111   8.591  -0.856  0.00  0.00     0.083 H 
ATOM     62  C26 JZN d   1      56.129   6.494   0.835  0.00  0.00     0.028 A 
ATOM     63  H29 JZN d   1      54.212   7.343   1.266  0.00  0.00     0.085 H 
ATOM     64  C27 JZN d   1      57.171   6.404  -0.061  0.00  0.00    -0.040 A 
ATOM     65  H30 JZN d   1      58.037   5.790   0.160  0.00  0.00     0.088 H 
BRANCH  62  66
ATOM     66  C28 JZN d   1      56.287   5.714   2.069  0.00  0.00     0.234 C 
ATOM     67  O3  JZN d   1      57.331   5.099   2.214  0.00  0.00    -0.274 OA
ATOM     68  N4  JZN d   1      55.307   5.679   3.021  0.00  0.00    -0.236 NA
ATOM     69  C29 JZN d   1      54.910   4.354   3.396  0.00  0.00    -0.013 C 
ATOM     70  C32 JZN d   1      55.638   6.344   4.239  0.00  0.00     0.079 C 
ATOM     71  C30 JZN d   1      55.664   3.999   4.662  0.00  0.00    -0.052 C 
ATOM     72  H31 JZN d   1      55.164   3.644   2.595  0.00  0.00     0.056 H 
ATOM     73  H32 JZN d   1      53.826   4.324   3.582  0.00  0.00     0.056 H 
ATOM     74  C31 JZN d   1      56.055   5.310   5.261  0.00  0.00    -0.041 C 
ATOM     75  H33 JZN d   1      56.556   3.401   4.426  0.00  0.00     0.034 H 
ATOM     76  H34 JZN d   1      55.018   3.437   5.352  0.00  0.00     0.034 H 
ATOM     77  H35 JZN d   1      57.141   5.350   5.431  0.00  0.00     0.036 H 
ATOM     78  H36 JZN d   1      55.529   5.473   6.213  0.00  0.00     0.036 H 
ATOM     79  H37 JZN d   1      56.422   7.105   4.113  0.00  0.00     0.079 H 
BRANCH  70  80
ATOM     80  C33 JZN d   1      54.330   6.935   4.575  0.00  0.00     0.233 C 
ATOM     81  O4  JZN d   1      53.521   7.322   3.749  0.00  0.00    -0.272 OA
ATOM     82  N5  JZN d   1      54.188   6.972   5.925  0.00  0.00    -0.369 N 
ATOM     83  H8  JZN d   1      54.918   6.626   6.514  0.00  0.00     0.159 HD
ATOM     84  H9  JZN d   1      53.353   7.345   6.330  0.00  0.00     0.159 HD
ENDBRANCH  70  80
ENDBRANCH  62  66
ENDBRANCH   1  56
TORSDOF 16
