REMARK  15 active torsions:
REMARK  status: ('A' for Active; 'I' for Inactive)
REMARK    1  A    between atoms: N_1  and  CA_2 
REMARK    2  A    between atoms: CA_2  and  CB_3 
REMARK    3  A    between atoms: CA_2  and  C_8 
REMARK    4  A    between atoms: CB_3  and  CG_4 
REMARK    5  A    between atoms: CG_4  and  CD_5 
REMARK    6  A    between atoms: CD_5  and  CE_6 
REMARK    7  A    between atoms: CE_6  and  NZ_7 
REMARK    8  A    between atoms: NZ_7  and  CM1_10 
REMARK    9  A    between atoms: NZ_7  and  CM2_11 
REMARK   10  A    between atoms: NZ_7  and  CM3_12 
REMARK       I    between atoms: C_8  and  N_13 
REMARK   11  A    between atoms: N_13  and  CA_14 
REMARK   12  A    between atoms: CA_14  and  C_15 
REMARK   13  A    between atoms: CA_14  and  CB_17 
REMARK   14  A    between atoms: CB_17  and  CG_18 
REMARK   15  A    between atoms: CG_18  and  CD_19 
REMARK       I    between atoms: CD_19  and  NE2_21 
ROOT
ATOM      1  CA  M3L d   1     -17.392  28.957 -27.832  0.00  0.00     0.176 C 
ATOM      2  H4  M3L d   1     -16.941  29.539 -27.015  0.00  0.00     0.099 H 
ENDROOT
BRANCH   1   3
ATOM      3  N   M3L d   1     -18.716  29.724 -28.153  0.00  0.00    -0.067 N 
ATOM      4  H1  M3L d   1     -19.335  29.671 -27.360  0.00  0.00     0.275 HD
ATOM      5  H2  M3L d   1     -19.161  29.305 -28.955  0.00  0.00     0.275 HD
ATOM      6  H3  M3L d   1     -18.505  30.690 -28.351  0.00  0.00     0.275 HD
ENDBRANCH   1   3
BRANCH   1   7
ATOM      7  CB  M3L d   1     -17.456  27.507 -27.302  0.00  0.00    -0.030 C 
ATOM      8  H5  M3L d   1     -16.944  26.865 -28.034  0.00  0.00     0.036 H 
ATOM      9  H6  M3L d   1     -18.517  27.223 -27.245  0.00  0.00     0.036 H 
BRANCH   7  10
ATOM     10  CG  M3L d   1     -16.822  27.225 -25.910  0.00  0.00    -0.061 C 
ATOM     11  H7  M3L d   1     -17.408  27.743 -25.136  0.00  0.00     0.033 H 
ATOM     12  H8  M3L d   1     -15.789  27.603 -25.902  0.00  0.00     0.033 H 
BRANCH  10  13
ATOM     13  CD  M3L d   1     -16.808  25.697 -25.601  0.00  0.00    -0.042 C 
ATOM     14  H9  M3L d   1     -16.261  25.194 -26.412  0.00  0.00     0.035 H 
ATOM     15  H10 M3L d   1     -17.850  25.346 -25.589  0.00  0.00     0.035 H 
BRANCH  13  16
ATOM     16  CE  M3L d   1     -16.151  25.284 -24.257  0.00  0.00     0.084 C 
ATOM     17  H11 M3L d   1     -16.289  26.122 -23.558  0.00  0.00     0.076 H 
ATOM     18  H12 M3L d   1     -15.078  25.142 -24.451  0.00  0.00     0.076 H 
BRANCH  16  19
ATOM     19  NZ  M3L d   1     -16.648  24.034 -23.560  0.00  0.00    -0.079 N 
BRANCH  19  20
ATOM     20  CM1 M3L d   1     -16.962  24.206 -22.125  0.00  0.00     0.067 C 
ATOM     21  H13 M3L d   1     -17.313  23.250 -21.709  0.00  0.00     0.068 H 
ATOM     22  H14 M3L d   1     -17.749  24.966 -22.010  0.00  0.00     0.068 H 
ATOM     23  H15 M3L d   1     -16.058  24.530 -21.588  0.00  0.00     0.068 H 
ENDBRANCH  19  20
BRANCH  19  24
ATOM     24  CM2 M3L d   1     -15.465  23.193 -23.577  0.00  0.00     0.067 C 
ATOM     25  H16 M3L d   1     -15.159  23.012 -24.618  0.00  0.00     0.068 H 
ATOM     26  H17 M3L d   1     -15.690  22.233 -23.089  0.00  0.00     0.068 H 
ATOM     27  H18 M3L d   1     -14.649  23.696 -23.037  0.00  0.00     0.068 H 
ENDBRANCH  19  24
BRANCH  19  28
ATOM     28  CM3 M3L d   1     -17.725  23.359 -24.334  0.00  0.00     0.067 C 
ATOM     29  H19 M3L d   1     -18.628  23.986 -24.329  0.00  0.00     0.068 H 
ATOM     30  H20 M3L d   1     -17.952  22.386 -23.874  0.00  0.00     0.068 H 
ATOM     31  H21 M3L d   1     -17.391  23.206 -25.371  0.00  0.00     0.068 H 
ENDBRANCH  19  28
ENDBRANCH  16  19
ENDBRANCH  13  16
ENDBRANCH  10  13
ENDBRANCH   7  10
ENDBRANCH   1   7
BRANCH   1  32
ATOM     32  C   M3L d   1     -16.387  28.983 -28.983  0.00  0.00     0.249 C 
ATOM     33  O   M3L d   1     -15.188  29.062 -28.709  0.00  0.00    -0.271 OA
ATOM     34  N   GLN d   1     -16.880  28.936 -30.250  0.00  0.00    -0.345 N 
ATOM     35  H22 GLN d   1     -17.852  28.729 -30.361  0.00  0.00     0.163 HD
BRANCH  34  36
ATOM     36  CA  GLN d   1     -16.068  29.173 -31.500  0.00  0.00     0.096 C 
ATOM     37  H23 GLN d   1     -15.048  29.417 -31.167  0.00  0.00     0.089 H 
BRANCH  36  38
ATOM     38  C   GLN d   1     -16.545  30.328 -32.406  0.00  0.00     0.196 C 
ATOM     39  O   GLN d   1     -17.469  31.066 -32.052  0.00  0.00    -0.646 OA
ATOM     40  OXT GLN d   1     -16.010  30.533 -33.500  0.00  0.00    -0.646 OA
ENDBRANCH  36  38
BRANCH  36  41
ATOM     41  CB  GLN d   1     -15.998  27.923 -32.374  0.00  0.00    -0.029 C 
ATOM     42  H24 GLN d   1     -15.045  27.937 -32.923  0.00  0.00     0.037 H 
ATOM     43  H25 GLN d   1     -16.834  27.953 -33.089  0.00  0.00     0.037 H 
BRANCH  41  44
ATOM     44  CG  GLN d   1     -16.081  26.632 -31.602  0.00  0.00     0.011 C 
ATOM     45  H26 GLN d   1     -17.091  26.539 -31.177  0.00  0.00     0.047 H 
ATOM     46  H27 GLN d   1     -15.342  26.659 -30.788  0.00  0.00     0.047 H 
BRANCH  44  47
ATOM     47  CD  GLN d   1     -15.804  25.418 -32.474  0.00  0.00     0.215 C 
ATOM     48  OE1 GLN d   1     -16.434  25.235 -33.541  0.00  0.00    -0.274 OA
ATOM     49  NE2 GLN d   1     -14.876  24.570 -32.017  0.00  0.00    -0.370 N 
ATOM     50  H28 GLN d   1     -14.645  23.751 -32.542  0.00  0.00     0.159 HD
ATOM     51  H29 GLN d   1     -14.413  24.755 -31.150  0.00  0.00     0.159 HD
ENDBRANCH  44  47
ENDBRANCH  41  44
ENDBRANCH  36  41
ENDBRANCH  34  36
ENDBRANCH   1  32
TORSDOF 15
