REMARK WARNING: 32 MAX_TORS EXCEEDED!!!
REMARK  35 active torsions:
REMARK  status: ('A' for Active; 'I' for Inactive)
REMARK    1  A    between atoms: N_1  and  CA_2 
REMARK    2  A    between atoms: CA_2  and  C_3 
REMARK    3  A    between atoms: CA_2  and  CB_5 
REMARK       I    between atoms: C_3  and  N_8 
REMARK    4  A    between atoms: CB_5  and  OG1_6 
REMARK    5  A    between atoms: CB_5  and  CG2_7 
REMARK    6  A    between atoms: N_8  and  CA_9 
REMARK    7  A    between atoms: CA_9  and  C_10 
REMARK    8  A    between atoms: CA_9  and  CB_12 
REMARK       I    between atoms: C_10  and  N_13 
REMARK    9  A    between atoms: N_13  and  CA_14 
REMARK   10  A    between atoms: CA_14  and  C_15 
REMARK   11  A    between atoms: CA_14  and  CB_17 
REMARK       I    between atoms: C_15  and  N_24 
REMARK   12  A    between atoms: CB_17  and  CG_18 
REMARK   13  A    between atoms: CG_18  and  CD_19 
REMARK   14  A    between atoms: CD_19  and  NE_20 
REMARK       I    between atoms: NE_20  and  CZ_21 
REMARK       I    between atoms: CZ_21  and  NH1_22 
REMARK   15  A    between atoms: N_24  and  CA_25 
REMARK   16  A    between atoms: CA_25  and  CB_26 
REMARK   17  A    between atoms: CA_25  and  C_31 
REMARK   18  A    between atoms: CB_26  and  CG_27 
REMARK   19  A    between atoms: CG_27  and  CD_28 
REMARK   20  A    between atoms: CD_28  and  CE_29 
REMARK   21  A    between atoms: CE_29  and  NZ_30 
REMARK   22  A    between atoms: NZ_30  and  CM1_33 
REMARK   23  A    between atoms: NZ_30  and  CM2_34 
REMARK   24  A    between atoms: NZ_30  and  CM3_35 
REMARK       I    between atoms: C_31  and  N_36 
REMARK   25  A    between atoms: N_36  and  CA_37 
REMARK   26  A    between atoms: CA_37  and  C_38 
REMARK   27  A    between atoms: CA_37  and  CB_40 
REMARK       I    between atoms: C_38  and  N_42 
REMARK   28  A    between atoms: CB_40  and  OG_41 
REMARK   29  A    between atoms: N_42  and  CA_43 
REMARK   30  A    between atoms: CA_43  and  C_44 
REMARK   31  A    between atoms: CA_43  and  CB_46 
REMARK       I    between atoms: C_44  and  N_49 
REMARK   32  A    between atoms: CB_46  and  OG1_47 
REMARK   33  A    between atoms: CB_46  and  CG2_48 
REMARK   34  A    between atoms: N_49  and  CA_50 
REMARK   35  A    between atoms: CA_50  and  C_51 
ROOT
ATOM      1  CA  M3L d   1     -17.270  29.563 -27.374  0.00  0.00     0.089 C 
ATOM      2  H   M3L d   1     -16.635  30.081 -26.655  0.00  0.00     0.087 H 
ENDROOT
BRANCH   1   3
ATOM      3  N   M3L d   1     -18.379  30.477 -27.745  0.00  0.00    -0.346 N 
ATOM      4  C   ARG d   1     -18.162  31.781 -27.917  0.00  0.00     0.241 C 
ATOM      5  O   ARG d   1     -17.056  32.331 -27.823  0.00  0.00    -0.271 OA
ATOM      6  H   M3L d   1     -19.320  30.102 -27.870  0.00  0.00     0.163 HD
BRANCH   4   7
ATOM      7  CA  ARG d   1     -19.388  32.590 -28.310  0.00  0.00     0.089 C 
ATOM      8  H   ARG d   1     -20.320  32.207 -27.894  0.00  0.00     0.087 H 
BRANCH   7   9
ATOM      9  N   ARG d   1     -19.308  33.960 -27.758  0.00  0.00    -0.346 N 
ATOM     10  C   ALA d   1     -19.968  34.275 -26.639  0.00  0.00     0.240 C 
ATOM     11  O   ALA d   1     -20.670  33.455 -26.007  0.00  0.00    -0.271 OA
ATOM     12  H   ARG d   1     -18.747  34.667 -28.233  0.00  0.00     0.163 HD
BRANCH  10  13
ATOM     13  CA  ALA d   1     -19.795  35.705 -26.102  0.00  0.00     0.086 C 
ATOM     14  H   ALA d   1     -19.505  36.334 -26.944  0.00  0.00     0.086 H 
BRANCH  13  15
ATOM     15  N   ALA d   1     -21.053  36.264 -25.557  0.00  0.00    -0.346 N 
ATOM     16  C   THR d   1     -22.149  36.454 -26.322  0.00  0.00     0.251 C 
ATOM     17  O   THR d   1     -22.267  35.954 -27.483  0.00  0.00    -0.271 OA
ATOM     18  H   ALA d   1     -21.093  36.514 -24.569  0.00  0.00     0.163 HD
BRANCH  16  19
ATOM     19  CA  THR d   1     -23.264  37.435 -25.756  0.00  0.00     0.199 C 
ATOM     20  H   THR d   1     -22.796  37.867 -24.871  0.00  0.00     0.103 H 
BRANCH  19  21
ATOM     21  N   THR d   1     -23.604  38.494 -26.795  0.00  0.00    -0.064 N 
ATOM     22  H   THR d   1     -22.742  38.907 -27.152  0.00  0.00     0.275 HD
ATOM     23  H   THR d   1     -24.120  38.063 -27.562  0.00  0.00     0.275 HD
ATOM     24  H   THR d   1     -24.177  39.220 -26.364  0.00  0.00     0.275 HD
ENDBRANCH  19  21
BRANCH  19  25
ATOM     25  CB  THR d   1     -24.580  36.789 -25.195  0.00  0.00     0.068 C 
ATOM     26  H   THR d   1     -25.063  37.523 -24.550  0.00  0.00     0.086 H 
BRANCH  25  27
ATOM     27  OG1 THR d   1     -24.291  35.644 -24.356  0.00  0.00    -0.393 OA
ATOM     28  H   THR d   1     -25.114  35.272 -24.029  0.00  0.00     0.210 HD
ENDBRANCH  25  27
BRANCH  25  29
ATOM     29  CG2 THR d   1     -25.631  36.479 -26.350  0.00  0.00    -0.050 C 
ATOM     30  H   THR d   1     -25.239  35.692 -26.994  0.00  0.00     0.031 H 
ATOM     31  H   THR d   1     -26.571  36.153 -25.906  0.00  0.00     0.031 H 
ATOM     32  H   THR d   1     -25.799  37.381 -26.938  0.00  0.00     0.031 H 
ENDBRANCH  25  29
ENDBRANCH  19  25
ENDBRANCH  16  19
ENDBRANCH  13  15
BRANCH  13  33
ATOM     33  CB  ALA d   1     -18.708  35.729 -25.037  0.00  0.00    -0.049 C 
ATOM     34  H   ALA d   1     -18.535  36.757 -24.719  0.00  0.00     0.030 H 
ATOM     35  H   ALA d   1     -19.025  35.131 -24.182  0.00  0.00     0.030 H 
ATOM     36  H   ALA d   1     -17.788  35.316 -25.450  0.00  0.00     0.030 H 
ENDBRANCH  13  33
ENDBRANCH  10  13
ENDBRANCH   7   9
BRANCH   7  37
ATOM     37  CB  ARG d   1     -19.451  32.502 -29.828  0.00  0.00    -0.036 C 
ATOM     38  H   ARG d   1     -19.937  31.544 -30.014  0.00  0.00     0.036 H 
ATOM     39  H   ARG d   1     -18.424  32.689 -30.143  0.00  0.00     0.036 H 
BRANCH  37  40
ATOM     40  CG  ARG d   1     -20.272  33.494 -30.649  0.00  0.00    -0.048 C 
ATOM     41  H   ARG d   1     -21.135  33.825 -30.072  0.00  0.00     0.035 H 
ATOM     42  H   ARG d   1     -20.623  33.015 -31.563  0.00  0.00     0.035 H 
BRANCH  40  43
ATOM     43  CD  ARG d   1     -19.361  34.735 -31.010  0.00  0.00     0.009 C 
ATOM     44  H   ARG d   1     -18.894  35.061 -30.081  0.00  0.00     0.064 H 
ATOM     45  H   ARG d   1     -20.009  35.470 -31.487  0.00  0.00     0.064 H 
BRANCH  43  46
ATOM     46  NE  ARG d   1     -18.259  34.454 -31.965  0.00  0.00    -0.227 N 
ATOM     47  CZ  ARG d   1     -17.233  35.279 -32.234  0.00  0.00     0.665 C 
ATOM     48  NH1 ARG d   1     -17.124  36.464 -31.618  0.00  0.00    -0.235 N 
ATOM     49  NH2 ARG d   1     -16.302  34.908 -33.130  0.00  0.00    -0.235 N 
ATOM     50  H   ARG d   1     -17.825  36.750 -30.935  0.00  0.00     0.174 HD
ATOM     51  H   ARG d   1     -16.340  37.080 -31.832  0.00  0.00     0.174 HD
ATOM     52  H   ARG d   1     -16.378  34.006 -33.600  0.00  0.00     0.174 HD
ATOM     53  H   ARG d   1     -15.520  35.529 -33.340  0.00  0.00     0.174 HD
ATOM     54  H   ARG d   1     -18.283  33.561 -32.457  0.00  0.00     0.177 HD
ENDBRANCH  43  46
ENDBRANCH  40  43
ENDBRANCH  37  40
ENDBRANCH   7  37
ENDBRANCH   4   7
ENDBRANCH   1   3
BRANCH   1  55
ATOM     55  CB  M3L d   1     -17.808  28.293 -26.695  0.00  0.00    -0.038 C 
ATOM     56  H   M3L d   1     -18.290  27.667 -27.445  0.00  0.00     0.036 H 
ATOM     57  H   M3L d   1     -18.522  28.579 -25.922  0.00  0.00     0.036 H 
BRANCH  55  58
ATOM     58  CG  M3L d   1     -16.659  27.503 -26.047  0.00  0.00    -0.061 C 
ATOM     59  H   M3L d   1     -16.174  28.096 -25.272  0.00  0.00     0.033 H 
ATOM     60  H   M3L d   1     -15.896  27.257 -26.786  0.00  0.00     0.033 H 
BRANCH  58  61
ATOM     61  CD  M3L d   1     -17.273  26.219 -25.448  0.00  0.00    -0.042 C 
ATOM     62  H   M3L d   1     -17.765  25.658 -26.243  0.00  0.00     0.035 H 
ATOM     63  H   M3L d   1     -17.990  26.497 -24.675  0.00  0.00     0.035 H 
BRANCH  61  64
ATOM     64  CE  M3L d   1     -16.145  25.312 -24.801  0.00  0.00     0.084 C 
ATOM     65  H   M3L d   1     -15.633  25.936 -24.068  0.00  0.00     0.076 H 
ATOM     66  H   M3L d   1     -15.534  24.948 -25.627  0.00  0.00     0.076 H 
BRANCH  64  67
ATOM     67  NZ  M3L d   1     -16.625  24.093 -24.059  0.00  0.00    -0.079 N 
BRANCH  67  68
ATOM     68  CM1 M3L d   1     -17.376  24.357 -22.811  0.00  0.00     0.067 C 
ATOM     69  H   M3L d   1     -16.742  24.909 -22.117  0.00  0.00     0.068 H 
ATOM     70  H   M3L d   1     -18.264  24.946 -23.041  0.00  0.00     0.068 H 
ATOM     71  H   M3L d   1     -17.673  23.410 -22.360  0.00  0.00     0.068 H 
ENDBRANCH  67  68
BRANCH  67  72
ATOM     72  CM2 M3L d   1     -15.423  23.394 -23.539  0.00  0.00     0.067 C 
ATOM     73  H   M3L d   1     -14.781  23.108 -24.373  0.00  0.00     0.068 H 
ATOM     74  H   M3L d   1     -14.877  24.060 -22.871  0.00  0.00     0.068 H 
ATOM     75  H   M3L d   1     -15.731  22.502 -22.993  0.00  0.00     0.068 H 
ENDBRANCH  67  72
BRANCH  67  76
ATOM     76  CM3 M3L d   1     -17.460  23.269 -24.979  0.00  0.00     0.067 C 
ATOM     77  H   M3L d   1     -18.314  23.857 -25.317  0.00  0.00     0.068 H 
ATOM     78  H   M3L d   1     -16.862  22.967 -25.839  0.00  0.00     0.068 H 
ATOM     79  H   M3L d   1     -17.813  22.383 -24.451  0.00  0.00     0.068 H 
ENDBRANCH  67  76
ENDBRANCH  64  67
ENDBRANCH  61  64
ENDBRANCH  58  61
ENDBRANCH  55  58
ENDBRANCH   1  55
BRANCH   1  80
ATOM     80  C   M3L d   1     -16.419  29.227 -28.568  0.00  0.00     0.241 C 
ATOM     81  O   M3L d   1     -15.262  28.879 -28.444  0.00  0.00    -0.271 OA
ATOM     82  N   SER d   1     -17.011  29.363 -29.743  0.00  0.00    -0.344 N 
ATOM     83  H   SER d   1     -17.971  29.706 -29.780  0.00  0.00     0.163 HD
BRANCH  82  84
ATOM     84  CA  SER d   1     -16.319  29.032 -30.994  0.00  0.00     0.109 C 
ATOM     85  H   SER d   1     -15.248  29.005 -30.793  0.00  0.00     0.090 H 
BRANCH  84  86
ATOM     86  C   SER d   1     -16.492  30.082 -32.114  0.00  0.00     0.243 C 
ATOM     87  O   SER d   1     -17.503  30.748 -32.179  0.00  0.00    -0.271 OA
ATOM     88  N   THR d   1     -15.515  30.160 -33.027  0.00  0.00    -0.344 N 
ATOM     89  H   THR d   1     -14.652  29.637 -32.880  0.00  0.00     0.163 HD
BRANCH  88  90
ATOM     90  CA  THR d   1     -15.660  30.989 -34.246  0.00  0.00     0.113 C 
ATOM     91  H   THR d   1     -16.004  31.979 -33.947  0.00  0.00     0.091 H 
BRANCH  90  92
ATOM     92  C   THR d   1     -16.753  30.419 -35.187  0.00  0.00     0.243 C 
ATOM     93  O   THR d   1     -17.407  31.163 -35.927  0.00  0.00    -0.271 OA
ATOM     94  N   GLY d   1     -16.963  29.102 -35.121  0.00  0.00    -0.349 N 
ATOM     95  H   GLY d   1     -16.392  28.545 -34.485  0.00  0.00     0.163 HD
BRANCH  94  96
ATOM     96  CA  GLY d   1     -17.984  28.426 -35.928  0.00  0.00     0.075 C 
ATOM     97  H   GLY d   1     -18.790  29.130 -36.134  0.00  0.00     0.080 H 
ATOM     98  H   GLY d   1     -18.353  27.562 -35.375  0.00  0.00     0.080 H 
BRANCH  96  99
ATOM     99  C   GLY d   1     -17.392  27.939 -37.274  0.00  0.00     0.191 C 
ATOM    100  O   GLY d   1     -18.156  27.552 -38.199  0.00  0.00    -0.647 OA
ATOM    101  O1  GLY d   1     -16.144  27.930 -37.445  0.00  0.00    -0.647 OA
ENDBRANCH  96  99
ENDBRANCH  94  96
ENDBRANCH  90  92
BRANCH  90 102
ATOM    102  CB  THR d   1     -14.263  31.216 -34.966  0.00  0.00     0.060 C 
ATOM    103  H   THR d   1     -14.434  31.249 -36.042  0.00  0.00     0.086 H 
BRANCH 102 104
ATOM    104  OG1 THR d   1     -13.372  30.140 -34.632  0.00  0.00    -0.393 OA
ATOM    105  H   THR d   1     -13.243  30.117 -33.681  0.00  0.00     0.210 HD
ENDBRANCH 102 104
BRANCH 102 106
ATOM    106  CG2 THR d   1     -13.617  32.559 -34.513  0.00  0.00    -0.050 C 
ATOM    107  H   THR d   1     -14.282  33.385 -34.768  0.00  0.00     0.031 H 
ATOM    108  H   THR d   1     -13.457  32.538 -33.435  0.00  0.00     0.031 H 
ATOM    109  H   THR d   1     -12.661  32.691 -35.021  0.00  0.00     0.031 H 
ENDBRANCH 102 106
ENDBRANCH  90 102
ENDBRANCH  88  90
ENDBRANCH  84  86
BRANCH  84 110
ATOM    110  CB  SER d   1     -16.867  27.690 -31.458  0.00  0.00     0.044 C 
ATOM    111  H   SER d   1     -17.907  27.795 -31.767  0.00  0.00     0.077 H 
ATOM    112  H   SER d   1     -16.827  26.966 -30.644  0.00  0.00     0.077 H 
BRANCH 110 113
ATOM    113  OG  SER d   1     -16.094  27.255 -32.523  0.00  0.00    -0.398 OA
ATOM    114  H   SER d   1     -15.182  27.160 -32.237  0.00  0.00     0.209 HD
ENDBRANCH 110 113
ENDBRANCH  84 110
ENDBRANCH  82  84
ENDBRANCH   1  80
TORSDOF 35
