REMARK  11 active torsions:
REMARK  status: ('A' for Active; 'I' for Inactive)
REMARK    1  A    between atoms: C2_1  and  N25_2 
REMARK       I    between atoms: N25_2  and  C26_3 
REMARK       I    between atoms: C26_3  and  N30_4 
REMARK       I    between atoms: C26_3  and  N27_5 
REMARK    2  A    between atoms: C3_6  and  C10_7 
REMARK    3  A    between atoms: C10_7  and  C24_8 
REMARK    4  A    between atoms: C10_7  and  N11_13 
REMARK    5  A    between atoms: C24_8  and  C37_9 
REMARK    6  A    between atoms: C24_8  and  C36_11 
REMARK    7  A    between atoms: C37_9  and  C38_10 
REMARK    8  A    between atoms: C36_11  and  C39_12 
REMARK       I    between atoms: N11_13  and  C13_14 
REMARK    9  A    between atoms: C13_14  and  C15_15 
REMARK   10  A    between atoms: C4_17  and  O9_18 
REMARK   11  A    between atoms: C5_19  and  C6_20 
ROOT
ATOM      1  C10 BCZ d   1       6.967  17.727  27.143  0.00  0.00     0.023 C 
ATOM      2  H   BCZ d   1       7.896  18.226  26.865  0.00  0.00     0.073 H 
ENDROOT
BRANCH   1   3
ATOM      3  C3  BCZ d   1       7.343  16.242  27.119  0.00  0.00     0.012 C 
ATOM      4  C2  BCZ d   1       7.699  15.734  25.749  0.00  0.00     0.035 C 
ATOM      5  C1  BCZ d   1       8.372  14.408  26.056  0.00  0.00    -0.030 C 
ATOM      6  H   BCZ d   1       8.337  16.421  25.192  0.00  0.00     0.074 H 
ATOM      7  C5  BCZ d   1       9.264  14.709  27.252  0.00  0.00     0.057 C 
ATOM      8  H   BCZ d   1       8.939  14.028  25.206  0.00  0.00     0.037 H 
ATOM      9  H   BCZ d   1       7.650  13.620  26.270  0.00  0.00     0.037 H 
ATOM     10  C4  BCZ d   1       8.568  15.862  27.950  0.00  0.00     0.056 C 
ATOM     11  H   BCZ d   1      10.296  14.917  26.970  0.00  0.00     0.060 H 
ATOM     12  H   BCZ d   1       8.233  15.632  28.961  0.00  0.00     0.085 H 
ATOM     13  H   BCZ d   1       6.431  15.802  27.523  0.00  0.00     0.050 H 
BRANCH   4  14
ATOM     14  N25 BCZ d   1       6.543  15.592  24.877  0.00  0.00    -0.222 N 
ATOM     15  C26 BCZ d   1       6.533  15.870  23.522  0.00  0.00     0.665 C 
ATOM     16  N30 BCZ d   1       5.320  15.828  22.843  0.00  0.00    -0.235 N 
ATOM     17  N27 BCZ d   1       7.698  16.202  22.867  0.00  0.00    -0.235 N 
ATOM     18  H   BCZ d   1       5.285  16.045  21.847  0.00  0.00     0.174 HD
ATOM     19  H   BCZ d   1       4.465  15.581  23.341  0.00  0.00     0.174 HD
ATOM     20  H   BCZ d   1       7.678  16.421  21.871  0.00  0.00     0.174 HD
ATOM     21  H   BCZ d   1       8.580  16.229  23.378  0.00  0.00     0.174 HD
ATOM     22  H   BCZ d   1       5.674  15.262  25.297  0.00  0.00     0.178 HD
ENDBRANCH   4  14
BRANCH   7  23
ATOM     23  C6  BCZ d   1       9.200  13.504  28.212  0.00  0.00     0.179 C 
ATOM     24  O8  BCZ d   1       9.511  12.377  27.772  0.00  0.00    -0.648 OA
ATOM     25  O7  BCZ d   1       8.848  13.733  29.375  0.00  0.00    -0.648 OA
ENDBRANCH   7  23
BRANCH  10  26
ATOM     26  O9  BCZ d   1       9.528  16.915  27.956  0.00  0.00    -0.394 OA
ATOM     27  H   BCZ d   1       9.810  17.095  27.056  0.00  0.00     0.210 HD
ENDBRANCH  10  26
ENDBRANCH   1   3
BRANCH   1  28
ATOM     28  C24 BCZ d   1       6.558  18.265  28.524  0.00  0.00    -0.035 C 
ATOM     29  H   BCZ d   1       7.397  18.003  29.169  0.00  0.00     0.043 H 
BRANCH  28  30
ATOM     30  C37 BCZ d   1       6.365  19.770  28.515  0.00  0.00    -0.063 C 
ATOM     31  H   BCZ d   1       5.842  20.056  29.428  0.00  0.00     0.033 H 
ATOM     32  H   BCZ d   1       5.794  20.040  27.626  0.00  0.00     0.033 H 
BRANCH  30  33
ATOM     33  C38 BCZ d   1       7.688  20.498  28.473  0.00  0.00    -0.076 C 
ATOM     34  H   BCZ d   1       8.277  20.230  29.351  0.00  0.00     0.027 H 
ATOM     35  H   BCZ d   1       8.229  20.214  27.571  0.00  0.00     0.027 H 
ATOM     36  H   BCZ d   1       7.510  21.573  28.468  0.00  0.00     0.027 H 
ENDBRANCH  30  33
ENDBRANCH  28  30
BRANCH  28  37
ATOM     37  C36 BCZ d   1       5.324  17.617  29.100  0.00  0.00    -0.063 C 
ATOM     38  H   BCZ d   1       5.247  16.595  28.730  0.00  0.00     0.033 H 
ATOM     39  H   BCZ d   1       4.444  18.186  28.799  0.00  0.00     0.033 H 
BRANCH  37  40
ATOM     40  C39 BCZ d   1       5.413  17.597  30.601  0.00  0.00    -0.076 C 
ATOM     41  H   BCZ d   1       6.293  17.030  30.904  0.00  0.00     0.027 H 
ATOM     42  H   BCZ d   1       5.491  18.619  30.973  0.00  0.00     0.027 H 
ATOM     43  H   BCZ d   1       4.519  17.128  31.011  0.00  0.00     0.027 H 
ENDBRANCH  37  40
ENDBRANCH  28  37
ENDBRANCH   1  28
BRANCH   1  44
ATOM     44  N11 BCZ d   1       5.938  18.050  26.189  0.00  0.00    -0.356 N 
ATOM     45  C13 BCZ d   1       6.181  18.868  25.106  0.00  0.00     0.213 C 
ATOM     46  O14 BCZ d   1       7.241  19.410  24.812  0.00  0.00    -0.274 OA
ATOM     47  H   BCZ d   1       5.003  17.663  26.318  0.00  0.00     0.162 HD
BRANCH  45  48
ATOM     48  C15 BCZ d   1       4.946  19.032  24.275  0.00  0.00    -0.003 C 
ATOM     49  H   BCZ d   1       4.676  20.087  24.232  0.00  0.00     0.040 H 
ATOM     50  H   BCZ d   1       5.136  18.663  23.267  0.00  0.00     0.040 H 
ATOM     51  H   BCZ d   1       4.130  18.465  24.723  0.00  0.00     0.040 H 
ENDBRANCH  45  48
ENDBRANCH   1  44
TORSDOF 11
