REMARK  10 active torsions:
REMARK  status: ('A' for Active; 'I' for Inactive)
REMARK    1  A    between atoms: C1_1  and  C2_4 
REMARK    2  A    between atoms: C4_6  and  N4_20 
REMARK    3  A    between atoms: C5_7  and  N5_8 
REMARK       I    between atoms: N5_8  and  C10_9 
REMARK    4  A    between atoms: C10_9  and  C11_11 
REMARK    5  A    between atoms: C6_12  and  O7_14 
REMARK    6  A    between atoms: O7_14  and  C8_15 
REMARK    7  A    between atoms: C8_15  and  C9_16 
REMARK    8  A    between atoms: C8_15  and  C81_17 
REMARK    9  A    between atoms: C9_16  and  C91_19 
REMARK   10  A    between atoms: C81_17  and  C82_18 
ROOT
ATOM      1  C2  G39 d   1     -10.032 -27.675 -14.849  0.00  0.00     0.019 C 
ATOM      2  C3  G39 d   1      -9.799 -26.227 -14.502  0.00  0.00    -0.006 C 
ATOM      3  C4  G39 d   1      -8.758 -25.616 -15.468  0.00  0.00     0.126 C 
ATOM      4  C5  G39 d   1      -8.803 -26.386 -16.806  0.00  0.00     0.068 C 
ATOM      5  C6  G39 d   1      -8.697 -27.843 -16.893  0.00  0.00     0.077 C 
ATOM      6  C7  G39 d   1      -9.708 -28.383 -15.909  0.00  0.00    -0.061 C 
ATOM      7  H   G39 d   1      -9.426 -26.157 -13.480  0.00  0.00     0.043 H 
ATOM      8  H   G39 d   1     -10.738 -25.680 -14.592  0.00  0.00     0.043 H 
ATOM      9  H   G39 d   1      -7.790 -25.711 -14.975  0.00  0.00     0.087 H 
ATOM     10  H   G39 d   1      -9.847 -26.297 -17.105  0.00  0.00     0.080 H 
ATOM     11  H   G39 d   1      -7.739 -28.281 -16.614  0.00  0.00     0.093 H 
ATOM     12  H   G39 d   1     -10.168 -29.357 -16.077  0.00  0.00     0.082 H 
ENDROOT
BRANCH   5  13
ATOM     13  O7  G39 d   1      -8.876 -28.202 -18.311  0.00  0.00    -0.375 OA
BRANCH  13  14
ATOM     14  C8  G39 d   1      -8.008 -29.281 -18.705  0.00  0.00     0.039 C 
ATOM     15  H   G39 d   1      -7.015 -29.018 -18.340  0.00  0.00     0.083 H 
BRANCH  14  16
ATOM     16  C9  G39 d   1      -7.990 -29.427 -20.217  0.00  0.00    -0.044 C 
ATOM     17  H   G39 d   1      -8.969 -29.754 -20.568  0.00  0.00     0.036 H 
ATOM     18  H   G39 d   1      -7.247 -30.169 -20.508  0.00  0.00     0.036 H 
BRANCH  16  19
ATOM     19  C91 G39 d   1      -7.653 -28.118 -20.818  0.00  0.00    -0.074 C 
ATOM     20  H   G39 d   1      -8.402 -27.382 -20.526  0.00  0.00     0.027 H 
ATOM     21  H   G39 d   1      -6.672 -27.799 -20.465  0.00  0.00     0.027 H 
ATOM     22  H   G39 d   1      -7.637 -28.211 -21.904  0.00  0.00     0.027 H 
ENDBRANCH  16  19
ENDBRANCH  14  16
BRANCH  14  23
ATOM     23  C81 G39 d   1      -8.393 -30.624 -18.074  0.00  0.00    -0.044 C 
ATOM     24  H   G39 d   1      -8.323 -30.582 -16.987  0.00  0.00     0.036 H 
ATOM     25  H   G39 d   1      -7.715 -31.416 -18.392  0.00  0.00     0.036 H 
BRANCH  23  26
ATOM     26  C82 G39 d   1      -9.829 -30.912 -18.525  0.00  0.00    -0.074 C 
ATOM     27  H   G39 d   1     -10.485 -30.113 -18.178  0.00  0.00     0.027 H 
ATOM     28  H   G39 d   1      -9.863 -30.965 -19.613  0.00  0.00     0.027 H 
ATOM     29  H   G39 d   1     -10.157 -31.862 -18.103  0.00  0.00     0.027 H 
ENDBRANCH  23  26
ENDBRANCH  14  23
ENDBRANCH  13  14
ENDBRANCH   5  13
BRANCH   4  30
ATOM     30  N5  G39 d   1      -7.776 -25.750 -17.665  0.00  0.00    -0.352 N 
ATOM     31  C10 G39 d   1      -7.688 -24.778 -18.573  0.00  0.00     0.214 C 
ATOM     32  O10 G39 d   1      -8.647 -24.242 -19.097  0.00  0.00    -0.274 OA
ATOM     33  H   G39 d   1      -6.866 -26.186 -17.517  0.00  0.00     0.163 HD
BRANCH  31  34
ATOM     34  C11 G39 d   1      -6.303 -24.379 -19.044  0.00  0.00    -0.003 C 
ATOM     35  H   G39 d   1      -6.205 -24.599 -20.107  0.00  0.00     0.040 H 
ATOM     36  H   G39 d   1      -6.157 -23.312 -18.877  0.00  0.00     0.040 H 
ATOM     37  H   G39 d   1      -5.555 -24.941 -18.485  0.00  0.00     0.040 H 
ENDBRANCH  31  34
ENDBRANCH   4  30
BRANCH   3  38
ATOM     38  N4  G39 d   1      -8.951 -24.143 -15.742  0.00  0.00    -0.073 N 
ATOM     39  H   G39 d   1      -8.922 -23.628 -14.862  0.00  0.00     0.274 HD
ATOM     40  H   G39 d   1      -8.206 -23.812 -16.355  0.00  0.00     0.274 HD
ATOM     41  H   G39 d   1      -9.854 -23.998 -16.193  0.00  0.00     0.274 HD
ENDBRANCH   3  38
BRANCH   1  42
ATOM     42  C1  G39 d   1     -10.455 -28.426 -13.838  0.00  0.00     0.205 C 
ATOM     43  O1A G39 d   1     -10.441 -27.854 -12.715  0.00  0.00    -0.644 OA
ATOM     44  O1B G39 d   1     -10.624 -29.612 -14.027  0.00  0.00    -0.644 OA
ENDBRANCH   1  42
TORSDOF 10
