REMARK  4 active torsions:
REMARK  status: ('A' for Active; 'I' for Inactive)
REMARK    1  A    between atoms: C1_1  and  C10_7 
REMARK       I    between atoms: N22_13  and  C39_22 
REMARK    2  A    between atoms: C25_14  and  C26_15 
REMARK    3  A    between atoms: C29_17  and  O37_21 
REMARK    4  A    between atoms: C39_22  and  C41_24 
ROOT
ATOM      1  C1  L31 d   1      15.662 -20.240  21.645  0.00  0.00    -0.061 A 
ATOM      2  C2  L31 d   1      16.234 -19.949  22.932  0.00  0.00    -0.069 A 
ATOM      3  C3  L31 d   1      15.418 -19.266  23.939  0.00  0.00    -0.025 A 
ATOM      4  C4  L31 d   1      14.085 -18.900  23.646  0.00  0.00     0.035 A 
ATOM      5  C5  L31 d   1      13.499 -19.211  22.302  0.00  0.00    -0.057 A 
ATOM      6  C6  L31 d   1      14.272 -19.858  21.341  0.00  0.00    -0.075 A 
ATOM      7  C14 L31 d   1      15.713 -18.821  25.409  0.00  0.00    -0.003 C 
ATOM      8  C15 L31 d   1      14.479 -18.052  25.845  0.00  0.00     0.041 C 
ATOM      9  N16 L31 d   1      13.481 -18.208  24.833  0.00  0.00    -0.382 N 
ATOM     10  C18 L31 d   1      16.732 -19.235  26.497  0.00  0.00    -0.041 C 
ATOM     11  C19 L31 d   1      16.621 -18.507  27.886  0.00  0.00    -0.001 C 
ATOM     12  N22 L31 d   1      15.763 -17.291  27.887  0.00  0.00    -0.342 N 
ATOM     13  C25 L31 d   1      14.528 -17.222  27.134  0.00  0.00     0.060 C 
ATOM     14  C39 L31 d   1      16.313 -16.022  28.406  0.00  0.00     0.216 C 
ATOM     15  O40 L31 d   1      15.690 -15.019  28.288  0.00  0.00    -0.274 OA
ATOM     16  H1  L31 d   1      17.257 -20.232  23.154  0.00  0.00     0.085 H 
ATOM     17  H2  L31 d   1      12.475 -18.933  22.078  0.00  0.00     0.086 H 
ATOM     18  H3  L31 d   1      13.850 -20.081  20.368  0.00  0.00     0.084 H 
ATOM     19  H7  L31 d   1      16.328 -17.959  25.110  0.00  0.00     0.051 H 
ATOM     20  H8  L31 d   1      14.062 -18.892  26.421  0.00  0.00     0.077 H 
ATOM     21  H9  L31 d   1      12.502 -17.895  24.907  0.00  0.00     0.160 HD
ATOM     22  H10 L31 d   1      17.739 -19.042  26.100  0.00  0.00     0.036 H 
ATOM     23  H11 L31 d   1      16.608 -20.313  26.676  0.00  0.00     0.036 H 
ATOM     24  H12 L31 d   1      17.633 -18.212  28.199  0.00  0.00     0.064 H 
ATOM     25  H13 L31 d   1      16.205 -19.220  28.613  0.00  0.00     0.064 H 
ATOM     26  H14 L31 d   1      14.396 -16.170  26.840  0.00  0.00     0.083 H 
ENDROOT
BRANCH  13  27
ATOM     27  C26 L31 d   1      13.344 -17.616  28.034  0.00  0.00    -0.031 A 
ATOM     28  C28 L31 d   1      12.649 -16.626  28.733  0.00  0.00    -0.043 A 
ATOM     29  C29 L31 d   1      11.535 -16.977  29.567  0.00  0.00     0.066 A 
ATOM     30  H15 L31 d   1      12.952 -15.589  28.645  0.00  0.00     0.088 H 
ATOM     31  C30 L31 d   1      11.115 -18.384  29.690  0.00  0.00    -0.051 A 
ATOM     32  C31 L31 d   1      11.826 -19.403  28.971  0.00  0.00    -0.080 A 
ATOM     33  H16 L31 d   1      10.274 -18.648  30.320  0.00  0.00     0.087 H 
ATOM     34  C32 L31 d   1      12.909 -19.060  28.162  0.00  0.00    -0.075 A 
ATOM     35  H17 L31 d   1      11.521 -20.440  29.057  0.00  0.00     0.083 H 
ATOM     36  H18 L31 d   1      13.443 -19.833  27.621  0.00  0.00     0.084 H 
BRANCH  29  37
ATOM     37  O37 L31 d   1      10.842 -15.979  30.272  0.00  0.00    -0.361 OA
ATOM     38  H19 L31 d   1      11.233 -15.133  30.087  0.00  0.00     0.217 HD
ENDBRANCH  29  37
ENDBRANCH  13  27
BRANCH  14  39
ATOM     39  C41 L31 d   1      17.687 -15.942  29.030  0.00  0.00    -0.003 C 
ATOM     40  H20 L31 d   1      17.887 -14.907  29.344  0.00  0.00     0.040 H 
ATOM     41  H21 L31 d   1      18.443 -16.255  28.294  0.00  0.00     0.040 H 
ATOM     42  H22 L31 d   1      17.731 -16.606  29.906  0.00  0.00     0.040 H 
ENDBRANCH  14  39
BRANCH   1  43
ATOM     43  C10 L31 d   1      16.487 -20.954  20.564  0.00  0.00    -0.051 C 
ATOM     44  H4  L31 d   1      17.494 -21.166  20.952  0.00  0.00     0.033 H 
ATOM     45  H5  L31 d   1      16.564 -20.309  19.676  0.00  0.00     0.033 H 
ATOM     46  H6  L31 d   1      15.993 -21.898  20.290  0.00  0.00     0.033 H 
ENDBRANCH   1  43
TORSDOF 4
