REMARK  2 active torsions:
REMARK  status: ('A' for Active; 'I' for Inactive)
REMARK    1  A    between atoms: N1_1  and  CAA_3 
REMARK       I    between atoms: CAF_6  and  N1_1 
REMARK    2  A    between atoms: N2_2  and  CAB_4 
REMARK       I    between atoms: N2_2  and  CAF_6 
ROOT
ATOM      1  N1  MMU d   1      49.432 -12.405   6.879  0.00  0.00    -0.347 N 
ATOM      2  N2  MMU d   1      49.036 -12.407   9.120  0.00  0.00    -0.347 N 
ATOM      3  OAC MMU d   1      50.277 -14.027   8.201  0.00  0.00    -0.247 OA
ATOM      4  CAF MMU d   1      49.608 -12.992   8.069  0.00  0.00     0.315 C 
ATOM      5  H1  MMU d   1      48.891 -11.568   6.797  0.00  0.00     0.163 HD
ATOM      6  H2  MMU d   1      48.502 -11.567   9.025  0.00  0.00     0.163 HD
ENDROOT
BRANCH   1   7
ATOM      7  CAA MMU d   1      50.055 -13.022   5.689  0.00  0.00    -0.017 C 
ATOM      8  H3  MMU d   1      49.817 -12.422   4.798  0.00  0.00     0.056 H 
ATOM      9  H4  MMU d   1      49.666 -14.043   5.559  0.00  0.00     0.056 H 
ATOM     10  H5  MMU d   1      51.146 -13.060   5.824  0.00  0.00     0.056 H 
ENDBRANCH   1   7
BRANCH   2  11
ATOM     11  CAB MMU d   1      49.228 -13.058  10.434  0.00  0.00    -0.017 C 
ATOM     12  H6  MMU d   1      48.708 -12.477  11.210  0.00  0.00     0.056 H 
ATOM     13  H7  MMU d   1      50.302 -13.103  10.668  0.00  0.00     0.056 H 
ATOM     14  H8  MMU d   1      48.817 -14.078  10.402  0.00  0.00     0.056 H 
ENDBRANCH   2  11
TORSDOF 2
