REMARK  6 active torsions:
REMARK  status: ('A' for Active; 'I' for Inactive)
REMARK    1  A    between atoms: C2_1  and  CL1_24 
REMARK    2  A    between atoms: N8_10  and  C7_8 
REMARK    3  A    between atoms: C18_20  and  C14_16 
REMARK    4  A    between atoms: C19_21  and  C18_20 
REMARK    5  A    between atoms: C19_21  and  C20_22 
REMARK    6  A    between atoms: C19_21  and  C21_23 
ROOT
ATOM      1  N8  BYE d   1      78.130  50.757  42.301  0.00  0.00    -0.216 N 
ATOM      2  N9  BYE d   1      78.629  50.375  43.382  0.00  0.00    -0.177 NA
ATOM      3  C10 BYE d   1      77.865  50.735  44.438  0.00  0.00     0.041 A 
ATOM      4  C11 BYE d   1      76.967  51.402  42.538  0.00  0.00     0.148 A 
ATOM      5  C12 BYE d   1      76.775  51.413  43.912  0.00  0.00     0.099 A 
ATOM      6  N13 BYE d   1      76.056  52.007  41.730  0.00  0.00    -0.328 N 
ATOM      7  C14 BYE d   1      74.965  52.627  42.256  0.00  0.00     0.110 A 
ATOM      8  N15 BYE d   1      74.760  52.649  43.600  0.00  0.00    -0.196 NA
ATOM      9  C16 BYE d   1      75.662  52.046  44.452  0.00  0.00     0.284 A 
ATOM     10  O17 BYE d   1      75.486  52.092  45.668  0.00  0.00    -0.265 OA
ATOM     11  H5  BYE d   1      78.065  50.533  45.489  0.00  0.00     0.119 H 
ATOM     12  H6  BYE d   1      76.193  51.996  40.709  0.00  0.00     0.169 HD
ENDROOT
BRANCH   1  13
ATOM     13  C7  BYE d   1      78.725  50.630  41.091  0.00  0.00     0.066 A 
ATOM     14  C2  BYE d   1      78.088  50.011  40.022  0.00  0.00    -0.033 A 
ATOM     15  C3  BYE d   1      78.728  49.915  38.790  0.00  0.00    -0.075 A 
ATOM     16  C4  BYE d   1      80.009  50.432  38.623  0.00  0.00    -0.082 A 
ATOM     17  H1  BYE d   1      78.227  49.435  37.957  0.00  0.00     0.084 H 
ATOM     18  C5  BYE d   1      80.646  51.048  39.693  0.00  0.00    -0.081 A 
ATOM     19  H2  BYE d   1      80.507  50.355  37.663  0.00  0.00     0.083 H 
ATOM     20  C6  BYE d   1      80.004  51.147  40.924  0.00  0.00    -0.054 A 
ATOM     21  H3  BYE d   1      81.644  51.452  39.569  0.00  0.00     0.083 H 
ATOM     22  H4  BYE d   1      80.504  51.630  41.756  0.00  0.00     0.087 H 
BRANCH  14  23
ATOM     23  CL1 BYE d   1      76.521  49.321  40.200  0.00  0.00    -0.049 C 
ATOM     24  H13 BYE d   1      76.201  48.885  39.242  0.00  0.00     0.033 H 
ATOM     25  H14 BYE d   1      75.809  50.102  40.503  0.00  0.00     0.033 H 
ATOM     26  H15 BYE d   1      76.552  48.535  40.968  0.00  0.00     0.033 H 
ENDBRANCH  14  23
ENDBRANCH   1  13
BRANCH   7  27
ATOM     27  C18 BYE d   1      73.996  53.353  41.337  0.00  0.00     0.001 C 
ATOM     28  H7  BYE d   1      73.037  53.499  41.855  0.00  0.00     0.045 H 
ATOM     29  H8  BYE d   1      73.834  52.757  40.427  0.00  0.00     0.045 H 
BRANCH  27  30
ATOM     30  C19 BYE d   1      74.588  54.714  40.960  0.00  0.00     0.043 C 
ATOM     31  H9  BYE d   1      75.622  54.575  40.611  0.00  0.00     0.053 H 
BRANCH  30  32
ATOM     32  C20 BYE d   1      74.587  55.641  42.177  0.00  0.00    -0.064 C 
ATOM     33  H10 BYE d   1      75.185  55.190  42.982  0.00  0.00     0.028 H 
ATOM     34  H11 BYE d   1      73.554  55.787  42.526  0.00  0.00     0.028 H 
ATOM     35  H12 BYE d   1      75.021  56.613  41.898  0.00  0.00     0.028 H 
ENDBRANCH  30  32
BRANCH  30  36
ATOM     36  C21 BYE d   1      73.755  55.344  39.841  0.00  0.00     0.391 C 
ATOM     37  F5  BYE d   1      72.473  55.506  40.265  0.00  0.00    -0.171 F 
ATOM     38  F6  BYE d   1      73.769  54.542  38.743  0.00  0.00    -0.171 F 
ATOM     39  F7  BYE d   1      74.286  56.555  39.519  0.00  0.00    -0.171 F 
ENDBRANCH  30  36
ENDBRANCH  27  30
ENDBRANCH   7  27
TORSDOF 6
