REMARK  2 active torsions:
REMARK  status: ('A' for Active; 'I' for Inactive)
REMARK    1  A    between atoms: C4_3  and  C1_19 
REMARK    2  A    between atoms: C13_9  and  C11_16 
ROOT
ATOM      1  N1  JZJ d   1       2.146   3.752 -17.710  0.00  0.00    -0.060 N 
ATOM      2  C5  JZJ d   1       3.910   2.198 -18.535  0.00  0.00    -0.026 A 
ATOM      3  C6  JZJ d   1       4.251   1.919 -17.207  0.00  0.00    -0.048 A 
ATOM      4  C7  JZJ d   1       4.738   1.716 -19.577  0.00  0.00    -0.075 A 
ATOM      5  C8  JZJ d   1       5.377   1.166 -16.880  0.00  0.00    -0.076 A 
ATOM      6  C10 JZJ d   1       6.181   0.680 -17.917  0.00  0.00    -0.082 A 
ATOM      7  C1  JZJ d   1       2.009   2.761 -16.607  0.00  0.00     0.162 C 
ATOM      8  C2  JZJ d   1       2.682   3.020 -18.903  0.00  0.00     0.106 C 
ATOM      9  C3  JZJ d   1       3.384   2.417 -16.052  0.00  0.00    -0.007 C 
ATOM     10  C9  JZJ d   1       5.847   0.945 -19.237  0.00  0.00    -0.082 A 
ATOM     11  H1  JZJ d   1       2.784   4.484 -17.439  0.00  0.00     0.278 HD
ATOM     12  H2  JZJ d   1       1.247   4.153 -17.927  0.00  0.00     0.278 HD
ATOM     13  H3  JZJ d   1       4.515   1.941 -20.613  0.00  0.00     0.084 H 
ATOM     14  H4  JZJ d   1       5.625   0.961 -15.845  0.00  0.00     0.084 H 
ATOM     15  H5  JZJ d   1       7.065   0.096 -17.689  0.00  0.00     0.083 H 
ATOM     16  H12 JZJ d   1       1.523   1.849 -16.983  0.00  0.00     0.097 H 
ATOM     17  H13 JZJ d   1       2.957   3.750 -19.679  0.00  0.00     0.083 H 
ATOM     18  H14 JZJ d   1       1.903   2.348 -19.292  0.00  0.00     0.083 H 
ATOM     19  H15 JZJ d   1       3.839   3.312 -15.603  0.00  0.00     0.043 H 
ATOM     20  H16 JZJ d   1       3.292   1.630 -15.289  0.00  0.00     0.043 H 
ATOM     21  H17 JZJ d   1       6.468   0.540 -20.028  0.00  0.00     0.083 H 
ENDROOT
BRANCH   7  22
ATOM     22  C4  JZJ d   1       1.194   3.360 -15.543  0.00  0.00     0.136 A 
ATOM     23  N3  JZJ d   1      -0.012   2.881 -15.177  0.00  0.00    -0.231 NA
ATOM     24  C11 JZJ d   1      -0.495   3.700 -14.186  0.00  0.00     0.084 A 
ATOM     25  C12 JZJ d   1       0.481   4.652 -13.906  0.00  0.00     0.007 A 
ATOM     26  N2  JZJ d   1       1.533   4.431 -14.755  0.00  0.00    -0.350 N 
ATOM     27  H11 JZJ d   1       0.419   5.432 -13.149  0.00  0.00     0.115 H 
ATOM     28  H10 JZJ d   1       2.412   4.967 -14.794  0.00  0.00     0.166 HD
BRANCH  24  29
ATOM     29  C13 JZJ d   1      -1.796   3.510 -13.471  0.00  0.00    -0.006 A 
ATOM     30  C15 JZJ d   1      -2.434   4.581 -12.823  0.00  0.00    -0.070 A 
ATOM     31  C17 JZJ d   1      -3.650   4.338 -12.157  0.00  0.00    -0.065 A 
ATOM     32  H6  JZJ d   1      -1.999   5.574 -12.836  0.00  0.00     0.085 H 
ATOM     33  C18 JZJ d   1      -4.153   3.040 -12.154  0.00  0.00     0.011 A 
ATOM     34  H7  JZJ d   1      -4.181   5.141 -11.659  0.00  0.00     0.085 H 
ATOM     35 BR   JZJ d   1      -5.769   2.753 -11.162  0.00  0.00    -0.051 Br
ATOM     36  C16 JZJ d   1      -3.499   1.965 -12.742  0.00  0.00    -0.065 A 
ATOM     37  C14 JZJ d   1      -2.305   2.207 -13.421  0.00  0.00    -0.070 A 
ATOM     38  H9  JZJ d   1      -3.906   0.963 -12.675  0.00  0.00     0.085 H 
ATOM     39  H8  JZJ d   1      -1.776   1.394 -13.905  0.00  0.00     0.085 H 
ENDBRANCH  24  29
ENDBRANCH   7  22
TORSDOF 2
