REMARK  6 active torsions:
REMARK  status: ('A' for Active; 'I' for Inactive)
REMARK    1  A    between atoms: N1_1  and  C8_7 
REMARK       I    between atoms: N3_2  and  C6_5 
REMARK    2  A    between atoms: C11_29  and  N3_2 
REMARK    3  A    between atoms: C4_3  and  C10_8 
REMARK    4  A    between atoms: C7_6  and  C5_4 
REMARK    5  A    between atoms: C6_5  and  C1_27 
REMARK    6  A    between atoms: C11_29  and  C9_30 
ROOT
ATOM      1  N1  F4C d   1      -0.777   4.106 -14.244  0.00  0.00    -0.196 N 
ATOM      2  C4  F4C d   1       0.391   6.130 -13.794  0.00  0.00     0.089 A 
ATOM      3  C2  F4C d   1       0.103   3.714 -15.196  0.00  0.00     0.284 A 
ATOM      4  O1  F4C d   1      -0.033   2.624 -15.814  0.00  0.00    -0.265 OA
ATOM      5  N2  F4C d   1      -0.612   5.310 -13.562  0.00  0.00    -0.164 NA
ATOM      6  C3  F4C d   1       1.324   5.773 -14.793  0.00  0.00    -0.032 A 
ATOM      7  C1  F4C d   1       1.188   4.551 -15.474  0.00  0.00     0.104 A 
ATOM      8  H13 F4C d   1       2.147   6.444 -15.035  0.00  0.00     0.089 H 
ENDROOT
BRANCH   7   9
ATOM      9  C6  F4C d   1       2.185   4.187 -16.542  0.00  0.00     0.257 C 
ATOM     10  N3  F4C d   1       1.940   3.090 -17.268  0.00  0.00    -0.352 N 
ATOM     11  H1  F4C d   1       1.118   2.563 -17.051  0.00  0.00     0.163 HD
ATOM     12  O2  F4C d   1       3.171   4.910 -16.745  0.00  0.00    -0.267 OA
BRANCH  10  13
ATOM     13  C11 F4C d   1       2.770   2.618 -18.332  0.00  0.00     0.020 C 
ATOM     14  H14 F4C d   1       3.051   3.473 -18.965  0.00  0.00     0.071 H 
ATOM     15  H15 F4C d   1       2.199   1.892 -18.929  0.00  0.00     0.071 H 
BRANCH  13  16
ATOM     16  C9  F4C d   1       4.034   1.948 -17.833  0.00  0.00    -0.025 A 
ATOM     17  C7  F4C d   1       4.898   1.373 -18.763  0.00  0.00     0.055 A 
ATOM     18  C17 F4C d   1       6.075   0.717 -18.383  0.00  0.00    -0.068 A 
ATOM     19  C23 F4C d   1       6.377   0.650 -17.035  0.00  0.00    -0.082 A 
ATOM     20  H4  F4C d   1       6.731   0.274 -19.124  0.00  0.00     0.084 H 
ATOM     21  C24 F4C d   1       5.522   1.244 -16.080  0.00  0.00    -0.082 A 
ATOM     22  H16 F4C d   1       7.276   0.139 -16.709  0.00  0.00     0.083 H 
ATOM     23  C22 F4C d   1       4.344   1.884 -16.472  0.00  0.00    -0.074 A 
ATOM     24  H8  F4C d   1       5.784   1.202 -15.029  0.00  0.00     0.083 H 
ATOM     25  H7  F4C d   1       3.682   2.323 -15.734  0.00  0.00     0.084 H 
BRANCH  17  26
ATOM     26  C5  F4C d   1       4.569   1.442 -20.224  0.00  0.00     0.418 C 
ATOM     27  F1  F4C d   1       5.664   1.137 -20.907  0.00  0.00    -0.166 F 
ATOM     28  F2  F4C d   1       3.576   0.609 -20.509  0.00  0.00    -0.166 F 
ATOM     29  F3  F4C d   1       4.189   2.679 -20.514  0.00  0.00    -0.166 F 
ENDBRANCH  17  26
ENDBRANCH  13  16
ENDBRANCH  10  13
ENDBRANCH   7   9
BRANCH   1  30
ATOM     30  C8  F4C d   1      -1.921   3.431 -13.774  0.00  0.00     0.062 A 
ATOM     31  C13 F4C d   1      -3.095   4.185 -13.731  0.00  0.00    -0.052 A 
ATOM     32  C15 F4C d   1      -4.253   3.625 -13.232  0.00  0.00    -0.043 A 
ATOM     33  H2  F4C d   1      -3.097   5.208 -14.089  0.00  0.00     0.087 H 
ATOM     34  C14 F4C d   1      -4.234   2.313 -12.772  0.00  0.00     0.116 A 
ATOM     35  H3  F4C d   1      -5.170   4.203 -13.199  0.00  0.00     0.088 H 
ATOM     36  F4  F4C d   1      -5.369   1.790 -12.300  0.00  0.00    -0.206 F 
ATOM     37  C16 F4C d   1      -3.064   1.554 -12.795  0.00  0.00    -0.043 A 
ATOM     38  C12 F4C d   1      -1.885   2.127 -13.279  0.00  0.00    -0.052 A 
ATOM     39  H9  F4C d   1      -3.069   0.529 -12.441  0.00  0.00     0.088 H 
ATOM     40  H10 F4C d   1      -0.957   1.567 -13.270  0.00  0.00     0.087 H 
ENDBRANCH   1  30
BRANCH   2  41
ATOM     41  C10 F4C d   1       0.395   7.400 -13.016  0.00  0.00    -0.003 A 
ATOM     42  C20 F4C d   1       1.067   8.517 -13.513  0.00  0.00    -0.054 A 
ATOM     43  C18 F4C d   1       1.039   9.712 -12.803  0.00  0.00     0.003 A 
ATOM     44  H5  F4C d   1       1.609   8.453 -14.450  0.00  0.00     0.087 H 
ATOM     45  N4  F4C d   1       0.363   9.794 -11.659  0.00  0.00    -0.273 NA
ATOM     46  H11 F4C d   1       1.569  10.579 -13.182  0.00  0.00     0.114 H 
ATOM     47  C19 F4C d   1      -0.343   8.743 -11.172  0.00  0.00     0.003 A 
ATOM     48  C21 F4C d   1      -0.341   7.519 -11.843  0.00  0.00    -0.054 A 
ATOM     49  H12 F4C d   1      -0.912   8.854 -10.256  0.00  0.00     0.114 H 
ATOM     50  H6  F4C d   1      -0.903   6.677 -11.456  0.00  0.00     0.087 H 
ENDBRANCH   2  41
TORSDOF 6
