REMARK  7 active torsions:
REMARK  status: ('A' for Active; 'I' for Inactive)
REMARK    1  A    between atoms: C1_1  and  O1_7 
REMARK    2  A    between atoms: C2_2  and  O2_8 
REMARK    3  A    between atoms: C3_3  and  O3_9 
REMARK    4  A    between atoms: C4_4  and  O4_10 
REMARK    5  A    between atoms: C5_5  and  C6_6 
REMARK    6  A    between atoms: C6_6  and  O6_12 
REMARK    7  A    between atoms: O6_12  and  P_13 
ROOT
ATOM      1  C1  M6D d   1      21.444   7.966  25.929  0.00  0.00     0.156 C 
ATOM      2  C2  M6D d   1      20.686   8.060  24.574  0.00  0.00     0.110 C 
ATOM      3  C3  M6D d   1      19.163   8.286  24.861  0.00  0.00     0.092 C 
ATOM      4  C4  M6D d   1      18.615   7.149  25.751  0.00  0.00     0.090 C 
ATOM      5  C5  M6D d   1      19.418   7.125  27.079  0.00  0.00     0.090 C 
ATOM      6  O5  M6D d   1      20.843   6.930  26.774  0.00  0.00    -0.349 OA
ATOM      7  H1  M6D d   1      21.392   8.939  26.439  0.00  0.00     0.133 H 
ATOM      8  H2  M6D d   1      21.079   8.907  23.993  0.00  0.00     0.094 H 
ATOM      9  H3  M6D d   1      19.043   9.243  25.390  0.00  0.00     0.091 H 
ATOM     10  H4  M6D d   1      18.738   6.185  25.236  0.00  0.00     0.091 H 
ATOM     11  H5  M6D d   1      19.278   8.083  27.601  0.00  0.00     0.090 H 
ENDROOT
BRANCH   5  12
ATOM     12  C6  M6D d   1      18.962   5.986  27.987  0.00  0.00     0.059 C 
ATOM     13  H6  M6D d   1      19.122   5.037  27.454  0.00  0.00     0.079 H 
ATOM     14  H7  M6D d   1      17.889   6.117  28.188  0.00  0.00     0.079 H 
BRANCH  12  15
ATOM     15  O6  M6D d   1      19.644   5.913  29.240  0.00  0.00    -0.280 OA
BRANCH  15  16
ATOM     16  P   M6D d   1      19.891   4.557  30.036  0.00  0.00     0.422 P 
ATOM     17  O1P M6D d   1      18.585   3.874  30.343  0.00  0.00    -0.617 OA
ATOM     18  O2P M6D d   1      20.604   4.823  31.343  0.00  0.00    -0.617 OA
ATOM     19  O3P M6D d   1      20.757   3.620  29.211  0.00  0.00    -0.617 OA
ENDBRANCH  15  16
ENDBRANCH  12  15
ENDBRANCH   5  12
BRANCH   4  20
ATOM     20  O4  M6D d   1      17.225   7.375  25.997  0.00  0.00    -0.390 OA
ATOM     21  H11 M6D d   1      16.756   7.385  25.171  0.00  0.00     0.210 HD
ENDBRANCH   4  20
BRANCH   3  22
ATOM     22  O3  M6D d   1      18.419   8.338  23.645  0.00  0.00    -0.390 OA
ATOM     23  H10 M6D d   1      17.504   8.502  23.842  0.00  0.00     0.210 HD
ENDBRANCH   3  22
BRANCH   1  24
ATOM     24  O1  M6D d   1      22.793   7.610  25.721  0.00  0.00    -0.369 OA
ATOM     25  H8  M6D d   1      22.833   6.764  25.291  0.00  0.00     0.212 HD
ENDBRANCH   1  24
BRANCH   2  26
ATOM     26  O2  M6D d   1      20.864   6.849  23.824  0.00  0.00    -0.388 OA
ATOM     27  H9  M6D d   1      20.395   6.916  23.001  0.00  0.00     0.210 HD
ENDBRANCH   2  26
TORSDOF 7
