REMARK  10 active torsions:
REMARK  status: ('A' for Active; 'I' for Inactive)
REMARK    1  A    between atoms: C3_3  and  C2_2 
REMARK       I    between atoms: N2_22  and  C3_3 
REMARK    2  A    between atoms: N6_4  and  C20_16 
REMARK    3  A    between atoms: C9_7  and  C10_8 
REMARK    4  A    between atoms: N_18  and  C11_9 
REMARK    5  A    between atoms: C13_11  and  N5_30 
REMARK    6  A    between atoms: C14_12  and  C15_13 
REMARK    7  A    between atoms: C20_16  and  C21_17 
REMARK    8  A    between atoms: C21_17  and  O1_33 
REMARK    9  A    between atoms: C_19  and  N_18 
REMARK   10  A    between atoms: N2_22  and  C4_23 
ROOT
ATOM      1  C11 1N1 d   1     -17.621  -4.981  -2.097  0.00  0.00     0.135 A 
ATOM      2  C12 1N1 d   1     -17.988  -5.086  -3.420  0.00  0.00     0.006 A 
ATOM      3  C13 1N1 d   1     -19.346  -5.240  -3.695  0.00  0.00     0.131 A 
ATOM      4  C14 1N1 d   1     -19.906  -5.166  -1.450  0.00  0.00     0.126 A 
ATOM      5  N3  1N1 d   1     -20.288  -5.275  -2.736  0.00  0.00    -0.216 NA
ATOM      6  N4  1N1 d   1     -18.586  -5.023  -1.154  0.00  0.00    -0.216 NA
ATOM      7  H8  1N1 d   1     -17.252  -5.050  -4.215  0.00  0.00     0.095 H 
ENDROOT
BRANCH   1   8
ATOM      8  N   1N1 d   1     -16.299  -4.852  -1.760  0.00  0.00    -0.320 N 
ATOM      9  H20 1N1 d   1     -15.594  -4.844  -2.511  0.00  0.00     0.169 HD
BRANCH   8  10
ATOM     10  C   1N1 d   1     -15.885  -4.734  -0.475  0.00  0.00     0.172 A 
ATOM     11  N1  1N1 d   1     -14.583  -4.544  -0.200  0.00  0.00    -0.235 NA
ATOM     12  C1  1N1 d   1     -14.295  -4.439   1.132  0.00  0.00     0.027 A 
ATOM     13  C2  1N1 d   1     -15.433  -4.554   1.940  0.00  0.00     0.094 A 
ATOM     14  H1  1N1 d   1     -13.290  -4.283   1.522  0.00  0.00     0.117 H 
ATOM     15  S   1N1 d   1     -16.894  -4.812   0.977  0.00  0.00    -0.045 SA
BRANCH  13  16
ATOM     16  C3  1N1 d   1     -15.572  -4.520   3.419  0.00  0.00     0.264 C 
ATOM     17  N2  1N1 d   1     -14.484  -4.278   4.173  0.00  0.00    -0.320 N 
ATOM     18  H21 1N1 d   1     -13.613  -4.095   3.717  0.00  0.00     0.169 HD
ATOM     19  O   1N1 d   1     -16.692  -4.686   3.868  0.00  0.00    -0.267 OA
BRANCH  17  20
ATOM     20  C4  1N1 d   1     -14.525  -4.273   5.547  0.00  0.00     0.062 A 
ATOM     21  C9  1N1 d   1     -14.294  -5.397   6.333  0.00  0.00    -0.034 A 
ATOM     22  C8  1N1 d   1     -14.314  -5.318   7.738  0.00  0.00    -0.075 A 
ATOM     23  C7  1N1 d   1     -14.587  -4.128   8.407  0.00  0.00    -0.081 A 
ATOM     24  H4  1N1 d   1     -14.111  -6.211   8.317  0.00  0.00     0.084 H 
ATOM     25  C6  1N1 d   1     -14.823  -2.992   7.634  0.00  0.00    -0.060 A 
ATOM     26  H3  1N1 d   1     -14.615  -4.086   9.490  0.00  0.00     0.083 H 
ATOM     27  C5  1N1 d   1     -14.793  -3.077   6.234  0.00  0.00     0.061 A 
ATOM     28  H22 1N1 d   1     -15.030  -2.043   8.115  0.00  0.00     0.086 H 
ATOM     29 CL   1N1 d   1     -15.097  -1.569   5.320  0.00  0.00    -0.082 Cl
BRANCH  21  30
ATOM     30  C10 1N1 d   1     -13.997  -6.756   5.740  0.00  0.00    -0.049 C 
ATOM     31  H5  1N1 d   1     -13.851  -7.486   6.550  0.00  0.00     0.033 H 
ATOM     32  H6  1N1 d   1     -13.084  -6.698   5.129  0.00  0.00     0.033 H 
ATOM     33  H7  1N1 d   1     -14.841  -7.073   5.109  0.00  0.00     0.033 H 
ENDBRANCH  21  30
ENDBRANCH  17  20
ENDBRANCH  13  16
ENDBRANCH   8  10
ENDBRANCH   1   8
BRANCH   3  34
ATOM     34  N5  1N1 d   1     -19.817  -5.326  -4.973  0.00  0.00    -0.362 N 
ATOM     35  C16 1N1 d   1     -18.971  -4.914  -6.067  0.00  0.00     0.019 C 
ATOM     36  C17 1N1 d   1     -19.079  -6.053  -7.052  0.00  0.00     0.098 C 
ATOM     37  H12 1N1 d   1     -17.932  -4.783  -5.731  0.00  0.00     0.066 H 
ATOM     38  H13 1N1 d   1     -19.334  -3.975  -6.511  0.00  0.00     0.066 H 
ATOM     39  N6  1N1 d   1     -20.483  -6.345  -7.355  0.00  0.00    -0.066 N 
ATOM     40  H23 1N1 d   1     -18.559  -5.777  -7.981  0.00  0.00     0.078 H 
ATOM     41  H24 1N1 d   1     -18.609  -6.949  -6.621  0.00  0.00     0.078 H 
ATOM     42  C18 1N1 d   1     -21.593  -5.788  -6.592  0.00  0.00     0.098 C 
ATOM     43  H2  1N1 d   1     -20.521  -5.552  -7.976  0.00  0.00     0.280 HD
ATOM     44  C19 1N1 d   1     -21.212  -5.786  -5.120  0.00  0.00     0.019 C 
ATOM     45  H25 1N1 d   1     -22.492  -6.403  -6.742  0.00  0.00     0.078 H 
ATOM     46  H26 1N1 d   1     -21.793  -4.759  -6.925  0.00  0.00     0.078 H 
ATOM     47  H14 1N1 d   1     -21.881  -5.109  -4.569  0.00  0.00     0.066 H 
ATOM     48  H15 1N1 d   1     -21.307  -6.804  -4.715  0.00  0.00     0.066 H 
BRANCH  39  49
ATOM     49  C20 1N1 d   1     -20.736  -7.257  -8.467  0.00  0.00     0.103 C 
ATOM     50  H16 1N1 d   1     -19.861  -7.901  -8.641  0.00  0.00     0.079 H 
ATOM     51  H17 1N1 d   1     -20.963  -6.691  -9.383  0.00  0.00     0.079 H 
BRANCH  49  52
ATOM     52  C21 1N1 d   1     -21.936  -8.095  -8.050  0.00  0.00     0.039 C 
ATOM     53  H18 1N1 d   1     -22.003  -8.140  -6.953  0.00  0.00     0.076 H 
ATOM     54  H19 1N1 d   1     -21.844  -9.114  -8.454  0.00  0.00     0.076 H 
BRANCH  52  55
ATOM     55  O1  1N1 d   1     -23.106  -7.451  -8.591  0.00  0.00    -0.399 OA
ATOM     56  H27 1N1 d   1     -23.879  -7.948  -8.350  0.00  0.00     0.209 HD
ENDBRANCH  52  55
ENDBRANCH  49  52
ENDBRANCH  39  49
ENDBRANCH   3  34
BRANCH   4  57
ATOM     57  C15 1N1 d   1     -20.956  -5.209  -0.363  0.00  0.00    -0.019 C 
ATOM     58  H9  1N1 d   1     -21.950  -5.329  -0.818  0.00  0.00     0.037 H 
ATOM     59  H10 1N1 d   1     -20.927  -4.272   0.212  0.00  0.00     0.037 H 
ATOM     60  H11 1N1 d   1     -20.755  -6.057   0.308  0.00  0.00     0.037 H 
ENDBRANCH   4  57
TORSDOF 10
