REMARK  12 active torsions:
REMARK  status: ('A' for Active; 'I' for Inactive)
REMARK    1  A    between atoms: C3_2  and  C52_27 
REMARK    2  A    between atoms: C39_20  and  C42_22 
REMARK    3  A    between atoms: C42_22  and  O45_23 
REMARK    4  A    between atoms: O45_23  and  C46_24 
REMARK    5  A    between atoms: C52_27  and  O54_28 
REMARK    6  A    between atoms: C52_27  and  C56_29 
REMARK    7  A    between atoms: C56_29  and  N59_30 
REMARK    8  A    between atoms: N59_30  and  C61_31 
REMARK    9  A    between atoms: C61_31  and  C68_34 
REMARK   10  A    between atoms: C71_36  and  C78_40 
REMARK   11  A    between atoms: C78_40  and  C80_41 
REMARK   12  A    between atoms: C78_40  and  C84_42 
ROOT
ATOM      1  N1  0BI d   1      30.324   6.134  15.426  0.00  0.00    -0.349 N 
ATOM      2  C3  0BI d   1      31.535   6.200  14.600  0.00  0.00     0.042 C 
ATOM      3  C5  0BI d   1      32.599   7.085  15.341  0.00  0.00    -0.020 C 
ATOM      4  C8  0BI d   1      31.999   8.428  15.791  0.00  0.00    -0.053 A 
ATOM      5  C9  0BI d   1      31.629   8.618  17.145  0.00  0.00    -0.045 A 
ATOM      6  C11 0BI d   1      31.067   9.849  17.573  0.00  0.00     0.069 A 
ATOM      7  C12 0BI d   1      30.875  10.893  16.632  0.00  0.00    -0.051 A 
ATOM      8  C14 0BI d   1      31.243  10.704  15.284  0.00  0.00    -0.080 A 
ATOM      9  C16 0BI d   1      31.805   9.480  14.858  0.00  0.00    -0.077 A 
ATOM     10  O18 0BI d   1      30.692  10.074  18.897  0.00  0.00    -0.351 OA
ATOM     11  C19 0BI d   1      31.067   9.252  20.016  0.00  0.00     0.026 C 
ATOM     12  C22 0BI d   1      29.907   9.135  21.035  0.00  0.00    -0.043 C 
ATOM     13  C25 0BI d   1      28.572   8.624  20.440  0.00  0.00    -0.048 C 
ATOM     14  C28 0BI d   1      28.574   7.078  20.336  0.00  0.00    -0.007 C 
ATOM     15  N31 0BI d   1      27.326   6.651  19.704  0.00  0.00    -0.390 N 
ATOM     16  C33 0BI d   1      27.126   6.507  18.363  0.00  0.00     0.029 A 
ATOM     17  C34 0BI d   1      28.176   6.527  17.402  0.00  0.00    -0.042 A 
ATOM     18  C36 0BI d   1      27.901   6.365  16.024  0.00  0.00     0.034 A 
ATOM     19  C37 0BI d   1      26.562   6.184  15.590  0.00  0.00    -0.059 A 
ATOM     20  C39 0BI d   1      25.506   6.163  16.532  0.00  0.00    -0.032 A 
ATOM     21  C40 0BI d   1      25.797   6.324  17.911  0.00  0.00    -0.049 A 
ATOM     22  C50 0BI d   1      29.043   6.386  15.035  0.00  0.00     0.252 C 
ATOM     23  O51 0BI d   1      28.772   6.641  13.868  0.00  0.00    -0.268 OA
ATOM     24  H1  0BI d   1      30.453   5.875  16.383  0.00  0.00     0.163 HD
ATOM     25  H2  0BI d   1      31.294   6.668  13.634  0.00  0.00     0.077 H 
ATOM     26  H3  0BI d   1      33.440   7.280  14.659  0.00  0.00     0.043 H 
ATOM     27  H4  0BI d   1      32.963   6.542  16.226  0.00  0.00     0.043 H 
ATOM     28  H5  0BI d   1      31.776   7.817  17.860  0.00  0.00     0.088 H 
ATOM     29  H6  0BI d   1      30.445  11.836  16.949  0.00  0.00     0.087 H 
ATOM     30  H7  0BI d   1      31.093  11.505  14.569  0.00  0.00     0.083 H 
ATOM     31  H8  0BI d   1      32.088   9.344  13.820  0.00  0.00     0.084 H 
ATOM     32  H9  0BI d   1      31.939   9.700  20.515  0.00  0.00     0.075 H 
ATOM     33  H10 0BI d   1      31.328   8.247  19.652  0.00  0.00     0.075 H 
ATOM     34  H11 0BI d   1      29.730  10.130  21.468  0.00  0.00     0.036 H 
ATOM     35  H12 0BI d   1      30.217   8.439  21.829  0.00  0.00     0.036 H 
ATOM     36  H13 0BI d   1      28.436   9.053  19.436  0.00  0.00     0.035 H 
ATOM     37  H14 0BI d   1      27.743   8.941  21.089  0.00  0.00     0.035 H 
ATOM     38  H15 0BI d   1      28.649   6.639  21.342  0.00  0.00     0.063 H 
ATOM     39  H16 0BI d   1      29.429   6.749  19.727  0.00  0.00     0.063 H 
ATOM     40  H17 0BI d   1      26.531   6.441  20.324  0.00  0.00     0.159 HD
ATOM     41  H18 0BI d   1      29.199   6.668  17.730  0.00  0.00     0.088 H 
ATOM     42  H19 0BI d   1      26.348   6.061  14.534  0.00  0.00     0.086 H 
ATOM     43  H20 0BI d   1      24.987   6.307  18.631  0.00  0.00     0.087 H 
ENDROOT
BRANCH   2  44
ATOM     44  C52 0BI d   1      32.052   4.761  14.342  0.00  0.00     0.078 C 
ATOM     45  H26 0BI d   1      32.332   4.301  15.302  0.00  0.00     0.088 H 
BRANCH  44  46
ATOM     46  O54 0BI d   1      33.181   4.790  13.459  0.00  0.00    -0.392 OA
ATOM     47  H27 0BI d   1      33.876   5.304  13.852  0.00  0.00     0.210 HD
ENDBRANCH  44  46
BRANCH  44  48
ATOM     48  C56 0BI d   1      30.982   3.894  13.632  0.00  0.00     0.108 C 
ATOM     49  H28 0BI d   1      30.596   4.446  12.762  0.00  0.00     0.079 H 
ATOM     50  H29 0BI d   1      30.160   3.696  14.335  0.00  0.00     0.079 H 
BRANCH  48  51
ATOM     51  N59 0BI d   1      31.539   2.606  13.172  0.00  0.00    -0.060 N 
ATOM     52  H30 0BI d   1      31.573   1.968  13.952  0.00  0.00     0.278 HD
ATOM     53  H31 0BI d   1      32.472   2.760  12.823  0.00  0.00     0.278 HD
BRANCH  51  54
ATOM     54  C61 0BI d   1      30.723   2.008  12.103  0.00  0.00     0.153 A 
ATOM     55  C62 0BI d   1      30.850   0.473  12.010  0.00  0.00    -0.027 A 
ATOM     56  C65 0BI d   1      29.546   1.103  12.543  0.00  0.00    -0.027 A 
ATOM     57  H32 0BI d   1      31.520  -0.065  12.696  0.00  0.00     0.037 H 
ATOM     58  H33 0BI d   1      30.860  -0.019  11.026  0.00  0.00     0.037 H 
ATOM     59  H34 0BI d   1      28.628   1.062  11.939  0.00  0.00     0.037 H 
ATOM     60  H35 0BI d   1      29.288   1.015  13.609  0.00  0.00     0.037 H 
BRANCH  54  61
ATOM     61  C68 0BI d   1      30.664   2.716  10.743  0.00  0.00    -0.022 A 
ATOM     62  C69 0BI d   1      31.865   2.970  10.044  0.00  0.00    -0.068 A 
ATOM     63  C71 0BI d   1      31.849   3.623   8.783  0.00  0.00    -0.054 A 
ATOM     64  H36 0BI d   1      32.811   2.663  10.476  0.00  0.00     0.085 H 
ATOM     65  C72 0BI d   1      30.601   4.019   8.239  0.00  0.00    -0.076 A 
ATOM     66  C74 0BI d   1      29.393   3.772   8.932  0.00  0.00    -0.082 A 
ATOM     67  H37 0BI d   1      30.572   4.519   7.277  0.00  0.00     0.084 H 
ATOM     68  C76 0BI d   1      29.424   3.121  10.185  0.00  0.00    -0.074 A 
ATOM     69  H38 0BI d   1      28.447   4.081   8.503  0.00  0.00     0.083 H 
ATOM     70  H39 0BI d   1      28.501   2.931  10.720  0.00  0.00     0.084 H 
BRANCH  63  71
ATOM     71  C78 0BI d   1      33.179   3.879   8.049  0.00  0.00    -0.036 C 
ATOM     72  H40 0BI d   1      32.921   3.954   6.982  0.00  0.00     0.046 H 
BRANCH  71  73
ATOM     73  C80 0BI d   1      33.777   5.254   8.454  0.00  0.00    -0.069 C 
ATOM     74  H41 0BI d   1      34.724   5.414   7.918  0.00  0.00     0.028 H 
ATOM     75  H42 0BI d   1      33.962   5.268   9.538  0.00  0.00     0.028 H 
ATOM     76  H43 0BI d   1      33.068   6.053   8.192  0.00  0.00     0.028 H 
ENDBRANCH  71  73
BRANCH  71  77
ATOM     77  C84 0BI d   1      34.229   2.736   8.142  0.00  0.00    -0.069 C 
ATOM     78  H44 0BI d   1      33.762   1.785   7.847  0.00  0.00     0.028 H 
ATOM     79  H45 0BI d   1      34.597   2.659   9.176  0.00  0.00     0.028 H 
ATOM     80  H46 0BI d   1      35.071   2.956   7.469  0.00  0.00     0.028 H 
ENDBRANCH  71  77
ENDBRANCH  63  71
ENDBRANCH  54  61
ENDBRANCH  51  54
ENDBRANCH  48  51
ENDBRANCH  44  48
ENDBRANCH   2  44
BRANCH  20  81
ATOM     81  C42 0BI d   1      24.058   5.966  16.059  0.00  0.00     0.043 C 
ATOM     82  H21 0BI d   1      23.933   6.378  15.047  0.00  0.00     0.081 H 
ATOM     83  H22 0BI d   1      23.365   6.470  16.749  0.00  0.00     0.081 H 
BRANCH  81  84
ATOM     84  O45 0BI d   1      23.800   4.545  16.049  0.00  0.00    -0.391 OA
BRANCH  84  85
ATOM     85  C46 0BI d   1      22.849   4.114  17.052  0.00  0.00     0.004 C 
ATOM     86  H23 0BI d   1      22.708   3.026  16.980  0.00  0.00     0.066 H 
ATOM     87  H24 0BI d   1      21.887   4.620  16.887  0.00  0.00     0.066 H 
ATOM     88  H25 0BI d   1      23.230   4.368  18.052  0.00  0.00     0.066 H 
ENDBRANCH  84  85
ENDBRANCH  81  84
ENDBRANCH  20  81
TORSDOF 12
