REMARK  28 active torsions:
REMARK  status: ('A' for Active; 'I' for Inactive)
REMARK    1  A    between atoms: C_1  and  CH3_3 
REMARK       I    between atoms: C_1  and  N_4 
REMARK    2  A    between atoms: N_4  and  CA_5 
REMARK    3  A    between atoms: CA_5  and  C1_6 
REMARK    4  A    between atoms: CA_5  and  CB_8 
REMARK       I    between atoms: C1_6  and  N1_12 
REMARK    5  A    between atoms: CB_8  and  CG_9 
REMARK    6  A    between atoms: CG_9  and  CD1_10 
REMARK    7  A    between atoms: CG_9  and  CD2_11 
REMARK    8  A    between atoms: N1_12  and  CA1_13 
REMARK    9  A    between atoms: CA1_13  and  C2_14 
REMARK   10  A    between atoms: CA1_13  and  CB1_16 
REMARK       I    between atoms: C2_14  and  N2_20 
REMARK   11  A    between atoms: CB1_16  and  CG1_17 
REMARK   12  A    between atoms: CG1_17  and  SD_18 
REMARK   13  A    between atoms: SD_18  and  CE_19 
REMARK   14  A    between atoms: N2_20  and  CA2_21 
REMARK   15  A    between atoms: CA2_21  and  C3_22 
REMARK   16  A    between atoms: CA2_21  and  CB2_24 
REMARK   17  A    between atoms: C3_22  and  O3_23 
REMARK   18  A    between atoms: C3_22  and  CM_28 
REMARK   19  A    between atoms: CB2_24  and  CG2_25 
REMARK   20  A    between atoms: CG2_25  and  CD11_26 
REMARK   21  A    between atoms: CG2_25  and  CD21_27 
REMARK   22  A    between atoms: CM_28  and  CA3_29 
REMARK   23  A    between atoms: CA3_29  and  CB3_30 
REMARK   24  A    between atoms: CA3_29  and  C4_31 
REMARK       I    between atoms: C4_31  and  N3_34 
REMARK   25  A    between atoms: N3_34  and  C11_33 
REMARK   26  A    between atoms: C11_33  and  C21_35 
REMARK   27  A    between atoms: C21_35  and  C31_36 
REMARK   28  A    between atoms: C31_36  and  C41_37 
ROOT
ATOM      1  CA2 XLI d   1      -2.511   5.634  34.573  0.00  0.00     0.037 C 
ATOM      2  H   XLI d   1      -2.184   6.074  35.515  0.00  0.00     0.076 H 
ENDROOT
BRANCH   1   3
ATOM      3  N2  XLI d   1      -1.340   5.409  33.712  0.00  0.00    -0.352 N 
ATOM      4  C2  XLI d   1      -0.062   5.459  34.178  0.00  0.00     0.240 C 
ATOM      5  O2  XLI d   1       0.194   5.683  35.360  0.00  0.00    -0.271 OA
ATOM      6  H   XLI d   1      -1.492   5.207  32.724  0.00  0.00     0.163 HD
BRANCH   4   7
ATOM      7  CA1 XLI d   1       1.058   5.223  33.183  0.00  0.00     0.090 C 
ATOM      8  H   XLI d   1       0.835   4.356  32.561  0.00  0.00     0.087 H 
BRANCH   7   9
ATOM      9  N1  XLI d   1       1.160   6.392  32.330  0.00  0.00    -0.346 N 
ATOM     10  C1  XLI d   1       1.061   6.314  30.977  0.00  0.00     0.241 C 
ATOM     11  O1  XLI d   1       0.877   5.274  30.361  0.00  0.00    -0.271 OA
ATOM     12  H   XLI d   1       1.311   7.304  32.761  0.00  0.00     0.163 HD
BRANCH  10  13
ATOM     13  CA  XLI d   1       1.191   7.601  30.185  0.00  0.00     0.089 C 
ATOM     14  H   XLI d   1       1.856   8.258  30.746  0.00  0.00     0.087 H 
BRANCH  13  15
ATOM     15  N   XLI d   1       1.854   7.365  28.911  0.00  0.00    -0.348 N 
ATOM     16  C   XLI d   1       3.204   7.327  28.854  0.00  0.00     0.214 C 
ATOM     17  O   XLI d   1       3.962   7.453  29.844  0.00  0.00    -0.274 OA
ATOM     18  H   XLI d   1       1.302   7.229  28.064  0.00  0.00     0.163 HD
BRANCH  16  19
ATOM     19  CH3 XLI d   1       3.821   7.120  27.515  0.00  0.00    -0.003 C 
ATOM     20  H   XLI d   1       4.458   7.971  27.275  0.00  0.00     0.040 H 
ATOM     21  H   XLI d   1       4.419   6.209  27.529  0.00  0.00     0.040 H 
ATOM     22  H   XLI d   1       3.036   7.029  26.765  0.00  0.00     0.040 H 
ENDBRANCH  16  19
ENDBRANCH  13  15
BRANCH  13  23
ATOM     23  CB  XLI d   1      -0.112   8.470  30.128  0.00  0.00    -0.035 C 
ATOM     24  H   XLI d   1       0.162   9.364  29.568  0.00  0.00     0.037 H 
ATOM     25  H   XLI d   1      -0.424   8.590  31.165  0.00  0.00     0.037 H 
BRANCH  23  26
ATOM     26  CG  XLI d   1      -1.352   7.884  29.389  0.00  0.00    -0.059 C 
ATOM     27  H   XLI d   1      -1.607   6.938  29.867  0.00  0.00     0.038 H 
BRANCH  26  28
ATOM     28  CD1 XLI d   1      -1.035   7.627  27.894  0.00  0.00    -0.073 C 
ATOM     29  H   XLI d   1      -0.754   8.566  27.417  0.00  0.00     0.028 H 
ATOM     30  H   XLI d   1      -0.212   6.917  27.815  0.00  0.00     0.028 H 
ATOM     31  H   XLI d   1      -1.917   7.218  27.402  0.00  0.00     0.028 H 
ENDBRANCH  26  28
BRANCH  26  32
ATOM     32  CD2 XLI d   1      -2.545   8.852  29.492  0.00  0.00    -0.073 C 
ATOM     33  H   XLI d   1      -2.796   9.006  30.541  0.00  0.00     0.028 H 
ATOM     34  H   XLI d   1      -2.278   9.806  29.037  0.00  0.00     0.028 H 
ATOM     35  H   XLI d   1      -3.402   8.427  28.970  0.00  0.00     0.028 H 
ENDBRANCH  26  32
ENDBRANCH  23  26
ENDBRANCH  13  23
ENDBRANCH  10  13
ENDBRANCH   7   9
BRANCH   7  36
ATOM     36  CB1 XLI d   1       2.399   4.873  33.904  0.00  0.00    -0.030 C 
ATOM     37  H   XLI d   1       2.205   4.088  34.635  0.00  0.00     0.037 H 
ATOM     38  H   XLI d   1       2.781   5.774  34.383  0.00  0.00     0.037 H 
BRANCH  36  39
ATOM     39  CG1 XLI d   1       3.465   4.359  32.896  0.00  0.00    -0.021 C 
ATOM     40  H   XLI d   1       3.495   5.013  32.024  0.00  0.00     0.049 H 
ATOM     41  H   XLI d   1       3.209   3.351  32.570  0.00  0.00     0.049 H 
BRANCH  39  42
ATOM     42  SD  XLI d   1       5.084   4.349  33.713  0.00  0.00    -0.173 SA
BRANCH  42  43
ATOM     43  CE  XLI d   1       5.687   6.000  33.239  0.00  0.00    -0.035 C 
ATOM     44  H   XLI d   1       5.739   6.068  32.152  0.00  0.00     0.041 H 
ATOM     45  H   XLI d   1       5.003   6.758  33.620  0.00  0.00     0.041 H 
ATOM     46  H   XLI d   1       6.679   6.158  33.662  0.00  0.00     0.041 H 
ENDBRANCH  42  43
ENDBRANCH  39  42
ENDBRANCH  36  39
ENDBRANCH   7  36
ENDBRANCH   4   7
ENDBRANCH   1   3
BRANCH   1  47
ATOM     47  C3  XLI d   1      -3.197   4.282  34.950  0.00  0.00     0.056 C 
ATOM     48  H   XLI d   1      -3.861   4.561  35.768  0.00  0.00     0.086 H 
BRANCH  47  49
ATOM     49  O3  XLI d   1      -3.942   3.770  33.832  0.00  0.00    -0.393 OA
ATOM     50  H   XLI d   1      -4.357   2.940  34.079  0.00  0.00     0.210 HD
ENDBRANCH  47  49
BRANCH  47  51
ATOM     51  CM  XLI d   1      -2.325   3.170  35.623  0.00  0.00    -0.028 C 
ATOM     52  H   XLI d   1      -1.545   3.688  36.181  0.00  0.00     0.038 H 
ATOM     53  H   XLI d   1      -1.984   2.519  34.818  0.00  0.00     0.038 H 
BRANCH  51  54
ATOM     54  CA3 XLI d   1      -3.060   2.252  36.648  0.00  0.00     0.022 C 
ATOM     55  H   XLI d   1      -4.068   2.128  36.253  0.00  0.00     0.054 H 
BRANCH  54  56
ATOM     56  CB3 XLI d   1      -2.311   0.899  36.782  0.00  0.00    -0.065 C 
ATOM     57  H   XLI d   1      -2.283   0.403  35.812  0.00  0.00     0.028 H 
ATOM     58  H   XLI d   1      -1.294   1.081  37.128  0.00  0.00     0.028 H 
ATOM     59  H   XLI d   1      -2.833   0.266  37.500  0.00  0.00     0.028 H 
ENDBRANCH  54  56
BRANCH  54  60
ATOM     60  C4  XLI d   1      -3.164   2.847  38.042  0.00  0.00     0.221 C 
ATOM     61  O4  XLI d   1      -2.307   3.626  38.436  0.00  0.00    -0.273 OA
ATOM     62  N3  XLI d   1      -4.231   2.470  38.795  0.00  0.00    -0.361 N 
ATOM     63  H   XLI d   1      -4.901   1.811  38.398  0.00  0.00     0.162 HD
BRANCH  62  64
ATOM     64  C11 XLI d   1      -4.457   2.968  40.146  0.00  0.00    -0.005 C 
ATOM     65  H   XLI d   1      -4.310   4.048  40.146  0.00  0.00     0.064 H 
ATOM     66  H   XLI d   1      -3.758   2.472  40.819  0.00  0.00     0.064 H 
BRANCH  64  67
ATOM     67  C21 XLI d   1      -5.897   2.668  40.625  0.00  0.00    -0.051 C 
ATOM     68  H   XLI d   1      -6.120   1.627  40.394  0.00  0.00     0.035 H 
ATOM     69  H   XLI d   1      -6.572   3.358  40.119  0.00  0.00     0.035 H 
BRANCH  67  70
ATOM     70  C31 XLI d   1      -6.062   2.868  42.156  0.00  0.00    -0.067 C 
ATOM     71  H   XLI d   1      -5.234   2.366  42.658  0.00  0.00     0.032 H 
ATOM     72  H   XLI d   1      -7.027   2.456  42.453  0.00  0.00     0.032 H 
BRANCH  70  73
ATOM     73  C41 XLI d   1      -6.032   4.367  42.549  0.00  0.00    -0.076 C 
ATOM     74  H   XLI d   1      -5.079   4.801  42.248  0.00  0.00     0.027 H 
ATOM     75  H   XLI d   1      -6.846   4.889  42.046  0.00  0.00     0.027 H 
ATOM     76  H   XLI d   1      -6.151   4.461  43.629  0.00  0.00     0.027 H 
ENDBRANCH  70  73
ENDBRANCH  67  70
ENDBRANCH  64  67
ENDBRANCH  62  64
ENDBRANCH  54  60
ENDBRANCH  51  54
ENDBRANCH  47  51
ENDBRANCH   1  47
BRANCH   1  77
ATOM     77  CB2 XLI d   1      -3.478   6.665  33.923  0.00  0.00    -0.041 C 
ATOM     78  H   XLI d   1      -4.279   6.832  34.643  0.00  0.00     0.036 H 
ATOM     79  H   XLI d   1      -3.781   6.241  32.965  0.00  0.00     0.036 H 
BRANCH  77  80
ATOM     80  CG2 XLI d   1      -2.868   8.066  33.611  0.00  0.00    -0.059 C 
ATOM     81  H   XLI d   1      -1.976   7.908  33.005  0.00  0.00     0.038 H 
BRANCH  80  82
ATOM     82  CD1 XLI d   1      -3.942   8.910  32.869  0.00  0.00    -0.073 C 
ATOM     83  H   XLI d   1      -4.221   8.408  31.943  0.00  0.00     0.028 H 
ATOM     84  H   XLI d   1      -4.821   9.017  33.505  0.00  0.00     0.028 H 
ATOM     85  H   XLI d   1      -3.535   9.895  32.641  0.00  0.00     0.028 H 
ENDBRANCH  80  82
BRANCH  80  86
ATOM     86  CD2 XLI d   1      -2.431   8.839  34.886  0.00  0.00    -0.073 C 
ATOM     87  H   XLI d   1      -3.296   8.991  35.531  0.00  0.00     0.028 H 
ATOM     88  H   XLI d   1      -1.676   8.261  35.419  0.00  0.00     0.028 H 
ATOM     89  H   XLI d   1      -2.015   9.805  34.599  0.00  0.00     0.028 H 
ENDBRANCH  80  86
ENDBRANCH  77  80
ENDBRANCH   1  77
TORSDOF 28
