REMARK  19 active torsions:
REMARK  status: ('A' for Active; 'I' for Inactive)
REMARK    1  A    between atoms: N1_1  and  C3_2 
REMARK       I    between atoms: N1_1  and  C49_22 
REMARK    2  A    between atoms: C3_2  and  C5_3 
REMARK    3  A    between atoms: C3_2  and  C35_15 
REMARK    4  A    between atoms: C5_3  and  O7_4 
REMARK    5  A    between atoms: C5_3  and  C9_5 
REMARK    6  A    between atoms: C9_5  and  C12_6 
REMARK    7  A    between atoms: C12_6  and  C14_7 
REMARK    8  A    between atoms: C12_6  and  C18_8 
REMARK       I    between atoms: C18_8  and  N20_10 
REMARK    9  A    between atoms: N20_10  and  C22_11 
REMARK   10  A    between atoms: C22_11  and  C25_12 
REMARK   11  A    between atoms: C25_12  and  C28_13 
REMARK   12  A    between atoms: C28_13  and  C31_14 
REMARK   13  A    between atoms: C35_15  and  C38_16 
REMARK   14  A    between atoms: C49_22  and  C51_24 
REMARK   15  A    between atoms: C56_26  and  C67_30 
REMARK   16  A    between atoms: C67_30  and  N68_31 
REMARK   17  A    between atoms: C67_30  and  C76_35 
REMARK   18  A    between atoms: C67_30  and  C80_36 
REMARK       I    between atoms: N68_31  and  C70_32 
REMARK   19  A    between atoms: C70_32  and  C72_34 
ROOT
ATOM      1  C3  AYH d   1       4.439  13.423  27.504  0.00  0.00     0.041 C 
ATOM      2  H2  AYH d   1       3.583  13.169  26.861  0.00  0.00     0.076 H 
ENDROOT
BRANCH   1   3
ATOM      3  N1  AYH d   1       5.398  12.345  27.360  0.00  0.00    -0.353 N 
ATOM      4  C49 AYH d   1       5.248  11.500  26.322  0.00  0.00     0.222 C 
ATOM      5  O50 AYH d   1       4.364  11.611  25.485  0.00  0.00    -0.273 OA
ATOM      6  H1  AYH d   1       6.148  12.232  28.012  0.00  0.00     0.163 HD
BRANCH   4   7
ATOM      7  C51 AYH d   1       6.256  10.374  26.234  0.00  0.00     0.024 C 
ATOM      8  C53 AYH d   1       5.914   9.368  27.379  0.00  0.00    -0.048 C 
ATOM      9  C56 AYH d   1       6.885   8.156  27.399  0.00  0.00    -0.030 C 
ATOM     10  H29 AYH d   1       4.888   8.999  27.232  0.00  0.00     0.034 H 
ATOM     11  H30 AYH d   1       5.981   9.892  28.344  0.00  0.00     0.034 H 
ATOM     12  C58 AYH d   1       6.959   7.477  25.983  0.00  0.00    -0.059 C 
ATOM     13  H31 AYH d   1       7.890   8.525  27.651  0.00  0.00     0.043 H 
ATOM     14  C61 AYH d   1       7.361   8.504  24.894  0.00  0.00    -0.064 C 
ATOM     15  H32 AYH d   1       5.974   7.056  25.734  0.00  0.00     0.033 H 
ATOM     16  H33 AYH d   1       7.706   6.670  26.010  0.00  0.00     0.033 H 
ATOM     17  C64 AYH d   1       6.294   9.649  24.855  0.00  0.00    -0.054 C 
ATOM     18  H34 AYH d   1       7.403   8.005  23.914  0.00  0.00     0.033 H 
ATOM     19  H35 AYH d   1       8.348   8.927  25.133  0.00  0.00     0.033 H 
ATOM     20  H36 AYH d   1       6.560  10.371  24.069  0.00  0.00     0.034 H 
ATOM     21  H37 AYH d   1       5.304   9.220  24.639  0.00  0.00     0.034 H 
ATOM     22  H28 AYH d   1       7.257  10.794  26.414  0.00  0.00     0.054 H 
BRANCH   9  23
ATOM     23  C67 AYH d   1       6.444   7.122  28.523  0.00  0.00     0.029 C 
BRANCH  23  24
ATOM     24  N68 AYH d   1       6.392   7.841  29.813  0.00  0.00    -0.353 N 
ATOM     25  C70 AYH d   1       7.503   8.441  30.295  0.00  0.00     0.214 C 
ATOM     26  O71 AYH d   1       8.585   8.392  29.725  0.00  0.00    -0.274 OA
ATOM     27  H38 AYH d   1       5.536   7.883  30.328  0.00  0.00     0.163 HD
BRANCH  25  28
ATOM     28  C72 AYH d   1       7.357   9.202  31.598  0.00  0.00    -0.003 C 
ATOM     29  H39 AYH d   1       8.327   9.639  31.878  0.00  0.00     0.040 H 
ATOM     30  H40 AYH d   1       7.023   8.514  32.389  0.00  0.00     0.040 H 
ATOM     31  H41 AYH d   1       6.615  10.005  31.473  0.00  0.00     0.040 H 
ENDBRANCH  25  28
ENDBRANCH  23  24
BRANCH  23  32
ATOM     32  C76 AYH d   1       5.045   6.525  28.277  0.00  0.00    -0.053 C 
ATOM     33  H42 AYH d   1       4.800   5.821  29.085  0.00  0.00     0.030 H 
ATOM     34  H43 AYH d   1       5.037   5.994  27.314  0.00  0.00     0.030 H 
ATOM     35  H44 AYH d   1       4.300   7.334  28.256  0.00  0.00     0.030 H 
ENDBRANCH  23  32
BRANCH  23  36
ATOM     36  C80 AYH d   1       7.434   5.934  28.579  0.00  0.00    -0.053 C 
ATOM     37  H45 AYH d   1       7.116   5.228  29.360  0.00  0.00     0.030 H 
ATOM     38  H46 AYH d   1       8.442   6.308  28.811  0.00  0.00     0.030 H 
ATOM     39  H47 AYH d   1       7.447   5.422  27.606  0.00  0.00     0.030 H 
ENDBRANCH  23  36
ENDBRANCH   9  23
ENDBRANCH   4   7
ENDBRANCH   1   3
BRANCH   1  40
ATOM     40  C5  AYH d   1       4.951  14.801  27.040  0.00  0.00     0.056 C 
ATOM     41  H3  AYH d   1       4.120  15.521  27.066  0.00  0.00     0.086 H 
BRANCH  40  42
ATOM     42  O7  AYH d   1       5.991  15.235  27.956  0.00  0.00    -0.393 OA
ATOM     43  H4  AYH d   1       5.632  15.299  28.833  0.00  0.00     0.210 HD
ENDBRANCH  40  42
BRANCH  40  44
ATOM     44  C9  AYH d   1       5.503  14.733  25.600  0.00  0.00    -0.028 C 
ATOM     45  H5  AYH d   1       4.874  14.071  24.986  0.00  0.00     0.038 H 
ATOM     46  H6  AYH d   1       6.535  14.353  25.609  0.00  0.00     0.038 H 
BRANCH  44  47
ATOM     47  C12 AYH d   1       5.472  16.179  25.029  0.00  0.00     0.022 C 
ATOM     48  H7  AYH d   1       5.760  16.890  25.818  0.00  0.00     0.054 H 
BRANCH  47  49
ATOM     49  C14 AYH d   1       6.429  16.306  23.823  0.00  0.00    -0.065 C 
ATOM     50  H8  AYH d   1       6.393  17.334  23.433  0.00  0.00     0.028 H 
ATOM     51  H9  AYH d   1       6.120  15.604  23.034  0.00  0.00     0.028 H 
ATOM     52  H10 AYH d   1       7.455  16.070  24.142  0.00  0.00     0.028 H 
ENDBRANCH  47  49
BRANCH  47  53
ATOM     53  C18 AYH d   1       4.080  16.506  24.507  0.00  0.00     0.221 C 
ATOM     54  O19 AYH d   1       3.399  15.648  23.964  0.00  0.00    -0.273 OA
ATOM     55  N20 AYH d   1       3.661  17.761  24.684  0.00  0.00    -0.361 N 
ATOM     56  H11 AYH d   1       4.245  18.433  25.140  0.00  0.00     0.162 HD
BRANCH  55  57
ATOM     57  C22 AYH d   1       2.326  18.139  24.197  0.00  0.00    -0.005 C 
ATOM     58  H12 AYH d   1       1.578  17.440  24.599  0.00  0.00     0.064 H 
ATOM     59  H13 AYH d   1       2.312  18.098  23.098  0.00  0.00     0.064 H 
BRANCH  57  60
ATOM     60  C25 AYH d   1       1.992  19.565  24.659  0.00  0.00    -0.051 C 
ATOM     61  H14 AYH d   1       2.880  20.202  24.536  0.00  0.00     0.035 H 
ATOM     62  H15 AYH d   1       1.701  19.543  25.720  0.00  0.00     0.035 H 
BRANCH  60  63
ATOM     63  C28 AYH d   1       0.822  20.152  23.820  0.00  0.00    -0.067 C 
ATOM     64  H16 AYH d   1       1.042  20.016  22.751  0.00  0.00     0.032 H 
ATOM     65  H17 AYH d   1       0.724  21.225  24.041  0.00  0.00     0.032 H 
BRANCH  63  66
ATOM     66  C31 AYH d   1      -0.516  19.439  24.158  0.00  0.00    -0.076 C 
ATOM     67  H18 AYH d   1      -1.325  19.872  23.552  0.00  0.00     0.027 H 
ATOM     68  H19 AYH d   1      -0.744  19.575  25.226  0.00  0.00     0.027 H 
ATOM     69  H20 AYH d   1      -0.426  18.366  23.936  0.00  0.00     0.027 H 
ENDBRANCH  63  66
ENDBRANCH  60  63
ENDBRANCH  57  60
ENDBRANCH  55  57
ENDBRANCH  47  53
ENDBRANCH  44  47
ENDBRANCH  40  44
ENDBRANCH   1  40
BRANCH   1  70
ATOM     70  C35 AYH d   1       3.920  13.513  28.945  0.00  0.00    -0.020 C 
ATOM     71  H21 AYH d   1       3.053  14.189  28.977  0.00  0.00     0.043 H 
ATOM     72  H22 AYH d   1       4.716  13.906  29.594  0.00  0.00     0.043 H 
BRANCH  70  73
ATOM     73  C38 AYH d   1       3.499  12.122  29.444  0.00  0.00    -0.056 A 
ATOM     74  C39 AYH d   1       2.563  11.355  28.723  0.00  0.00    -0.077 A 
ATOM     75  C41 AYH d   1       2.195  10.072  29.178  0.00  0.00    -0.082 A 
ATOM     76  H23 AYH d   1       2.124  11.752  27.815  0.00  0.00     0.084 H 
ATOM     77  C43 AYH d   1       2.757   9.562  30.367  0.00  0.00    -0.083 A 
ATOM     78  H24 AYH d   1       1.482   9.479  28.616  0.00  0.00     0.083 H 
ATOM     79  C45 AYH d   1       3.681  10.336  31.090  0.00  0.00    -0.082 A 
ATOM     80  H25 AYH d   1       2.477   8.577  30.722  0.00  0.00     0.083 H 
ATOM     81  C47 AYH d   1       4.053  11.607  30.626  0.00  0.00    -0.077 A 
ATOM     82  H26 AYH d   1       4.107   9.950  32.009  0.00  0.00     0.083 H 
ATOM     83  H27 AYH d   1       4.773  12.195  31.184  0.00  0.00     0.084 H 
ENDBRANCH  70  73
ENDBRANCH   1  70
TORSDOF 19
