REMARK  17 active torsions:
REMARK  status: ('A' for Active; 'I' for Inactive)
REMARK    1  A    between atoms: N1_1  and  C16_8 
REMARK    2  A    between atoms: C16_8  and  C17_9 
REMARK    3  A    between atoms: C16_8  and  C85_40 
REMARK    4  A    between atoms: C16_8  and  C89_41 
REMARK    5  A    between atoms: C22_11  and  C33_15 
REMARK       I    between atoms: C33_15  and  N35_17 
REMARK    6  A    between atoms: N35_17  and  C37_18 
REMARK    7  A    between atoms: C37_18  and  C39_19 
REMARK    8  A    between atoms: C37_18  and  C71_33 
REMARK    9  A    between atoms: C39_19  and  O41_20 
REMARK   10  A    between atoms: C39_19  and  C43_21 
REMARK   11  A    between atoms: C43_21  and  N46_22 
REMARK   12  A    between atoms: N46_22  and  C48_23 
REMARK   13  A    between atoms: C48_23  and  C51_24 
REMARK   14  A    between atoms: C54_26  and  C61_30 
REMARK   15  A    between atoms: C61_30  and  C63_31 
REMARK   16  A    between atoms: C61_30  and  C67_32 
REMARK   17  A    between atoms: C71_33  and  C74_34 
ROOT
ATOM      1  C37 BJC d   1      31.104   5.794  14.709  0.00  0.00     0.042 C 
ATOM      2  H20 BJC d   1      30.808   6.231  13.744  0.00  0.00     0.077 H 
ENDROOT
BRANCH   1   3
ATOM      3  N35 BJC d   1      29.908   5.631  15.543  0.00  0.00    -0.353 N 
ATOM      4  C33 BJC d   1      28.621   5.720  15.080  0.00  0.00     0.222 C 
ATOM      5  O34 BJC d   1      28.356   5.951  13.904  0.00  0.00    -0.273 OA
ATOM      6  H19 BJC d   1      30.041   5.442  16.516  0.00  0.00     0.163 HD
BRANCH   4   7
ATOM      7  C22 BJC d   1      27.527   5.523  16.105  0.00  0.00     0.024 C 
ATOM      8  C19 BJC d   1      27.431   6.823  16.945  0.00  0.00    -0.048 C 
ATOM      9  C17 BJC d   1      26.268   6.845  17.998  0.00  0.00    -0.029 C 
ATOM     10  H10 BJC d   1      28.382   6.953  17.483  0.00  0.00     0.034 H 
ATOM     11  H11 BJC d   1      27.282   7.666  16.254  0.00  0.00     0.034 H 
ATOM     12  C30 BJC d   1      24.901   6.423  17.350  0.00  0.00    -0.059 C 
ATOM     13  H9  BJC d   1      26.500   6.036  18.706  0.00  0.00     0.043 H 
ATOM     14  C27 BJC d   1      25.042   5.061  16.601  0.00  0.00    -0.064 C 
ATOM     15  H17 BJC d   1      24.586   7.197  16.635  0.00  0.00     0.033 H 
ATOM     16  H18 BJC d   1      24.142   6.324  18.140  0.00  0.00     0.033 H 
ATOM     17  C24 BJC d   1      26.126   5.163  15.493  0.00  0.00    -0.054 C 
ATOM     18  H15 BJC d   1      25.331   4.280  17.320  0.00  0.00     0.033 H 
ATOM     19  H16 BJC d   1      24.078   4.798  16.142  0.00  0.00     0.033 H 
ATOM     20  H13 BJC d   1      26.199   4.197  14.972  0.00  0.00     0.034 H 
ATOM     21  H14 BJC d   1      25.835   5.945  14.777  0.00  0.00     0.034 H 
ATOM     22  H12 BJC d   1      27.823   4.694  16.765  0.00  0.00     0.054 H 
BRANCH   9  23
ATOM     23  C16 BJC d   1      26.270   8.158  18.890  0.00  0.00     0.031 C 
BRANCH  23  24
ATOM     24  N1  BJC d   1      27.637   8.252  19.553  0.00  0.00    -0.343 N 
ATOM     25  C2  BJC d   1      28.593   9.366  19.272  0.00  0.00    -0.002 C 
ATOM     26  C5  BJC d   1      29.789   9.581  20.245  0.00  0.00    -0.050 C 
ATOM     27  H1  BJC d   1      28.011  10.299  19.262  0.00  0.00     0.064 H 
ATOM     28  H2  BJC d   1      29.016   9.187  18.272  0.00  0.00     0.064 H 
ATOM     29  C8  BJC d   1      30.460   8.218  20.523  0.00  0.00    -0.056 C 
ATOM     30  H3  BJC d   1      29.424  10.012  21.189  0.00  0.00     0.035 H 
ATOM     31  H4  BJC d   1      30.519  10.265  19.787  0.00  0.00     0.035 H 
ATOM     32  C11 BJC d   1      29.407   7.285  21.172  0.00  0.00     0.009 C 
ATOM     33  H5  BJC d   1      31.310   8.354  21.208  0.00  0.00     0.033 H 
ATOM     34  H6  BJC d   1      30.816   7.779  19.579  0.00  0.00     0.033 H 
ATOM     35  C14 BJC d   1      28.053   7.272  20.459  0.00  0.00     0.220 C 
ATOM     36  H7  BJC d   1      29.247   7.615  22.209  0.00  0.00     0.047 H 
ATOM     37  H8  BJC d   1      29.807   6.260  21.171  0.00  0.00     0.047 H 
ATOM     38  O15 BJC d   1      27.375   6.304  20.762  0.00  0.00    -0.273 OA
ENDBRANCH  23  24
BRANCH  23  39
ATOM     39  C85 BJC d   1      25.959   9.417  17.987  0.00  0.00    -0.053 C 
ATOM     40  H47 BJC d   1      24.965   9.304  17.531  0.00  0.00     0.030 H 
ATOM     41  H48 BJC d   1      26.719   9.497  17.195  0.00  0.00     0.030 H 
ATOM     42  H49 BJC d   1      25.977  10.326  18.606  0.00  0.00     0.030 H 
ENDBRANCH  23  39
BRANCH  23  43
ATOM     43  C89 BJC d   1      25.078   8.200  19.915  0.00  0.00    -0.053 C 
ATOM     44  H50 BJC d   1      24.124   8.128  19.372  0.00  0.00     0.030 H 
ATOM     45  H51 BJC d   1      25.110   9.146  20.476  0.00  0.00     0.030 H 
ATOM     46  H52 BJC d   1      25.166   7.356  20.614  0.00  0.00     0.030 H 
ENDBRANCH  23  43
ENDBRANCH   9  23
ENDBRANCH   4   7
ENDBRANCH   1   3
BRANCH   1  47
ATOM     47  C39 BJC d   1      31.784   4.423  14.431  0.00  0.00     0.078 C 
ATOM     48  H21 BJC d   1      32.035   3.948  15.391  0.00  0.00     0.088 H 
BRANCH  47  49
ATOM     49  O41 BJC d   1      32.975   4.594  13.649  0.00  0.00    -0.392 OA
ATOM     50  H22 BJC d   1      33.585   5.149  14.120  0.00  0.00     0.210 HD
ENDBRANCH  47  49
BRANCH  47  51
ATOM     51  C43 BJC d   1      30.844   3.493  13.617  0.00  0.00     0.107 C 
ATOM     52  H23 BJC d   1      30.498   4.037  12.726  0.00  0.00     0.079 H 
ATOM     53  H24 BJC d   1      29.980   3.232  14.245  0.00  0.00     0.079 H 
BRANCH  51  54
ATOM     54  N46 BJC d   1      31.505   2.243  13.180  0.00  0.00    -0.069 N 
ATOM     55  H25 BJC d   1      31.602   1.643  13.984  0.00  0.00     0.277 HD
ATOM     56  H26 BJC d   1      32.418   2.480  12.825  0.00  0.00     0.277 HD
BRANCH  54  57
ATOM     57  C48 BJC d   1      30.780   1.480  12.119  0.00  0.00     0.105 C 
ATOM     58  H27 BJC d   1      29.758   1.268  12.465  0.00  0.00     0.083 H 
ATOM     59  H28 BJC d   1      31.308   0.533  11.934  0.00  0.00     0.083 H 
BRANCH  57  60
ATOM     60  C51 BJC d   1      30.708   2.284  10.797  0.00  0.00    -0.032 A 
ATOM     61  C52 BJC d   1      31.886   2.724  10.150  0.00  0.00    -0.069 A 
ATOM     62  C54 BJC d   1      31.837   3.463   8.935  0.00  0.00    -0.054 A 
ATOM     63  H29 BJC d   1      32.849   2.493  10.590  0.00  0.00     0.085 H 
ATOM     64  C55 BJC d   1      30.569   3.754   8.373  0.00  0.00    -0.076 A 
ATOM     65  C57 BJC d   1      29.379   3.317   9.013  0.00  0.00    -0.082 A 
ATOM     66  H30 BJC d   1      30.507   4.315   7.447  0.00  0.00     0.084 H 
ATOM     67  C59 BJC d   1      29.445   2.583  10.220  0.00  0.00    -0.075 A 
ATOM     68  H31 BJC d   1      28.415   3.547   8.574  0.00  0.00     0.083 H 
ATOM     69  H32 BJC d   1      28.534   2.249  10.704  0.00  0.00     0.084 H 
BRANCH  62  70
ATOM     70  C61 BJC d   1      33.140   3.924   8.240  0.00  0.00    -0.036 C 
ATOM     71  H33 BJC d   1      32.873   4.113   7.190  0.00  0.00     0.046 H 
BRANCH  70  72
ATOM     72  C63 BJC d   1      33.632   5.262   8.831  0.00  0.00    -0.069 C 
ATOM     73  H34 BJC d   1      34.558   5.569   8.322  0.00  0.00     0.028 H 
ATOM     74  H35 BJC d   1      33.828   5.138   9.906  0.00  0.00     0.028 H 
ATOM     75  H36 BJC d   1      32.861   6.033   8.686  0.00  0.00     0.028 H 
ENDBRANCH  70  72
BRANCH  70  76
ATOM     76  C67 BJC d   1      34.295   2.889   8.211  0.00  0.00    -0.069 C 
ATOM     77  H37 BJC d   1      33.928   1.942   7.788  0.00  0.00     0.028 H 
ATOM     78  H38 BJC d   1      34.658   2.716   9.235  0.00  0.00     0.028 H 
ATOM     79  H39 BJC d   1      35.117   3.274   7.590  0.00  0.00     0.028 H 
ENDBRANCH  70  76
ENDBRANCH  62  70
ENDBRANCH  57  60
ENDBRANCH  54  57
ENDBRANCH  51  54
ENDBRANCH  47  51
ENDBRANCH   1  47
BRANCH   1  80
ATOM     80  C71 BJC d   1      32.074   6.787  15.435  0.00  0.00    -0.020 C 
ATOM     81  H40 BJC d   1      32.947   6.930  14.781  0.00  0.00     0.043 H 
ATOM     82  H41 BJC d   1      32.393   6.309  16.373  0.00  0.00     0.043 H 
BRANCH  80  83
ATOM     83  C74 BJC d   1      31.532   8.184  15.792  0.00  0.00    -0.056 A 
ATOM     84  C75 BJC d   1      30.435   8.788  15.105  0.00  0.00    -0.077 A 
ATOM     85  C77 BJC d   1      29.982  10.082  15.474  0.00  0.00    -0.082 A 
ATOM     86  H42 BJC d   1      29.946   8.255  14.297  0.00  0.00     0.084 H 
ATOM     87  C79 BJC d   1      30.618  10.778  16.528  0.00  0.00    -0.083 A 
ATOM     88  H43 BJC d   1      29.150  10.536  14.948  0.00  0.00     0.083 H 
ATOM     89  C81 BJC d   1      31.709  10.187  17.217  0.00  0.00    -0.082 A 
ATOM     90  H44 BJC d   1      30.271  11.765  16.810  0.00  0.00     0.083 H 
ATOM     91  C83 BJC d   1      32.159   8.895  16.849  0.00  0.00    -0.077 A 
ATOM     92  H45 BJC d   1      32.197  10.723  18.023  0.00  0.00     0.083 H 
ATOM     93  H46 BJC d   1      32.990   8.445  17.380  0.00  0.00     0.084 H 
ENDBRANCH  80  83
ENDBRANCH   1  80
TORSDOF 17
