REMARK  7 active torsions:
REMARK  status: ('A' for Active; 'I' for Inactive)
REMARK    1  A    between atoms: N1_1  and  C1'_7 
REMARK    2  A    between atoms: C5_5  and  N6_6 
REMARK    3  A    between atoms: C2'_8  and  O2'_12 
REMARK    4  A    between atoms: C3'_9  and  O3'_13 
REMARK    5  A    between atoms: C4'_10  and  C5'_14 
REMARK    6  A    between atoms: C5'_14  and  O5'_15 
REMARK    7  A    between atoms: O5'_15  and  P_16 
ROOT
ATOM      1  C1' AIR d   1     -21.645   9.799  45.390  0.00  0.00     0.139 C 
ATOM      2  C2' AIR d   1     -21.952  11.166  44.792  0.00  0.00     0.105 C 
ATOM      3  C3' AIR d   1     -22.732  11.776  45.965  0.00  0.00     0.091 C 
ATOM      4  C4' AIR d   1     -21.877  11.309  47.129  0.00  0.00     0.089 C 
ATOM      5  O4' AIR d   1     -21.829   9.908  46.772  0.00  0.00    -0.353 OA
ATOM      6  H5  AIR d   1     -20.605   9.525  45.159  0.00  0.00     0.122 H 
ATOM      7  H6  AIR d   1     -22.485  11.167  43.830  0.00  0.00     0.093 H 
ATOM      8  H7  AIR d   1     -23.767  11.406  46.013  0.00  0.00     0.091 H 
ATOM      9  H8  AIR d   1     -20.872  11.734  46.988  0.00  0.00     0.090 H 
ENDROOT
BRANCH   1  10
ATOM     10  N1  AIR d   1     -22.542   8.742  44.913  0.00  0.00    -0.296 N 
ATOM     11  C2  AIR d   1     -23.436   8.695  43.891  0.00  0.00     0.069 A 
ATOM     12  N3  AIR d   1     -24.314   7.692  43.896  0.00  0.00    -0.252 NA
ATOM     13  H1  AIR d   1     -23.435   9.445  43.101  0.00  0.00     0.143 H 
ATOM     14  C4  AIR d   1     -23.852   7.000  44.990  0.00  0.00     0.045 A 
ATOM     15  C5  AIR d   1     -22.752   7.567  45.583  0.00  0.00     0.122 A 
ATOM     16  H2  AIR d   1     -24.317   6.085  45.353  0.00  0.00     0.120 H 
BRANCH  15  17
ATOM     17  N6  AIR d   1     -22.100   7.125  46.681  0.00  0.00    -0.384 N 
ATOM     18  H3  AIR d   1     -22.350   6.217  47.098  0.00  0.00     0.157 HD
ATOM     19  H4  AIR d   1     -21.353   7.696  47.101  0.00  0.00     0.157 HD
ENDBRANCH  15  17
ENDBRANCH   1  10
BRANCH   2  20
ATOM     20  O2' AIR d   1     -20.655  11.783  44.751  0.00  0.00    -0.388 OA
ATOM     21  H9  AIR d   1     -20.755  12.720  44.627  0.00  0.00     0.210 HD
ENDBRANCH   2  20
BRANCH   3  22
ATOM     22  O3' AIR d   1     -22.708  13.203  45.947  0.00  0.00    -0.390 OA
ATOM     23  H10 AIR d   1     -23.238  13.518  45.224  0.00  0.00     0.210 HD
ENDBRANCH   3  22
BRANCH   4  24
ATOM     24  C5' AIR d   1     -22.214  11.662  48.565  0.00  0.00     0.059 C 
ATOM     25  H11 AIR d   1     -23.302  11.803  48.644  0.00  0.00     0.079 H 
ATOM     26  H12 AIR d   1     -21.703  12.601  48.823  0.00  0.00     0.079 H 
BRANCH  24  27
ATOM     27  O5' AIR d   1     -21.809  10.638  49.519  0.00  0.00    -0.280 OA
BRANCH  27  28
ATOM     28  P   AIR d   1     -22.079  10.810  51.117  0.00  0.00     0.422 P 
ATOM     29  O6  AIR d   1     -21.946  12.318  51.638  0.00  0.00    -0.617 OA
ATOM     30  O7  AIR d   1     -21.071  10.033  51.922  0.00  0.00    -0.617 OA
ATOM     31  O8  AIR d   1     -23.448  10.323  51.560  0.00  0.00    -0.617 OA
ENDBRANCH  27  28
ENDBRANCH  24  27
ENDBRANCH   4  24
TORSDOF 7
