REMARK  13 active torsions:
REMARK  status: ('A' for Active; 'I' for Inactive)
REMARK    1  A    between atoms: C2_2  and  NBI_35 
REMARK    2  A    between atoms: OAW_27  and  CAA_7 
REMARK    3  A    between atoms: NBF_32  and  CAB_8 
REMARK    4  A    between atoms: NBF_32  and  CAC_9 
REMARK    5  A    between atoms: NBG_33  and  CAD_10 
REMARK    6  A    between atoms: NBH_34  and  CAE_11 
REMARK    7  A    between atoms: CAJ_16  and  CAH_14 
REMARK    8  A    between atoms: CAH_14  and  CAM_19 
REMARK    9  A    between atoms: OAX_28  and  CAJ_16 
REMARK   10  A    between atoms: CAM_19  and  NBF_32 
REMARK   11  A    between atoms: NAV_26  and  CBE_31 
REMARK   12  A    between atoms: CAY_29  and  OAW_27 
REMARK   13  A    between atoms: OAX_28  and  CAZ_30 
ROOT
ATOM      1  N1  DXQ d   1     -38.777  15.913  47.521  0.00  0.00    -0.044 NA
ATOM      2  C2  DXQ d   1     -37.449  15.633  47.504  0.00  0.00     0.727 A 
ATOM      3  N3  DXQ d   1     -37.003  14.450  48.014  0.00  0.00    -0.062 NA
ATOM      4  C4  DXQ d   1     -37.857  13.528  48.524  0.00  0.00     0.092 A 
ATOM      5  C5  DXQ d   1     -39.223  13.822  48.545  0.00  0.00     0.042 A 
ATOM      6  C6  DXQ d   1     -39.674  15.042  48.026  0.00  0.00     0.155 A 
ATOM      7  CAF DXQ d   1     -37.395  12.309  49.046  0.00  0.00    -0.019 A 
ATOM      8  CAG DXQ d   1     -40.133  12.904  49.076  0.00  0.00    -0.032 A 
ATOM      9  NAV DXQ d   1     -40.995  15.256  48.073  0.00  0.00    -0.369 N 
ATOM     10  CAY DXQ d   1     -39.677  11.686  49.594  0.00  0.00     0.102 A 
ATOM     11  CAZ DXQ d   1     -38.308  11.380  49.572  0.00  0.00     0.104 A 
ATOM     12  H   DXQ d   1     -36.328  12.084  49.043  0.00  0.00     0.091 H 
ATOM     13  H   DXQ d   1     -41.198  13.136  49.087  0.00  0.00     0.089 H 
ATOM     14  H   DXQ d   1     -41.505  14.545  48.597  0.00  0.00     0.161 HD
ENDROOT
BRANCH   2  15
ATOM     15  NBI DXQ d   1     -36.581  16.544  47.005  0.00  0.00    -0.212 N 
ATOM     16  CAO DXQ d   1     -35.132  16.251  46.987  0.00  0.00     0.013 C 
ATOM     17  CAI DXQ d   1     -34.300  16.847  48.141  0.00  0.00    -0.025 C 
ATOM     18  H   DXQ d   1     -35.040  15.168  47.074  0.00  0.00     0.065 H 
ATOM     19  H   DXQ d   1     -34.744  16.696  46.071  0.00  0.00     0.065 H 
ATOM     20  CAN DXQ d   1     -34.922  18.037  48.904  0.00  0.00     0.114 C 
ATOM     21  H   DXQ d   1     -34.187  16.047  48.873  0.00  0.00     0.037 H 
ATOM     22  H   DXQ d   1     -33.386  17.228  47.686  0.00  0.00     0.037 H 
ATOM     23  NBG DXQ d   1     -35.485  19.055  47.996  0.00  0.00     0.085 N 
ATOM     24  H   DXQ d   1     -34.135  18.509  49.493  0.00  0.00     0.079 H 
ATOM     25  H   DXQ d   1     -35.732  17.654  49.524  0.00  0.00     0.079 H 
ATOM     26  CAR DXQ d   1     -36.917  18.820  47.746  0.00  0.00     0.128 C 
ATOM     27  CAS DXQ d   1     -37.106  17.855  46.570  0.00  0.00     0.037 C 
ATOM     28  H   DXQ d   1     -37.365  18.383  48.638  0.00  0.00     0.082 H 
ATOM     29  H   DXQ d   1     -37.395  19.770  47.505  0.00  0.00     0.082 H 
ATOM     30  H   DXQ d   1     -36.575  18.211  45.687  0.00  0.00     0.067 H 
ATOM     31  H   DXQ d   1     -38.158  17.779  46.296  0.00  0.00     0.067 H 
BRANCH  23  32
ATOM     32  CAD DXQ d   1     -35.361  20.380  48.645  0.00  0.00     0.095 C 
ATOM     33  H   DXQ d   1     -35.910  20.375  49.587  0.00  0.00     0.071 H 
ATOM     34  H   DXQ d   1     -34.309  20.592  48.837  0.00  0.00     0.071 H 
ATOM     35  H   DXQ d   1     -35.773  21.145  47.987  0.00  0.00     0.071 H 
ENDBRANCH  23  32
ENDBRANCH   2  15
BRANCH   9  36
ATOM     36  CBE DXQ d   1     -41.867  16.320  47.516  0.00  0.00     0.014 C 
ATOM     37  CAK DXQ d   1     -41.786  16.516  46.007  0.00  0.00    -0.021 C 
ATOM     38  CAP DXQ d   1     -42.996  17.367  45.581  0.00  0.00     0.115 C 
ATOM     39  H   DXQ d   1     -40.856  17.017  45.739  0.00  0.00     0.038 H 
ATOM     40  H   DXQ d   1     -41.801  15.553  45.498  0.00  0.00     0.038 H 
ATOM     41  NBH DXQ d   1     -43.162  18.595  46.407  0.00  0.00     0.084 N 
ATOM     42  H   DXQ d   1     -43.891  16.758  45.707  0.00  0.00     0.080 H 
ATOM     43  H   DXQ d   1     -42.836  17.680  44.549  0.00  0.00     0.080 H 
ATOM     44  CAQ DXQ d   1     -42.938  18.504  47.871  0.00  0.00     0.115 C 
ATOM     45  CAL DXQ d   1     -41.687  17.673  48.198  0.00  0.00    -0.021 C 
ATOM     46  H   DXQ d   1     -42.796  19.511  48.262  0.00  0.00     0.080 H 
ATOM     47  H   DXQ d   1     -43.803  18.019  48.324  0.00  0.00     0.080 H 
ATOM     48  H   DXQ d   1     -41.572  17.552  49.275  0.00  0.00     0.038 H 
ATOM     49  H   DXQ d   1     -40.786  18.171  47.840  0.00  0.00     0.038 H 
ATOM     50  H   DXQ d   1     -42.861  15.929  47.736  0.00  0.00     0.072 H 
BRANCH  41  51
ATOM     51  CAE DXQ d   1     -44.499  19.153  46.156  0.00  0.00     0.095 C 
ATOM     52  H   DXQ d   1     -44.595  19.401  45.099  0.00  0.00     0.071 H 
ATOM     53  H   DXQ d   1     -45.255  18.417  46.428  0.00  0.00     0.071 H 
ATOM     54  H   DXQ d   1     -44.634  20.053  46.755  0.00  0.00     0.071 H 
ENDBRANCH  41  51
ENDBRANCH   9  36
BRANCH  11  55
ATOM     55  OAX DXQ d   1     -37.933  10.169  50.101  0.00  0.00    -0.348 OA
BRANCH  55  56
ATOM     56  CAJ DXQ d   1     -36.609   9.646  49.858  0.00  0.00     0.028 C 
ATOM     57  H   DXQ d   1     -36.461   9.507  48.787  0.00  0.00     0.075 H 
ATOM     58  H   DXQ d   1     -35.863  10.347  50.233  0.00  0.00     0.075 H 
BRANCH  56  59
ATOM     59  CAH DXQ d   1     -36.460   8.288  50.586  0.00  0.00    -0.020 C 
ATOM     60  H   DXQ d   1     -36.564   8.487  51.653  0.00  0.00     0.038 H 
ATOM     61  H   DXQ d   1     -35.495   7.874  50.291  0.00  0.00     0.038 H 
BRANCH  59  62
ATOM     62  CAM DXQ d   1     -37.532   7.236  50.218  0.00  0.00     0.114 C 
ATOM     63  H   DXQ d   1     -38.507   7.716  50.295  0.00  0.00     0.079 H 
ATOM     64  H   DXQ d   1     -37.415   6.392  50.898  0.00  0.00     0.079 H 
BRANCH  62  65
ATOM     65  NBF DXQ d   1     -37.392   6.720  48.831  0.00  0.00     0.080 N 
BRANCH  65  66
ATOM     66  CAB DXQ d   1     -38.576   5.933  48.478  0.00  0.00     0.095 C 
ATOM     67  H   DXQ d   1     -38.473   5.562  47.458  0.00  0.00     0.071 H 
ATOM     68  H   DXQ d   1     -38.669   5.092  49.165  0.00  0.00     0.071 H 
ATOM     69  H   DXQ d   1     -39.463   6.562  48.549  0.00  0.00     0.071 H 
ENDBRANCH  65  66
BRANCH  65  70
ATOM     70  CAC DXQ d   1     -36.248   5.814  48.713  0.00  0.00     0.095 C 
ATOM     71  H   DXQ d   1     -36.379   4.975  49.396  0.00  0.00     0.071 H 
ATOM     72  H   DXQ d   1     -36.183   5.445  47.690  0.00  0.00     0.071 H 
ATOM     73  H   DXQ d   1     -35.334   6.351  48.966  0.00  0.00     0.071 H 
ENDBRANCH  65  70
ENDBRANCH  62  65
ENDBRANCH  59  62
ENDBRANCH  56  59
ENDBRANCH  55  56
ENDBRANCH  11  55
BRANCH  10  74
ATOM     74  OAW DXQ d   1     -40.533  10.767  50.118  0.00  0.00    -0.353 OA
BRANCH  74  75
ATOM     75  CAA DXQ d   1     -41.922  11.081  50.054  0.00  0.00     0.010 C 
ATOM     76  H   DXQ d   1     -42.109  12.007  50.598  0.00  0.00     0.066 H 
ATOM     77  H   DXQ d   1     -42.218  11.204  49.012  0.00  0.00     0.066 H 
ATOM     78  H   DXQ d   1     -42.497  10.271  50.503  0.00  0.00     0.066 H 
ENDBRANCH  74  75
ENDBRANCH  10  74
TORSDOF 13
