REMARK  11 active torsions:
REMARK  status: ('A' for Active; 'I' for Inactive)
REMARK    1  A    between atoms: C3_3  and  C7_7 
REMARK    2  A    between atoms: C7_7  and  C8_8 
REMARK    3  A    between atoms: C8_8  and  C9_9 
REMARK    4  A    between atoms: C9_9  and  C10_10 
REMARK    5  A    between atoms: C10_10  and  C11_11 
REMARK    6  A    between atoms: C11_11  and  C12_12 
REMARK    7  A    between atoms: C12_12  and  C13_13 
REMARK    8  A    between atoms: C13_13  and  O14_14 
REMARK    9  A    between atoms: C13_13  and  C15_15 
REMARK   10  A    between atoms: C18_18  and  C20_20 
REMARK   11  A    between atoms: C22_22  and  C26_26 
ROOT
ATOM      1  C11 F2C d   1     -41.453  39.673   6.004  0.00  0.00    -0.062 C 
ATOM      2  H14 F2C d   1     -41.444  39.070   5.084  0.00  0.00     0.033 H 
ATOM      3  H15 F2C d   1     -41.854  39.072   6.833  0.00  0.00     0.033 H 
ENDROOT
BRANCH   1   4
ATOM      4  C10 F2C d   1     -42.365  40.889   5.789  0.00  0.00    -0.065 C 
ATOM      5  H12 F2C d   1     -41.858  41.610   5.131  0.00  0.00     0.033 H 
ATOM      6  H13 F2C d   1     -43.303  40.560   5.318  0.00  0.00     0.033 H 
BRANCH   4   7
ATOM      7  C9  F2C d   1     -42.681  41.561   7.125  0.00  0.00    -0.065 C 
ATOM      8  H10 F2C d   1     -43.353  40.905   7.698  0.00  0.00     0.033 H 
ATOM      9  H11 F2C d   1     -41.741  41.698   7.680  0.00  0.00     0.033 H 
BRANCH   7  10
ATOM     10  C8  F2C d   1     -43.356  42.929   6.958  0.00  0.00    -0.061 C 
ATOM     11  H8  F2C d   1     -42.623  43.667   6.602  0.00  0.00     0.033 H 
ATOM     12  H9  F2C d   1     -44.182  42.854   6.235  0.00  0.00     0.033 H 
BRANCH  10  13
ATOM     13  C7  F2C d   1     -43.896  43.349   8.322  0.00  0.00    -0.041 C 
ATOM     14  H6  F2C d   1     -44.717  42.665   8.585  0.00  0.00     0.040 H 
ATOM     15  H7  F2C d   1     -43.082  43.244   9.054  0.00  0.00     0.040 H 
BRANCH  13  16
ATOM     16  C3  F2C d   1     -44.425  44.769   8.413  0.00  0.00    -0.058 A 
ATOM     17  C2  F2C d   1     -44.433  45.617   7.308  0.00  0.00    -0.077 A 
ATOM     18  C1  F2C d   1     -44.930  46.913   7.435  0.00  0.00    -0.082 A 
ATOM     19  H2  F2C d   1     -44.054  45.270   6.353  0.00  0.00     0.084 H 
ATOM     20  C6  F2C d   1     -45.430  47.362   8.655  0.00  0.00    -0.083 A 
ATOM     21  H1  F2C d   1     -44.927  47.577   6.578  0.00  0.00     0.083 H 
ATOM     22  C5  F2C d   1     -45.433  46.506   9.760  0.00  0.00    -0.082 A 
ATOM     23  H5  F2C d   1     -45.815  48.371   8.747  0.00  0.00     0.083 H 
ATOM     24  C4  F2C d   1     -44.931  45.213   9.636  0.00  0.00    -0.077 A 
ATOM     25  H4  F2C d   1     -45.825  46.848  10.711  0.00  0.00     0.083 H 
ATOM     26  H3  F2C d   1     -44.933  44.549  10.492  0.00  0.00     0.084 H 
ENDBRANCH  13  16
ENDBRANCH  10  13
ENDBRANCH   7  10
ENDBRANCH   4   7
ENDBRANCH   1   4
BRANCH   1  27
ATOM     27  C12 F2C d   1     -40.013  40.082   6.341  0.00  0.00    -0.034 C 
ATOM     28  H16 F2C d   1     -40.017  40.703   7.249  0.00  0.00     0.037 H 
ATOM     29  H17 F2C d   1     -39.596  40.660   5.503  0.00  0.00     0.037 H 
BRANCH  27  30
ATOM     30  C13 F2C d   1     -39.144  38.848   6.580  0.00  0.00     0.099 C 
ATOM     31  H18 F2C d   1     -39.197  38.194   5.697  0.00  0.00     0.096 H 
BRANCH  30  32
ATOM     32  O14 F2C d   1     -39.620  38.145   7.734  0.00  0.00    -0.387 OA
ATOM     33  H19 F2C d   1     -40.520  37.876   7.591  0.00  0.00     0.210 HD
ENDBRANCH  30  32
BRANCH  30  34
ATOM     34  C15 F2C d   1     -37.695  39.232   6.840  0.00  0.00     0.174 A 
ATOM     35  N16 F2C d   1     -36.526  38.641   6.651  0.00  0.00    -0.235 NA
ATOM     36  C17 F2C d   1     -35.603  39.484   7.103  0.00  0.00     0.040 A 
ATOM     37  C18 F2C d   1     -36.212  40.570   7.571  0.00  0.00     0.123 A 
ATOM     38  H20 F2C d   1     -34.527  39.314   7.092  0.00  0.00     0.119 H 
ATOM     39  O19 F2C d   1     -37.543  40.425   7.415  0.00  0.00    -0.289 OA
BRANCH  37  40
ATOM     40  C20 F2C d   1     -35.575  41.769   8.162  0.00  0.00     0.093 A 
ATOM     41  N21 F2C d   1     -34.270  41.736   8.462  0.00  0.00    -0.239 NA
ATOM     42  C22 F2C d   1     -33.666  42.818   8.989  0.00  0.00     0.133 A 
ATOM     43  C23 F2C d   1     -34.377  43.981   9.252  0.00  0.00    -0.048 A 
ATOM     44  C24 F2C d   1     -35.730  44.034   8.946  0.00  0.00    -0.078 A 
ATOM     45  H21 F2C d   1     -33.881  44.839   9.692  0.00  0.00     0.087 H 
ATOM     46  C25 F2C d   1     -36.335  42.913   8.391  0.00  0.00    -0.052 A 
ATOM     47  H22 F2C d   1     -36.304  44.934   9.137  0.00  0.00     0.083 H 
ATOM     48  H23 F2C d   1     -37.389  42.929   8.139  0.00  0.00     0.087 H 
BRANCH  42  49
ATOM     49  C26 F2C d   1     -32.208  42.722   9.306  0.00  0.00     0.229 C 
ATOM     50  O27 F2C d   1     -31.622  41.647   9.045  0.00  0.00    -0.643 OA
ATOM     51  O28 F2C d   1     -31.630  43.702   9.821  0.00  0.00    -0.643 OA
ENDBRANCH  42  49
ENDBRANCH  37  40
ENDBRANCH  30  34
ENDBRANCH  27  30
ENDBRANCH   1  27
TORSDOF 11
