REMARK  8 active torsions:
REMARK  status: ('A' for Active; 'I' for Inactive)
REMARK    1  A    between atoms: C12_1  and  C13_2 
REMARK    2  A    between atoms: C12_1  and  C29_18 
REMARK    3  A    between atoms: C13_2  and  O14_3 
REMARK    4  A    between atoms: C13_2  and  C15_4 
REMARK    5  A    between atoms: C18_7  and  C20_9 
REMARK    6  A    between atoms: C22_11  and  C26_15 
REMARK    7  A    between atoms: C29_18  and  C30_19 
REMARK    8  A    between atoms: C33_22  and  C36_25 
ROOT
ATOM      1  C12 F27 d   1      54.516 -14.564  -6.307  0.00  0.00    -0.030 C 
ATOM      2  H1  F27 d   1      54.736 -14.052  -5.358  0.00  0.00     0.037 H 
ATOM      3  H2  F27 d   1      55.066 -14.074  -7.124  0.00  0.00     0.037 H 
ENDROOT
BRANCH   1   4
ATOM      4  C13 F27 d   1      53.023 -14.419  -6.588  0.00  0.00     0.099 C 
ATOM      5  H3  F27 d   1      52.467 -14.774  -5.708  0.00  0.00     0.096 H 
BRANCH   4   6
ATOM      6  O14 F27 d   1      52.623 -15.192  -7.738  0.00  0.00    -0.387 OA
ATOM      7  H4  F27 d   1      51.691 -15.080  -7.885  0.00  0.00     0.210 HD
ENDBRANCH   4   6
BRANCH   4   8
ATOM      8  C15 F27 d   1      52.660 -12.947  -6.855  0.00  0.00     0.174 A 
ATOM      9  N16 F27 d   1      51.587 -12.209  -6.629  0.00  0.00    -0.235 NA
ATOM     10  C17 F27 d   1      51.846 -10.988  -7.083  0.00  0.00     0.040 A 
ATOM     11  C18 F27 d   1      53.074 -10.973  -7.592  0.00  0.00     0.123 A 
ATOM     12  H5  F27 d   1      51.165 -10.139  -7.045  0.00  0.00     0.119 H 
ATOM     13  O19 F27 d   1      53.613 -12.208  -7.457  0.00  0.00    -0.289 OA
BRANCH  11  14
ATOM     14  C20 F27 d   1      53.745  -9.797  -8.198  0.00  0.00     0.093 A 
ATOM     15  N21 F27 d   1      53.019  -8.704  -8.489  0.00  0.00    -0.239 NA
ATOM     16  C22 F27 d   1      53.602  -7.619  -9.035  0.00  0.00     0.133 A 
ATOM     17  C23 F27 d   1      54.964  -7.611  -9.311  0.00  0.00    -0.048 A 
ATOM     18  C24 F27 d   1      55.727  -8.729  -9.017  0.00  0.00    -0.078 A 
ATOM     19  H6  F27 d   1      55.426  -6.736  -9.753  0.00  0.00     0.087 H 
ATOM     20  C25 F27 d   1      55.110  -9.833  -8.452  0.00  0.00    -0.052 A 
ATOM     21  H7  F27 d   1      56.791  -8.740  -9.226  0.00  0.00     0.083 H 
ATOM     22  H8  F27 d   1      55.688 -10.718  -8.210  0.00  0.00     0.087 H 
BRANCH  16  23
ATOM     23  C26 F27 d   1      52.769  -6.411  -9.350  0.00  0.00     0.229 C 
ATOM     24  O27 F27 d   1      51.535  -6.474  -9.184  0.00  0.00    -0.643 OA
ATOM     25  O28 F27 d   1      53.334  -5.373  -9.766  0.00  0.00    -0.643 OA
ENDBRANCH  16  23
ENDBRANCH  11  14
ENDBRANCH   4   8
ENDBRANCH   1   4
BRANCH   1  26
ATOM     26  C29 F27 d   1      55.019 -16.013  -6.195  0.00  0.00    -0.038 C 
ATOM     27  H9  F27 d   1      54.499 -16.654  -6.922  0.00  0.00     0.040 H 
ATOM     28  H10 F27 d   1      54.848 -16.398  -5.179  0.00  0.00     0.040 H 
BRANCH  26  29
ATOM     29  C30 F27 d   1      56.506 -15.974  -6.499  0.00  0.00    -0.058 A 
ATOM     30  C31 F27 d   1      57.506 -16.196  -5.542  0.00  0.00    -0.076 A 
ATOM     31  C32 F27 d   1      58.857 -16.124  -5.940  0.00  0.00    -0.072 A 
ATOM     32  H11 F27 d   1      57.245 -16.419  -4.514  0.00  0.00     0.084 H 
ATOM     33  C33 F27 d   1      59.212 -15.831  -7.264  0.00  0.00    -0.026 A 
ATOM     34  H12 F27 d   1      59.637 -16.299  -5.207  0.00  0.00     0.084 H 
ATOM     35  C34 F27 d   1      58.202 -15.613  -8.195  0.00  0.00    -0.072 A 
ATOM     36  C35 F27 d   1      56.866 -15.681  -7.812  0.00  0.00    -0.076 A 
ATOM     37  H13 F27 d   1      58.457 -15.389  -9.225  0.00  0.00     0.084 H 
ATOM     38  H14 F27 d   1      56.091 -15.503  -8.549  0.00  0.00     0.084 H 
BRANCH  33  39
ATOM     39  C36 F27 d   1      60.650 -15.757  -7.689  0.00  0.00    -0.026 A 
ATOM     40  C37 F27 d   1      61.040 -16.214  -8.946  0.00  0.00    -0.072 A 
ATOM     41  C38 F27 d   1      62.379 -16.147  -9.348  0.00  0.00    -0.082 A 
ATOM     42  H15 F27 d   1      60.298 -16.626  -9.620  0.00  0.00     0.084 H 
ATOM     43  C39 F27 d   1      63.347 -15.615  -8.491  0.00  0.00    -0.083 A 
ATOM     44  H16 F27 d   1      62.667 -16.509 -10.328  0.00  0.00     0.083 H 
ATOM     45  C40 F27 d   1      62.966 -15.155  -7.236  0.00  0.00    -0.082 A 
ATOM     46  H17 F27 d   1      64.384 -15.562  -8.802  0.00  0.00     0.083 H 
ATOM     47  C41 F27 d   1      61.622 -15.225  -6.836  0.00  0.00    -0.072 A 
ATOM     48  H18 F27 d   1      63.709 -14.741  -6.564  0.00  0.00     0.083 H 
ATOM     49  H19 F27 d   1      61.335 -14.863  -5.856  0.00  0.00     0.084 H 
ENDBRANCH  33  39
ENDBRANCH  26  29
ENDBRANCH   1  26
TORSDOF 8
