REMARK  19 active torsions:
REMARK  status: ('A' for Active; 'I' for Inactive)
REMARK    1  A    between atoms: CAV_26  and  C21_1 
REMARK    2  A    between atoms: C22_2  and  C23_3 
REMARK    3  A    between atoms: C23_3  and  C24_4 
REMARK    4  A    between atoms: C24_4  and  C25_5 
REMARK    5  A    between atoms: C25_5  and  C26_6 
REMARK    6  A    between atoms: C26_6  and  C27_7 
REMARK    7  A    between atoms: C27_7  and  C28_8 
REMARK    8  A    between atoms: C28_8  and  C29_9 
REMARK    9  A    between atoms: C29_9  and  C30_10 
REMARK   10  A    between atoms: CAZ_30  and  OAA_11 
REMARK   11  A    between atoms: CAN_18  and  CAM_17 
REMARK   12  A    between atoms: CAM_17  and  CAO_19 
REMARK   13  A    between atoms: CAP_20  and  CAN_18 
REMARK   14  A    between atoms: CAO_19  and  CAQ_21 
REMARK   15  A    between atoms: CAR_22  and  CAP_20 
REMARK   16  A    between atoms: CAQ_21  and  CAV_26 
REMARK   17  A    between atoms: CAZ_30  and  CAR_22 
REMARK   18  A    between atoms: CAX_28  and  CAW_27 
REMARK   19  A    between atoms: CAY_29  and  CAZ_30 
ROOT
ATOM      1  CAQ K84 d   1     -46.559  -3.924  -0.559  0.00  0.00    -0.062 C 
ATOM      2  H33 K84 d   1     -46.931  -4.334   0.392  0.00  0.00     0.033 H 
ATOM      3  H34 K84 d   1     -45.787  -3.168  -0.355  0.00  0.00     0.033 H 
ENDROOT
BRANCH   1   4
ATOM      4  CAO K84 d   1     -47.710  -3.280  -1.318  0.00  0.00    -0.065 C 
ATOM      5  H29 K84 d   1     -47.312  -2.624  -2.106  0.00  0.00     0.033 H 
ATOM      6  H30 K84 d   1     -48.336  -4.062  -1.773  0.00  0.00     0.033 H 
BRANCH   4   7
ATOM      7  CAM K84 d   1     -48.537  -2.467  -0.352  0.00  0.00    -0.065 C 
ATOM      8  H25 K84 d   1     -48.764  -3.073   0.538  0.00  0.00     0.033 H 
ATOM      9  H26 K84 d   1     -47.975  -1.571  -0.052  0.00  0.00     0.033 H 
BRANCH   7  10
ATOM     10  CAN K84 d   1     -49.826  -2.053  -1.022  0.00  0.00    -0.065 C 
ATOM     11  H27 K84 d   1     -50.466  -2.936  -1.164  0.00  0.00     0.033 H 
ATOM     12  H28 K84 d   1     -49.603  -1.600  -1.999  0.00  0.00     0.033 H 
BRANCH  10  13
ATOM     13  CAP K84 d   1     -50.544  -1.042  -0.147  0.00  0.00    -0.062 C 
ATOM     14  H31 K84 d   1     -50.397  -1.310   0.909  0.00  0.00     0.033 H 
ATOM     15  H32 K84 d   1     -51.618  -1.059  -0.383  0.00  0.00     0.033 H 
BRANCH  13  16
ATOM     16  CAR K84 d   1     -49.999   0.371  -0.387  0.00  0.00    -0.034 C 
ATOM     17  H35 K84 d   1     -49.499   0.404  -1.366  0.00  0.00     0.037 H 
ATOM     18  H36 K84 d   1     -49.274   0.617   0.403  0.00  0.00     0.037 H 
BRANCH  16  19
ATOM     19  CAZ K84 d   1     -51.138   1.405  -0.367  0.00  0.00     0.101 C 
ATOM     20  H39 K84 d   1     -51.625   1.423   0.619  0.00  0.00     0.096 H 
BRANCH  19  21
ATOM     21  OAA K84 d   1     -52.098   1.065  -1.399  0.00  0.00    -0.387 OA
ATOM     22  H20 K84 d   1     -52.448   0.198  -1.231  0.00  0.00     0.210 HD
ENDBRANCH  19  21
BRANCH  19  23
ATOM     23  CAY K84 d   1     -50.526   2.804  -0.703  0.00  0.00     0.198 A 
ATOM     24  NAT K84 d   1     -50.962   3.984  -0.259  0.00  0.00    -0.124 NA
ATOM     25  NAL K84 d   1     -50.278   4.893  -0.746  0.00  0.00    -0.119 NA
ATOM     26  CAX K84 d   1     -49.357   4.365  -1.533  0.00  0.00     0.221 A 
ATOM     27  OAU K84 d   1     -49.464   3.014  -1.544  0.00  0.00    -0.269 OA
BRANCH  26  28
ATOM     28  CAW K84 d   1     -48.403   5.034  -2.258  0.00  0.00     0.111 A 
ATOM     29  CAK K84 d   1     -47.228   4.373  -2.612  0.00  0.00    -0.051 A 
ATOM     30  CAG K84 d   1     -46.262   5.052  -3.357  0.00  0.00    -0.079 A 
ATOM     31  H24 K84 d   1     -47.066   3.344  -2.312  0.00  0.00     0.087 H 
ATOM     32  CAD K84 d   1     -46.502   6.383  -3.708  0.00  0.00    -0.066 A 
ATOM     33  H22 K84 d   1     -45.345   4.557  -3.657  0.00  0.00     0.083 H 
ATOM     34  CAH K84 d   1     -47.710   6.983  -3.318  0.00  0.00     0.003 A 
ATOM     35  H21 K84 d   1     -45.767   6.944  -4.273  0.00  0.00     0.085 H 
ATOM     36  NAS K84 d   1     -48.618   6.313  -2.611  0.00  0.00    -0.257 NA
ATOM     37  H23 K84 d   1     -47.907   8.011  -3.598  0.00  0.00     0.114 H 
ENDBRANCH  26  28
ENDBRANCH  19  23
ENDBRANCH  16  19
ENDBRANCH  13  16
ENDBRANCH  10  13
ENDBRANCH   7  10
ENDBRANCH   4   7
ENDBRANCH   1   4
BRANCH   1  38
ATOM     38  CAV K84 d   1     -45.958  -5.050  -1.396  0.00  0.00    -0.050 C 
ATOM     39  H37 K84 d   1     -45.413  -5.735  -0.731  0.00  0.00     0.038 H 
ATOM     40  H38 K84 d   1     -46.772  -5.595  -1.896  0.00  0.00     0.038 H 
BRANCH  38  41
ATOM     41  C21 K84 d   1     -45.081  -4.567  -2.361  0.00  0.00    -0.107 C 
ATOM     42  C22 K84 d   1     -45.289  -4.711  -3.733  0.00  0.00    -0.107 C 
ATOM     43  H2  K84 d   1     -44.535  -4.310  -4.409  0.00  0.00     0.076 H 
ATOM     44  H1  K84 d   1     -44.183  -4.048  -2.028  0.00  0.00     0.076 H 
BRANCH  42  45
ATOM     45  C23 K84 d   1     -46.402  -5.337  -4.292  0.00  0.00    -0.050 C 
ATOM     46  H3  K84 d   1     -47.306  -4.782  -4.001  0.00  0.00     0.038 H 
ATOM     47  H4  K84 d   1     -46.463  -6.366  -3.907  0.00  0.00     0.038 H 
BRANCH  45  48
ATOM     48  C24 K84 d   1     -46.320  -5.384  -5.822  0.00  0.00    -0.062 C 
ATOM     49  H5  K84 d   1     -45.341  -5.789  -6.117  0.00  0.00     0.033 H 
ATOM     50  H6  K84 d   1     -46.429  -4.364  -6.219  0.00  0.00     0.033 H 
BRANCH  48  51
ATOM     51  C25 K84 d   1     -47.421  -6.267  -6.407  0.00  0.00    -0.065 C 
ATOM     52  H7  K84 d   1     -47.251  -6.367  -7.489  0.00  0.00     0.033 H 
ATOM     53  H8  K84 d   1     -48.391  -5.779  -6.232  0.00  0.00     0.033 H 
BRANCH  51  54
ATOM     54  C26 K84 d   1     -47.463  -7.667  -5.790  0.00  0.00    -0.065 C 
ATOM     55  H9  K84 d   1     -47.892  -7.601  -4.779  0.00  0.00     0.033 H 
ATOM     56  H10 K84 d   1     -46.439  -8.064  -5.729  0.00  0.00     0.033 H 
BRANCH  54  57
ATOM     57  C27 K84 d   1     -48.318  -8.617  -6.635  0.00  0.00    -0.065 C 
ATOM     58  H11 K84 d   1     -47.844  -8.739  -7.620  0.00  0.00     0.033 H 
ATOM     59  H12 K84 d   1     -49.318  -8.177  -6.761  0.00  0.00     0.033 H 
BRANCH  57  60
ATOM     60  C28 K84 d   1     -48.464 -10.000  -5.981  0.00  0.00    -0.065 C 
ATOM     61  H13 K84 d   1     -49.190 -10.591  -6.559  0.00  0.00     0.033 H 
ATOM     62  H14 K84 d   1     -48.833  -9.870  -4.953  0.00  0.00     0.033 H 
BRANCH  60  63
ATOM     63  C29 K84 d   1     -47.133 -10.756  -5.937  0.00  0.00    -0.069 C 
ATOM     64  H15 K84 d   1     -47.282 -11.701  -5.394  0.00  0.00     0.032 H 
ATOM     65  H16 K84 d   1     -46.395 -10.139  -5.404  0.00  0.00     0.032 H 
BRANCH  63  66
ATOM     66  C30 K84 d   1     -46.591 -11.073  -7.333  0.00  0.00    -0.077 C 
ATOM     67  H17 K84 d   1     -45.638 -11.614  -7.242  0.00  0.00     0.027 H 
ATOM     68  H18 K84 d   1     -46.429 -10.136  -7.885  0.00  0.00     0.027 H 
ATOM     69  H19 K84 d   1     -47.317 -11.697  -7.875  0.00  0.00     0.027 H 
ENDBRANCH  63  66
ENDBRANCH  60  63
ENDBRANCH  57  60
ENDBRANCH  54  57
ENDBRANCH  51  54
ENDBRANCH  48  51
ENDBRANCH  45  48
ENDBRANCH  42  45
ENDBRANCH  38  41
ENDBRANCH   1  38
TORSDOF 19
