REMARK  7 active torsions:
REMARK  status: ('A' for Active; 'I' for Inactive)
REMARK    1  A    between atoms: C1_1  and  C2_4 
REMARK    2  A    between atoms: C4_6  and  O4_7 
REMARK    3  A    between atoms: C5_8  and  O5_9 
REMARK    4  A    between atoms: C6_10  and  C7_12 
REMARK    5  A    between atoms: C7_12  and  O7_13 
REMARK    6  A    between atoms: C7_12  and  C8_14 
REMARK    7  A    between atoms: C8_14  and  O8_15 
ROOT
ATOM      1  C2  KDO d   1     -14.162  61.436 106.607  0.00  0.00     0.125 C 
ATOM      2  C3  KDO d   1     -12.723  62.022 106.564  0.00  0.00    -0.005 C 
ATOM      3  C4  KDO d   1     -11.639  60.967 106.185  0.00  0.00     0.065 C 
ATOM      4  C5  KDO d   1     -11.855  59.614 106.928  0.00  0.00     0.087 C 
ATOM      5  C6  KDO d   1     -13.323  59.187 106.695  0.00  0.00     0.093 C 
ATOM      6  O6  KDO d   1     -14.238  60.151 107.243  0.00  0.00    -0.364 OA
ATOM      7  H   KDO d   1     -14.707  62.163 107.209  0.00  0.00     0.100 H 
ATOM      8  H   KDO d   1     -12.488  62.392 107.562  0.00  0.00     0.041 H 
ATOM      9  H   KDO d   1     -12.707  62.800 105.801  0.00  0.00     0.041 H 
ATOM     10  H   KDO d   1     -11.743  60.743 105.123  0.00  0.00     0.087 H 
ATOM     11  H   KDO d   1     -11.141  58.876 106.563  0.00  0.00     0.091 H 
ATOM     12  H   KDO d   1     -13.466  59.129 105.616  0.00  0.00     0.091 H 
ENDROOT
BRANCH   5  13
ATOM     13  C7  KDO d   1     -13.618  57.787 107.319  0.00  0.00     0.083 C 
ATOM     14  H   KDO d   1     -13.234  57.697 108.335  0.00  0.00     0.090 H 
BRANCH  13  15
ATOM     15  O7  KDO d   1     -12.999  56.831 106.476  0.00  0.00    -0.391 OA
ATOM     16  H   KDO d   1     -13.156  55.950 106.824  0.00  0.00     0.210 HD
ENDBRANCH  13  15
BRANCH  13  17
ATOM     17  C8  KDO d   1     -15.164  57.573 107.368  0.00  0.00     0.043 C 
ATOM     18  H   KDO d   1     -15.593  58.285 108.073  0.00  0.00     0.078 H 
ATOM     19  H   KDO d   1     -15.365  56.547 107.677  0.00  0.00     0.078 H 
BRANCH  17  20
ATOM     20  O8  KDO d   1     -15.748  57.787 106.093  0.00  0.00    -0.398 OA
ATOM     21  H   KDO d   1     -15.570  58.686 105.808  0.00  0.00     0.209 HD
ENDBRANCH  17  20
ENDBRANCH  13  17
ENDBRANCH   5  13
BRANCH   4  22
ATOM     22  O5  KDO d   1     -11.700  59.800 108.312  0.00  0.00    -0.390 OA
ATOM     23  H   KDO d   1     -11.834  58.963 108.763  0.00  0.00     0.210 HD
ENDBRANCH   4  22
BRANCH   3  24
ATOM     24  O4  KDO d   1     -10.341  61.494 106.379  0.00  0.00    -0.393 OA
ATOM     25  H   KDO d   1     -10.230  61.737 107.301  0.00  0.00     0.210 HD
ENDBRANCH   3  24
BRANCH   1  26
ATOM     26  C1  KDO d   1     -14.850  61.335 105.195  0.00  0.00     0.203 C 
ATOM     27  O1A KDO d   1     -14.186  61.861 104.077  0.00  0.00    -0.646 OA
ATOM     28  O1B KDO d   1     -15.654  60.474 104.998  0.00  0.00    -0.646 OA
ENDBRANCH   1  26
TORSDOF 7
