REMARK  6 active torsions:
REMARK  status: ('A' for Active; 'I' for Inactive)
REMARK       I    between atoms: N1_1  and  C9_14 
REMARK    1  A    between atoms: C16_22  and  C8_6 
REMARK    2  A    between atoms: C9_14  and  C10_7 
REMARK    3  A    between atoms: C13_8  and  O2_19 
REMARK    4  A    between atoms: C15_9  and  O1_18 
REMARK    5  A    between atoms: N2_23  and  C17_10 
REMARK    6  A    between atoms: C17_10  and  C18_24 
REMARK       I    between atoms: C16_22  and  N2_23 
ROOT
ATOM      1  N1  1RC d   1      16.620  -3.007  50.740  0.00  0.00    -0.326 N 
ATOM      2  C4  1RC d   1      17.494  -2.814  54.395  0.00  0.00    -0.074 A 
ATOM      3  C5  1RC d   1      17.239  -3.070  53.022  0.00  0.00    -0.018 A 
ATOM      4  C6  1RC d   1      17.642  -4.293  52.418  0.00  0.00    -0.031 A 
ATOM      5  C7  1RC d   1      17.263  -4.319  50.971  0.00  0.00     0.024 A 
ATOM      6  C8  1RC d   1      16.550  -2.188  52.011  0.00  0.00     0.118 A 
ATOM      7  C1  1RC d   1      18.166  -3.807  55.153  0.00  0.00    -0.082 A 
ATOM      8  C2  1RC d   1      18.567  -5.032  54.540  0.00  0.00    -0.082 A 
ATOM      9  C3  1RC d   1      18.303  -5.281  53.163  0.00  0.00    -0.075 A 
ATOM     10  C9  1RC d   1      16.208  -2.644  49.418  0.00  0.00     0.258 C 
ATOM     11  O3  1RC d   1      16.319  -3.359  48.422  0.00  0.00    -0.267 OA
ATOM     12  H1  1RC d   1      17.183  -1.882  54.853  0.00  0.00     0.084 H 
ATOM     13  H2  1RC d   1      18.154  -4.434  50.337  0.00  0.00     0.071 H 
ATOM     14  H3  1RC d   1      16.559  -5.139  50.767  0.00  0.00     0.071 H 
ATOM     15  H4  1RC d   1      17.062  -1.223  51.884  0.00  0.00     0.095 H 
ATOM     16  H7  1RC d   1      18.376  -3.635  56.202  0.00  0.00     0.083 H 
ATOM     17  H8  1RC d   1      19.079  -5.783  55.131  0.00  0.00     0.083 H 
ATOM     18  H9  1RC d   1      18.606  -6.213  52.701  0.00  0.00     0.084 H 
ENDROOT
BRANCH   6  19
ATOM     19  C16 1RC d   1      15.098  -1.960  52.516  0.00  0.00     0.245 C 
ATOM     20  N2  1RC d   1      14.275  -3.080  52.453  0.00  0.00    -0.359 N 
ATOM     21  H14 1RC d   1      14.662  -3.929  52.094  0.00  0.00     0.162 HD
ATOM     22  O4  1RC d   1      14.735  -0.864  52.930  0.00  0.00    -0.271 OA
BRANCH  20  23
ATOM     23  C17 1RC d   1      12.877  -3.086  52.882  0.00  0.00    -0.008 C 
ATOM     24  H5  1RC d   1      12.749  -2.322  53.663  0.00  0.00     0.063 H 
ATOM     25  H6  1RC d   1      12.645  -4.077  53.298  0.00  0.00     0.063 H 
BRANCH  23  26
ATOM     26  C18 1RC d   1      11.901  -2.796  51.764  0.00  0.00    -0.061 C 
ATOM     27  H15 1RC d   1      10.874  -2.817  52.159  0.00  0.00     0.029 H 
ATOM     28  H16 1RC d   1      12.007  -3.558  50.978  0.00  0.00     0.029 H 
ATOM     29  H17 1RC d   1      12.111  -1.802  51.342  0.00  0.00     0.029 H 
ENDBRANCH  23  26
ENDBRANCH  20  23
ENDBRANCH   6  19
BRANCH  10  30
ATOM     30  C10 1RC d   1      15.629  -1.280  49.225  0.00  0.00     0.067 A 
ATOM     31  C15 1RC d   1      16.480  -0.195  48.846  0.00  0.00     0.084 A 
ATOM     32  C14 1RC d   1      15.945   1.104  48.685  0.00  0.00    -0.016 A 
ATOM     33  C13 1RC d   1      14.559   1.320  48.902  0.00  0.00     0.090 A 
ATOM     34  H11 1RC d   1      16.588   1.928  48.398  0.00  0.00     0.092 H 
ATOM     35  C12 1RC d   1      13.715   0.236  49.270  0.00  0.00     0.068 A 
ATOM     36  C11 1RC d   1      14.244  -1.061  49.431  0.00  0.00    -0.041 A 
ATOM     37 CL1  1RC d   1      12.041   0.463  49.539  0.00  0.00    -0.081 Cl
ATOM     38  H10 1RC d   1      13.596  -1.884  49.710  0.00  0.00     0.087 H 
BRANCH  31  39
ATOM     39  O1  1RC d   1      17.821  -0.414  48.643  0.00  0.00    -0.360 OA
ATOM     40  H12 1RC d   1      18.047  -0.180  47.751  0.00  0.00     0.217 HD
ENDBRANCH  31  39
BRANCH  33  41
ATOM     41  O2  1RC d   1      14.031   2.582  48.756  0.00  0.00    -0.359 OA
ATOM     42  H13 1RC d   1      14.176   2.884  47.867  0.00  0.00     0.217 HD
ENDBRANCH  33  41
ENDBRANCH  10  30
TORSDOF 6
