REMARK  6 active torsions:
REMARK  status: ('A' for Active; 'I' for Inactive)
REMARK       I    between atoms: C3_10  and  N_2 
REMARK    1  A    between atoms: N_2  and  C10_21 
REMARK       I    between atoms: N2_8  and  C4_13 
REMARK       I    between atoms: N3_11  and  C3_10 
REMARK    2  A    between atoms: C24_35  and  N3_11 
REMARK    3  A    between atoms: C4_13  and  C6_17 
REMARK       I    between atoms: C18_29  and  N4_14 
REMARK    4  A    between atoms: N5_16  and  C17_28 
REMARK    5  A    between atoms: C7_18  and  C9_20 
REMARK    6  A    between atoms: C17_28  and  C18_29 
ROOT
ATOM      1  N   MBM d   1       3.078   6.013  25.582  0.00  0.00    -0.192 N 
ATOM      2  O   MBM d   1       0.818   6.335  24.042  0.00  0.00    -0.267 OA
ATOM      3  N2  MBM d   1       1.184   7.442  26.040  0.00  0.00    -0.155 N 
ATOM      4  C3  MBM d   1       2.367   6.889  26.366  0.00  0.00     0.682 C 
ATOM      5  N3  MBM d   1       2.951   7.492  27.481  0.00  0.00    -0.213 N 
ATOM      6  C4  MBM d   1       0.417   6.975  25.012  0.00  0.00     0.271 C 
ATOM      7  H2  MBM d   1       2.636   5.615  24.741  0.00  0.00     0.184 HD
ATOM      8  H5  MBM d   1       0.855   8.223  26.570  0.00  0.00     0.187 HD
ATOM      9  H6  MBM d   1       3.880   7.197  27.815  0.00  0.00     0.178 HD
ENDROOT
BRANCH   5  10
ATOM     10  C24 MBM d   1       2.200   8.568  28.172  0.00  0.00     0.103 C 
ATOM     11  C22 MBM d   1       1.245   7.925  29.207  0.00  0.00    -0.037 C 
ATOM     12  C26 MBM d   1       0.110   8.847  29.717  0.00  0.00    -0.061 C 
ATOM     13  H25 MBM d   1       1.844   7.611  30.074  0.00  0.00     0.036 H 
ATOM     14  H26 MBM d   1       0.783   7.042  28.741  0.00  0.00     0.036 H 
ATOM     15  C27 MBM d   1       0.699  10.038  30.498  0.00  0.00    -0.050 C 
ATOM     16  H30 MBM d   1      -0.555   8.272  30.379  0.00  0.00     0.033 H 
ATOM     17  H31 MBM d   1      -0.464   9.225  28.858  0.00  0.00     0.033 H 
ATOM     18  C25 MBM d   1       1.550  10.946  29.564  0.00  0.00    -0.002 C 
ATOM     19  H32 MBM d   1      -0.123  10.631  30.925  0.00  0.00     0.035 H 
ATOM     20  H33 MBM d   1       1.337   9.657  31.309  0.00  0.00     0.035 H 
ATOM     21  N5  MBM d   1       2.960  10.504  29.418  0.00  0.00    -0.342 N 
ATOM     22  H28 MBM d   1       1.084  10.952  28.568  0.00  0.00     0.064 H 
ATOM     23  H29 MBM d   1       1.548  11.966  29.976  0.00  0.00     0.064 H 
ATOM     24  C23 MBM d   1       3.333   9.329  28.798  0.00  0.00     0.243 C 
ATOM     25  O3  MBM d   1       4.511   8.920  28.734  0.00  0.00    -0.271 OA
ATOM     26  H27 MBM d   1       1.628   9.197  27.475  0.00  0.00     0.088 H 
BRANCH  21  27
ATOM     27  C17 MBM d   1       4.008  11.181  30.232  0.00  0.00     0.071 C 
ATOM     28  H17 MBM d   1       4.883  10.525  30.347  0.00  0.00     0.079 H 
ATOM     29  H18 MBM d   1       3.611  11.440  31.225  0.00  0.00     0.079 H 
BRANCH  27  30
ATOM     30  C18 MBM d   1       4.394  12.446  29.473  0.00  0.00     0.237 C 
ATOM     31  O2  MBM d   1       3.992  12.678  28.346  0.00  0.00    -0.272 OA
ATOM     32  N4  MBM d   1       5.405  13.220  29.982  0.00  0.00    -0.351 N 
ATOM     33  C16 MBM d   1       5.844  14.419  29.267  0.00  0.00    -0.002 C 
ATOM     34  C19 MBM d   1       6.193  12.931  31.204  0.00  0.00    -0.002 C 
ATOM     35  C20 MBM d   1       7.086  14.879  30.023  0.00  0.00    -0.049 C 
ATOM     36  H15 MBM d   1       5.064  15.194  29.292  0.00  0.00     0.064 H 
ATOM     37  H16 MBM d   1       6.091  14.180  28.222  0.00  0.00     0.064 H 
ATOM     38  C21 MBM d   1       7.070  14.205  31.369  0.00  0.00    -0.049 C 
ATOM     39  H21 MBM d   1       7.066  15.972  30.149  0.00  0.00     0.035 H 
ATOM     40  H22 MBM d   1       7.992  14.591  29.469  0.00  0.00     0.035 H 
ATOM     41  H23 MBM d   1       8.091  13.929  31.670  0.00  0.00     0.035 H 
ATOM     42  H24 MBM d   1       6.633  14.874  32.125  0.00  0.00     0.035 H 
ATOM     43  H19 MBM d   1       6.818  12.036  31.068  0.00  0.00     0.064 H 
ATOM     44  H20 MBM d   1       5.535  12.790  32.074  0.00  0.00     0.064 H 
ENDBRANCH  27  30
ENDBRANCH  21  27
ENDBRANCH   5  10
BRANCH   1  45
ATOM     45  C10 MBM d   1       4.389   5.651  25.904  0.00  0.00     0.050 A 
ATOM     46  C11 MBM d   1       5.330   5.696  24.832  0.00  0.00    -0.044 A 
ATOM     47  C12 MBM d   1       6.638   5.373  25.175  0.00  0.00     0.002 A 
ATOM     48  H12 MBM d   1       5.045   5.963  23.821  0.00  0.00     0.088 H 
ATOM     49  C8  MBM d   1       7.895   5.209  24.434  0.00  0.00    -0.042 A 
ATOM     50  C15 MBM d   1       6.959   5.069  26.543  0.00  0.00     0.086 A 
ATOM     51  C7  MBM d   1       8.851   4.885  25.375  0.00  0.00     0.050 A 
ATOM     52  H8  MBM d   1       8.043   5.320  23.361  0.00  0.00     0.088 H 
ATOM     53  O1  MBM d   1       8.307   4.778  26.649  0.00  0.00    -0.315 OA
ATOM     54  C14 MBM d   1       6.059   5.065  27.592  0.00  0.00    -0.047 A 
ATOM     55  C13 MBM d   1       4.724   5.375  27.248  0.00  0.00    -0.054 A 
ATOM     56  H14 MBM d   1       6.357   4.839  28.610  0.00  0.00     0.087 H 
ATOM     57  H13 MBM d   1       3.958   5.401  28.015  0.00  0.00     0.087 H 
BRANCH  51  58
ATOM     58  C9  MBM d   1      10.308   4.697  25.264  0.00  0.00    -0.031 C 
ATOM     59  H9  MBM d   1      10.613   4.806  24.213  0.00  0.00     0.036 H 
ATOM     60  H10 MBM d   1      10.576   3.692  25.622  0.00  0.00     0.036 H 
ATOM     61  H11 MBM d   1      10.823   5.453  25.875  0.00  0.00     0.036 H 
ENDBRANCH  51  58
ENDBRANCH   1  45
BRANCH   6  62
ATOM     62  C6  MBM d   1      -0.968   7.474  25.049  0.00  0.00     0.050 A 
ATOM     63  C2  MBM d   1      -1.640   7.441  23.827  0.00  0.00    -0.065 A 
ATOM     64  C1  MBM d   1      -2.922   7.980  23.723  0.00  0.00    -0.065 A 
ATOM     65  H4  MBM d   1      -1.166   6.997  22.959  0.00  0.00     0.085 H 
ATOM     66  C   MBM d   1      -3.489   8.534  24.872  0.00  0.00     0.002 A 
ATOM     67  H3  MBM d   1      -3.460   7.969  22.782  0.00  0.00     0.085 H 
ATOM     68  N1  MBM d   1      -2.870   8.535  26.081  0.00  0.00    -0.272 NA
ATOM     69  H1  MBM d   1      -4.471   8.986  24.796  0.00  0.00     0.114 H 
ATOM     70  C5  MBM d   1      -1.615   8.006  26.160  0.00  0.00     0.017 A 
ATOM     71  H7  MBM d   1      -1.107   8.000  27.117  0.00  0.00     0.116 H 
ENDBRANCH   6  62
TORSDOF 6
