REMARK WARNING: 32 MAX_TORS EXCEEDED!!!
REMARK  38 active torsions:
REMARK  status: ('A' for Active; 'I' for Inactive)
REMARK    1  A    between atoms: C_1  and  CH3_3 
REMARK       I    between atoms: C_1  and  N_4 
REMARK    2  A    between atoms: N_4  and  CA_5 
REMARK    3  A    between atoms: CA_5  and  C1_6 
REMARK    4  A    between atoms: CA_5  and  CB_8 
REMARK       I    between atoms: C1_6  and  N1_11 
REMARK    5  A    between atoms: CB_8  and  OG1_9 
REMARK    6  A    between atoms: CB_8  and  CG2_10 
REMARK    7  A    between atoms: N1_11  and  CA1_12 
REMARK    8  A    between atoms: CA1_12  and  C2_13 
REMARK    9  A    between atoms: CA1_12  and  CB1_15 
REMARK       I    between atoms: C2_13  and  N2_19 
REMARK   10  A    between atoms: CB1_15  and  CG1_16 
REMARK   11  A    between atoms: CB1_15  and  CG21_17 
REMARK   12  A    between atoms: CG1_16  and  CD1_18 
REMARK   13  A    between atoms: N2_19  and  CA2_20 
REMARK   14  A    between atoms: CA2_20  and  C3_21 
REMARK   15  A    between atoms: CA2_20  and  CB2_22 
REMARK   16  A    between atoms: C3_21  and  N3_26 
REMARK   17  A    between atoms: CB2_22  and  CG_23 
REMARK   18  A    between atoms: CG_23  and  CD_24 
REMARK   19  A    between atoms: CD_24  and  CE_25 
REMARK   20  A    between atoms: N3_26  and  CA3_27 
REMARK   21  A    between atoms: CA3_27  and  C4_28 
REMARK   22  A    between atoms: CA3_27  and  CB3_30 
REMARK       I    between atoms: C4_28  and  N4_34 
REMARK   23  A    between atoms: CB3_30  and  CG3_31 
REMARK   24  A    between atoms: CG3_31  and  CD2_32 
REMARK   25  A    between atoms: CD2_32  and  CE1_33 
REMARK   26  A    between atoms: N4_34  and  CA4_35 
REMARK   27  A    between atoms: CA4_35  and  C5_36 
REMARK   28  A    between atoms: CA4_35  and  CB4_38 
REMARK       I    between atoms: C5_36  and  N5_43 
REMARK   29  A    between atoms: CB4_38  and  CG4_39 
REMARK   30  A    between atoms: CG4_39  and  CD3_40 
REMARK       I    between atoms: CD3_40  and  NE2_42 
REMARK   31  A    between atoms: N5_43  and  CA5_44 
REMARK   32  A    between atoms: CA5_44  and  C6_45 
REMARK   33  A    between atoms: CA5_44  and  CB5_47 
REMARK   34  A    between atoms: C6_45  and  O5_46 
REMARK   35  A    between atoms: C6_45  and  N6_54 
REMARK   36  A    between atoms: CB5_47  and  CG5_48 
REMARK   37  A    between atoms: CG5_48  and  CD4_49 
REMARK   38  A    between atoms: CD4_49  and  NE_50 
REMARK       I    between atoms: NE_50  and  CZ_51 
REMARK       I    between atoms: CZ_51  and  NH1_52 
ROOT
ATOM      1  CA3 2NC d   1       5.002  -2.319  15.789  0.00  0.00     0.178 C 
ATOM      2  H   2NC d   1       5.098  -1.946  16.809  0.00  0.00     0.099 H 
ENDROOT
BRANCH   1   3
ATOM      3  N3  2NC d   1       4.985  -1.220  14.828  0.00  0.00    -0.060 N 
ATOM      4  H   2NC d   1       5.128  -1.639  13.909  0.00  0.00     0.278 HD
ATOM      5  H   2NC d   1       4.098  -0.734  14.962  0.00  0.00     0.278 HD
BRANCH   3   6
ATOM      6  C3  2NC d   1       6.027  -0.222  14.989  0.00  0.00     0.101 C 
ATOM      7  H   2NC d   1       5.660   0.586  15.623  0.00  0.00     0.078 H 
ATOM      8  H   2NC d   1       6.901  -0.682  15.451  0.00  0.00     0.078 H 
BRANCH   6   9
ATOM      9  CA2 2NC d   1       6.410   0.336  13.634  0.00  0.00     0.035 C 
ATOM     10  H   2NC d   1       6.688  -0.507  13.001  0.00  0.00     0.075 H 
BRANCH   9  11
ATOM     11  N2  2NC d   1       5.285   1.037  13.044  0.00  0.00    -0.353 N 
ATOM     12  C2  2NC d   1       4.256   0.744  12.278  0.00  0.00     0.241 C 
ATOM     13  O2  2NC d   1       4.672  -0.253  11.673  0.00  0.00    -0.271 OA
ATOM     14  H   2NC d   1       5.294   2.027  13.290  0.00  0.00     0.163 HD
BRANCH  12  15
ATOM     15  CA1 2NC d   1       3.192   1.674  11.686  0.00  0.00     0.092 C 
ATOM     16  H   2NC d   1       2.881   2.389  12.448  0.00  0.00     0.088 H 
BRANCH  15  17
ATOM     17  N1  2NC d   1       3.741   2.450  10.571  0.00  0.00    -0.346 N 
ATOM     18  C1  2NC d   1       3.884   3.766  10.668  0.00  0.00     0.243 C 
ATOM     19  O1  2NC d   1       3.449   4.399  11.629  0.00  0.00    -0.271 OA
ATOM     20  H   2NC d   1       4.016   1.974   9.712  0.00  0.00     0.163 HD
BRANCH  18  21
ATOM     21  CA  2NC d   1       4.599   4.488   9.514  0.00  0.00     0.113 C 
ATOM     22  H   2NC d   1       5.326   5.200   9.905  0.00  0.00     0.091 H 
BRANCH  21  23
ATOM     23  N   2NC d   1       5.389   3.570   8.695  0.00  0.00    -0.346 N 
ATOM     24  C   2NC d   1       6.643   3.789   8.283  0.00  0.00     0.214 C 
ATOM     25  O   2NC d   1       7.377   4.652   8.759  0.00  0.00    -0.274 OA
ATOM     26  H   2NC d   1       4.949   2.693   8.416  0.00  0.00     0.163 HD
BRANCH  24  27
ATOM     27  CH3 2NC d   1       6.989   3.119   6.984  0.00  0.00    -0.003 C 
ATOM     28  H   2NC d   1       7.050   3.869   6.195  0.00  0.00     0.040 H 
ATOM     29  H   2NC d   1       7.950   2.614   7.082  0.00  0.00     0.040 H 
ATOM     30  H   2NC d   1       6.218   2.390   6.736  0.00  0.00     0.040 H 
ENDBRANCH  24  27
ENDBRANCH  21  23
BRANCH  21  31
ATOM     31  CB  2NC d   1       3.515   5.247   8.699  0.00  0.00     0.060 C 
ATOM     32  H   2NC d   1       3.049   5.964   9.374  0.00  0.00     0.086 H 
BRANCH  31  33
ATOM     33  OG1 2NC d   1       2.502   4.344   8.221  0.00  0.00    -0.393 OA
ATOM     34  H   2NC d   1       1.846   4.836   7.722  0.00  0.00     0.210 HD
ENDBRANCH  31  33
BRANCH  31  35
ATOM     35  CG2 2NC d   1       4.123   6.028   7.539  0.00  0.00    -0.050 C 
ATOM     36  H   2NC d   1       4.573   5.332   6.831  0.00  0.00     0.031 H 
ATOM     37  H   2NC d   1       3.342   6.602   7.040  0.00  0.00     0.031 H 
ATOM     38  H   2NC d   1       4.887   6.706   7.920  0.00  0.00     0.031 H 
ENDBRANCH  31  35
ENDBRANCH  21  31
ENDBRANCH  18  21
ENDBRANCH  15  17
BRANCH  15  39
ATOM     39  CB1 2NC d   1       1.943   0.857  11.268  0.00  0.00    -0.030 C 
ATOM     40  H   2NC d   1       2.262   0.105  10.546  0.00  0.00     0.043 H 
BRANCH  39  41
ATOM     41  CG1 2NC d   1       0.907   1.755  10.583  0.00  0.00    -0.063 C 
ATOM     42  H   2NC d   1      -0.022   1.186  10.541  0.00  0.00     0.033 H 
ATOM     43  H   2NC d   1       1.324   2.033   9.615  0.00  0.00     0.033 H 
BRANCH  41  44
ATOM     44  CD1 2NC d   1       0.593   3.052  11.312  0.00  0.00    -0.076 C 
ATOM     45  H   2NC d   1       0.201   2.824  12.303  0.00  0.00     0.027 H 
ATOM     46  H   2NC d   1       1.504   3.643  11.407  0.00  0.00     0.027 H 
ATOM     47  H   2NC d   1      -0.150   3.615  10.746  0.00  0.00     0.027 H 
ENDBRANCH  41  44
ENDBRANCH  39  41
BRANCH  39  48
ATOM     48  CG2 2NC d   1       1.331   0.107  12.473  0.00  0.00    -0.071 C 
ATOM     49  H   2NC d   1       2.071  -0.578  12.887  0.00  0.00     0.028 H 
ATOM     50  H   2NC d   1       1.035   0.828  13.235  0.00  0.00     0.028 H 
ATOM     51  H   2NC d   1       0.457  -0.455  12.144  0.00  0.00     0.028 H 
ENDBRANCH  39  48
ENDBRANCH  15  39
ENDBRANCH  12  15
ENDBRANCH   9  11
BRANCH   9  52
ATOM     52  CB2 2NC d   1       7.615   1.273  13.723  0.00  0.00    -0.045 C 
ATOM     53  H   2NC d   1       8.363   0.804  14.362  0.00  0.00     0.036 H 
ATOM     54  H   2NC d   1       7.274   2.228  14.123  0.00  0.00     0.036 H 
BRANCH  52  55
ATOM     55  CG  2NC d   1       8.252   1.530  12.350  0.00  0.00    -0.064 C 
ATOM     56  H   2NC d   1       9.273   1.874  12.517  0.00  0.00     0.033 H 
ATOM     57  H   2NC d   1       7.634   2.262  11.830  0.00  0.00     0.033 H 
BRANCH  55  58
ATOM     58  CD  2NC d   1       8.321   0.276  11.477  0.00  0.00    -0.068 C 
ATOM     59  H   2NC d   1       7.679   0.420  10.608  0.00  0.00     0.032 H 
ATOM     60  H   2NC d   1       7.994  -0.579  12.069  0.00  0.00     0.032 H 
BRANCH  58  61
ATOM     61  CE  2NC d   1       9.724   0.024  11.002  0.00  0.00    -0.077 C 
ATOM     62  H   2NC d   1      10.066   0.877  10.416  0.00  0.00     0.027 H 
ATOM     63  H   2NC d   1      10.379  -0.113  11.863  0.00  0.00     0.027 H 
ATOM     64  H   2NC d   1       9.741  -0.874  10.384  0.00  0.00     0.027 H 
ENDBRANCH  58  61
ENDBRANCH  55  58
ENDBRANCH  52  55
ENDBRANCH   9  52
ENDBRANCH   6   9
ENDBRANCH   3   6
ENDBRANCH   1   3
BRANCH   1  65
ATOM     65  C4  2NC d   1       6.170  -3.223  15.486  0.00  0.00     0.249 C 
ATOM     66  O3  2NC d   1       6.610  -3.309  14.357  0.00  0.00    -0.271 OA
ATOM     67  N4  2NC d   1       6.442  -3.836  16.621  0.00  0.00    -0.346 N 
ATOM     68  H   2NC d   1       6.019  -3.640  17.528  0.00  0.00     0.163 HD
BRANCH  67  69
ATOM     69  CA4 2NC d   1       7.460  -4.848  16.344  0.00  0.00     0.090 C 
ATOM     70  H   2NC d   1       7.213  -5.327  15.397  0.00  0.00     0.087 H 
BRANCH  69  71
ATOM     71  C5  2NC d   1       7.471  -5.904  17.444  0.00  0.00     0.240 C 
ATOM     72  O4  2NC d   1       7.599  -5.598  18.626  0.00  0.00    -0.271 OA
ATOM     73  N5  2NC d   1       7.331  -7.163  17.049  0.00  0.00    -0.350 N 
ATOM     74  H   2NC d   1       7.230  -7.366  16.055  0.00  0.00     0.163 HD
BRANCH  73  75
ATOM     75  CA5 2NC d   1       7.319  -8.253  17.998  0.00  0.00     0.061 C 
ATOM     76  H   2NC d   1       7.266  -7.862  19.014  0.00  0.00     0.079 H 
BRANCH  75  77
ATOM     77  C6  2NC d   1       8.596  -9.050  17.764  0.00  0.00     0.207 C 
ATOM     78  H   2NC d   1       8.296  -9.783  18.513  0.00  0.00     0.131 H 
BRANCH  77  79
ATOM     79  O5  2NC d   1       8.853  -9.516  16.640  0.00  0.00    -0.368 OA
ATOM     80  H   2NC d   1       8.097 -10.015  16.321  0.00  0.00     0.212 HD
ENDBRANCH  77  79
BRANCH  77  81
ATOM     81  N6  2NC d   1       9.767  -8.442  17.939  0.00  0.00    -0.051 N 
ATOM     82  H   2NC d   1      10.522  -9.100  17.746  0.00  0.00     0.277 HD
ATOM     83  H   2NC d   1       9.835  -7.648  17.302  0.00  0.00     0.277 HD
ATOM     84  H   2NC d   1       9.838  -8.114  18.902  0.00  0.00     0.277 HD
ENDBRANCH  77  81
ENDBRANCH  75  77
BRANCH  75  85
ATOM     85  CB5 2NC d   1       6.096  -9.158  17.807  0.00  0.00    -0.041 C 
ATOM     86  H   2NC d   1       5.914  -9.617  18.779  0.00  0.00     0.036 H 
ATOM     87  H   2NC d   1       6.347  -9.822  16.980  0.00  0.00     0.036 H 
BRANCH  85  88
ATOM     88  CG5 2NC d   1       4.775  -8.483  17.412  0.00  0.00    -0.048 C 
ATOM     89  H   2NC d   1       4.953  -7.414  17.296  0.00  0.00     0.035 H 
ATOM     90  H   2NC d   1       4.038  -8.679  18.191  0.00  0.00     0.035 H 
BRANCH  88  91
ATOM     91  CD4 2NC d   1       4.236  -9.043  16.070  0.00  0.00     0.009 C 
ATOM     92  H   2NC d   1       5.086  -9.534  15.596  0.00  0.00     0.064 H 
ATOM     93  H   2NC d   1       3.792  -8.191  15.555  0.00  0.00     0.064 H 
BRANCH  91  94
ATOM     94  NE  2NC d   1       3.176 -10.062  16.131  0.00  0.00    -0.227 N 
ATOM     95  CZ  2NC d   1       3.266 -11.292  16.651  0.00  0.00     0.665 C 
ATOM     96  NH1 2NC d   1       4.362 -11.729  17.254  0.00  0.00    -0.235 N 
ATOM     97  NH2 2NC d   1       2.215 -12.102  16.592  0.00  0.00    -0.235 N 
ATOM     98  H   2NC d   1       5.177 -11.121  17.335  0.00  0.00     0.174 HD
ATOM     99  H   2NC d   1       4.391 -12.674  17.638  0.00  0.00     0.174 HD
ATOM    100  H   2NC d   1       1.350 -11.785  16.154  0.00  0.00     0.174 HD
ATOM    101  H   2NC d   1       2.272 -13.041  16.985  0.00  0.00     0.174 HD
ATOM    102  H   2NC d   1       2.273  -9.802  15.733  0.00  0.00     0.177 HD
ENDBRANCH  91  94
ENDBRANCH  88  91
ENDBRANCH  85  88
ENDBRANCH  75  85
ENDBRANCH  73  75
ENDBRANCH  69  71
BRANCH  69 103
ATOM    103  CB4 2NC d   1       8.842  -4.210  16.213  0.00  0.00    -0.030 C 
ATOM    104  H   2NC d   1       9.038  -3.678  17.144  0.00  0.00     0.037 H 
ATOM    105  H   2NC d   1       8.818  -3.575  15.327  0.00  0.00     0.037 H 
BRANCH 103 106
ATOM    106  CG4 2NC d   1       9.980  -5.205  16.019  0.00  0.00     0.011 C 
ATOM    107  H   2NC d   1      10.812  -4.667  15.565  0.00  0.00     0.047 H 
ATOM    108  H   2NC d   1       9.601  -6.020  15.403  0.00  0.00     0.047 H 
BRANCH 106 109
ATOM    109  CD3 2NC d   1      10.485  -5.812  17.320  0.00  0.00     0.215 C 
ATOM    110  OE1 2NC d   1      10.585  -5.120  18.324  0.00  0.00    -0.274 OA
ATOM    111  NE2 2NC d   1      10.810  -7.106  17.305  0.00  0.00    -0.370 N 
ATOM    112  H   2NC d   1      11.157  -7.554  18.153  0.00  0.00     0.159 HD
ATOM    113  H   2NC d   1      10.711  -7.647  16.446  0.00  0.00     0.159 HD
ENDBRANCH 106 109
ENDBRANCH 103 106
ENDBRANCH  69 103
ENDBRANCH  67  69
ENDBRANCH   1  65
BRANCH   1 114
ATOM    114  CB3 2NC d   1       3.697  -3.094  15.621  0.00  0.00    -0.030 C 
ATOM    115  H   2NC d   1       3.656  -3.381  14.570  0.00  0.00     0.036 H 
ATOM    116  H   2NC d   1       2.911  -2.433  15.987  0.00  0.00     0.036 H 
BRANCH 114 117
ATOM    117  CG3 2NC d   1       3.549  -4.399  16.416  0.00  0.00    -0.063 C 
ATOM    118  H   2NC d   1       2.708  -4.296  17.102  0.00  0.00     0.033 H 
ATOM    119  H   2NC d   1       4.477  -4.585  16.957  0.00  0.00     0.033 H 
BRANCH 117 120
ATOM    120  CD2 2NC d   1       3.278  -5.589  15.483  0.00  0.00    -0.068 C 
ATOM    121  H   2NC d   1       3.423  -6.507  16.052  0.00  0.00     0.032 H 
ATOM    122  H   2NC d   1       3.961  -5.519  14.636  0.00  0.00     0.032 H 
BRANCH 120 123
ATOM    123  CE1 2NC d   1       1.862  -5.583  14.949  0.00  0.00    -0.077 C 
ATOM    124  H   2NC d   1       1.161  -5.637  15.782  0.00  0.00     0.027 H 
ATOM    125  H   2NC d   1       1.691  -4.665  14.387  0.00  0.00     0.027 H 
ATOM    126  H   2NC d   1       1.718  -6.443  14.295  0.00  0.00     0.027 H 
ENDBRANCH 120 123
ENDBRANCH 117 120
ENDBRANCH 114 117
ENDBRANCH   1 114
TORSDOF 38
