REMARK  2 active torsions:
REMARK  status: ('A' for Active; 'I' for Inactive)
REMARK    1  A    between atoms: C1_1  and  C5_5 
REMARK    2  A    between atoms: C11_11  and  C13_13 
ROOT
ATOM      1  C1  4BL d   1      33.235  25.773  24.738  0.00  0.00     0.111 A 
ATOM      2  N2  4BL d   1      33.720  25.637  26.004  0.00  0.00    -0.350 N 
ATOM      3  C3  4BL d   1      34.223  25.525  23.780  0.00  0.00    -0.038 A 
ATOM      4  C4  4BL d   1      35.022  25.300  25.999  0.00  0.00     0.043 A 
ATOM      5  C6  4BL d   1      35.363  25.222  24.577  0.00  0.00    -0.007 A 
ATOM      6  C7  4BL d   1      35.990  25.041  26.958  0.00  0.00    -0.051 A 
ATOM      7  C9  4BL d   1      36.655  24.890  24.195  0.00  0.00    -0.070 A 
ATOM      8  C11 4BL d   1      37.277  24.710  26.542  0.00  0.00    -0.060 A 
ATOM      9  C12 4BL d   1      37.601  24.637  25.186  0.00  0.00    -0.076 A 
ATOM     10  H1  4BL d   1      33.160  25.775  26.857  0.00  0.00     0.166 HD
ATOM     11  H2  4BL d   1      34.141  25.556  22.695  0.00  0.00     0.088 H 
ATOM     12  H3  4BL d   1      35.749  25.095  28.013  0.00  0.00     0.087 H 
ATOM     13  H4  4BL d   1      36.923  24.829  23.146  0.00  0.00     0.084 H 
ATOM     14  H5  4BL d   1      38.613  24.377  24.897  0.00  0.00     0.084 H 
ENDROOT
BRANCH   8  15
ATOM     15  C13 4BL d   1      38.339  24.427  27.572  0.00  0.00    -0.051 C 
ATOM     16  H6  4BL d   1      37.909  24.530  28.579  0.00  0.00     0.033 H 
ATOM     17  H7  4BL d   1      39.166  25.142  27.451  0.00  0.00     0.033 H 
ATOM     18  H8  4BL d   1      38.717  23.403  27.438  0.00  0.00     0.033 H 
ENDBRANCH   8  15
BRANCH   1  19
ATOM     19  C5  4BL d   1      31.828  26.141  24.415  0.00  0.00     0.226 C 
ATOM     20  O8  4BL d   1      31.024  26.342  25.350  0.00  0.00    -0.643 OA
ATOM     21  O10 4BL d   1      31.487  26.238  23.216  0.00  0.00    -0.643 OA
ENDBRANCH   1  19
TORSDOF 2
