REMARK  3 active torsions:
REMARK  status: ('A' for Active; 'I' for Inactive)
REMARK    1  A    between atoms: C9_9  and  C10_10 
REMARK    2  A    between atoms: C10_10  and  C11_11 
REMARK    3  A    between atoms: C11_11  and  C12_12 
ROOT
ATOM      1  C1  4BX d   1      43.909   5.971  -3.408  0.00  0.00    -0.081 A 
ATOM      2  C2  4BX d   1      44.780   6.186  -2.345  0.00  0.00    -0.081 A 
ATOM      3  C3  4BX d   1      44.983   5.188  -1.399  0.00  0.00    -0.053 A 
ATOM      4  C4  4BX d   1      43.241   4.758  -3.525  0.00  0.00    -0.055 A 
ATOM      5  N5  4BX d   1      42.954   2.535  -2.440  0.00  0.00    -0.343 N 
ATOM      6  C6  4BX d   1      43.446   3.762  -2.578  0.00  0.00     0.062 A 
ATOM      7  C7  4BX d   1      44.314   3.976  -1.519  0.00  0.00     0.085 A 
ATOM      8  N8  4BX d   1      44.314   2.871  -0.782  0.00  0.00    -0.233 NA
ATOM      9  C9  4BX d   1      43.484   1.992  -1.344  0.00  0.00     0.105 A 
ATOM     10  H1  4BX d   1      43.751   6.750  -4.145  0.00  0.00     0.083 H 
ATOM     11  H2  4BX d   1      45.301   7.132  -2.254  0.00  0.00     0.083 H 
ATOM     12  H3  4BX d   1      45.661   5.355  -0.570  0.00  0.00     0.087 H 
ATOM     13  H4  4BX d   1      42.562   4.589  -4.353  0.00  0.00     0.087 H 
ATOM     14  H5  4BX d   1      42.279   2.081  -3.072  0.00  0.00     0.167 HD
ENDROOT
BRANCH   9  15
ATOM     15  C10 4BX d   1      43.188   0.586  -0.817  0.00  0.00    -0.001 C 
ATOM     16  H6  4BX d   1      42.103   0.475  -0.677  0.00  0.00     0.045 H 
ATOM     17  H7  4BX d   1      43.698   0.449   0.148  0.00  0.00     0.045 H 
BRANCH  15  18
ATOM     18  C11 4BX d   1      43.677  -0.481  -1.798  0.00  0.00     0.022 C 
ATOM     19  H8  4BX d   1      44.761  -0.618  -1.669  0.00  0.00     0.049 H 
ATOM     20  H9  4BX d   1      43.469  -0.147  -2.825  0.00  0.00     0.049 H 
BRANCH  18  21
ATOM     21  C12 4BX d   1      42.971  -1.816  -1.553  0.00  0.00     0.172 C 
ATOM     22  O13 4BX d   1      42.306  -2.342  -2.443  0.00  0.00    -0.648 OA
ATOM     23  O14 4BX d   1      43.062  -2.377  -0.462  0.00  0.00    -0.648 OA
ENDBRANCH  18  21
ENDBRANCH  15  18
ENDBRANCH   9  15
TORSDOF 3
