REMARK  7 active torsions:
REMARK  status: ('A' for Active; 'I' for Inactive)
REMARK    1  A    between atoms: C8_8  and  C10_10 
REMARK    2  A    between atoms: C10_10  and  C11_11 
REMARK    3  A    between atoms: C11_11  and  N12_12 
REMARK    4  A    between atoms: C11_11  and  C23_23 
REMARK       I    between atoms: N12_12  and  C13_13 
REMARK    5  A    between atoms: C13_13  and  C15_15 
REMARK    6  A    between atoms: C15_15  and  C16_16 
REMARK    7  A    between atoms: C16_16  and  C17_17 
ROOT
ATOM      1  C11 4C0 d   1      25.853 -18.021  -2.313  0.00  0.00     0.102 C 
ATOM      2  H8  4C0 d   1      25.741 -17.092  -1.735  0.00  0.00     0.090 H 
ENDROOT
BRANCH   1   3
ATOM      3  C10 4C0 d   1      27.008 -18.826  -1.731  0.00  0.00     0.018 C 
ATOM      4  H6  4C0 d   1      26.699 -19.272  -0.774  0.00  0.00     0.048 H 
ATOM      5  H7  4C0 d   1      27.289 -19.624  -2.434  0.00  0.00     0.048 H 
BRANCH   3   6
ATOM      6  C8  4C0 d   1      28.191 -17.916  -1.503  0.00  0.00     0.107 A 
ATOM      7  N7  4C0 d   1      29.185 -17.677  -2.388  0.00  0.00    -0.342 N 
ATOM      8  C6  4C0 d   1      30.055 -16.815  -1.823  0.00  0.00     0.062 A 
ATOM      9  H5  4C0 d   1      29.264 -18.083  -3.331  0.00  0.00     0.167 HD
ATOM     10  C3  4C0 d   1      31.236 -16.240  -2.279  0.00  0.00    -0.055 A 
ATOM     11  C5  4C0 d   1      29.581 -16.517  -0.554  0.00  0.00     0.085 A 
ATOM     12  C2  4C0 d   1      31.941 -15.366  -1.460  0.00  0.00    -0.081 A 
ATOM     13  H3  4C0 d   1      31.606 -16.473  -3.271  0.00  0.00     0.087 H 
ATOM     14  C1  4C0 d   1      31.466 -15.067  -0.188  0.00  0.00    -0.081 A 
ATOM     15  H2  4C0 d   1      32.862 -14.917  -1.813  0.00  0.00     0.083 H 
ATOM     16  C4  4C0 d   1      30.285 -15.643   0.266  0.00  0.00    -0.053 A 
ATOM     17  H1  4C0 d   1      32.017 -14.385   0.450  0.00  0.00     0.083 H 
ATOM     18  H4  4C0 d   1      29.914 -15.411   1.258  0.00  0.00     0.087 H 
ATOM     19  N9  4C0 d   1      28.434 -17.206  -0.379  0.00  0.00    -0.233 NA
ENDBRANCH   3   6
ENDBRANCH   1   3
BRANCH   1  20
ATOM     20  N12 4C0 d   1      26.137 -17.671  -3.692  0.00  0.00    -0.346 N 
ATOM     21  C13 4C0 d   1      26.437 -16.425  -4.045  0.00  0.00     0.218 C 
ATOM     22  O14 4C0 d   1      26.470 -15.499  -3.251  0.00  0.00    -0.274 OA
ATOM     23  H9  4C0 d   1      26.106 -18.383  -4.393  0.00  0.00     0.163 HD
BRANCH  21  24
ATOM     24  C15 4C0 d   1      26.742 -16.193  -5.505  0.00  0.00     0.013 C 
ATOM     25  H10 4C0 d   1      25.932 -15.604  -5.960  0.00  0.00     0.047 H 
ATOM     26  H11 4C0 d   1      26.826 -17.161  -6.021  0.00  0.00     0.047 H 
BRANCH  24  27
ATOM     27  C16 4C0 d   1      28.057 -15.433  -5.635  0.00  0.00    -0.033 C 
ATOM     28  H12 4C0 d   1      28.785 -15.834  -4.914  0.00  0.00     0.040 H 
ATOM     29  H13 4C0 d   1      27.886 -14.366  -5.429  0.00  0.00     0.040 H 
BRANCH  27  30
ATOM     30  C17 4C0 d   1      28.596 -15.595  -7.037  0.00  0.00    -0.058 A 
ATOM     31  C18 4C0 d   1      28.201 -16.679  -7.813  0.00  0.00    -0.077 A 
ATOM     32  C19 4C0 d   1      28.697 -16.828  -9.103  0.00  0.00    -0.082 A 
ATOM     33  H14 4C0 d   1      27.506 -17.408  -7.412  0.00  0.00     0.084 H 
ATOM     34  C20 4C0 d   1      29.588 -15.893  -9.617  0.00  0.00    -0.083 A 
ATOM     35  H15 4C0 d   1      28.389 -17.673  -9.708  0.00  0.00     0.083 H 
ATOM     36  C21 4C0 d   1      29.983 -14.809  -8.841  0.00  0.00    -0.082 A 
ATOM     37  H16 4C0 d   1      29.975 -16.009 -10.623  0.00  0.00     0.083 H 
ATOM     38  C22 4C0 d   1      29.487 -14.660  -7.551  0.00  0.00    -0.077 A 
ATOM     39  H17 4C0 d   1      30.678 -14.080  -9.242  0.00  0.00     0.083 H 
ATOM     40  H18 4C0 d   1      29.795 -13.815  -6.946  0.00  0.00     0.084 H 
ENDBRANCH  27  30
ENDBRANCH  24  27
ENDBRANCH  21  24
ENDBRANCH   1  20
BRANCH   1  41
ATOM     41  C23 4C0 d   1      24.583 -18.811  -2.194  0.00  0.00     0.197 C 
ATOM     42  O24 4C0 d   1      24.112 -19.341  -3.223  0.00  0.00    -0.646 OA
ATOM     43  O25 4C0 d   1      24.044 -18.908  -1.071  0.00  0.00    -0.646 OA
ENDBRANCH   1  41
TORSDOF 7
