REMARK  5 active torsions:
REMARK  status: ('A' for Active; 'I' for Inactive)
REMARK    1  A    between atoms: C9_9  and  C10_10 
REMARK    2  A    between atoms: C10_10  and  C11_11 
REMARK    3  A    between atoms: C11_11  and  C12_12 
REMARK    4  A    between atoms: C11_11  and  N13_13 
REMARK       I    between atoms: N13_13  and  C16_16 
REMARK    5  A    between atoms: C16_16  and  C17_17 
ROOT
ATOM      1  C11 4D9 d   1      39.459 -14.065  10.447  0.00  0.00     0.103 C 
ATOM      2  H8  4D9 d   1      39.889 -13.824  11.430  0.00  0.00     0.090 H 
ENDROOT
BRANCH   1   3
ATOM      3  C10 4D9 d   1      38.223 -14.944  10.732  0.00  0.00     0.018 C 
ATOM      4  H6  4D9 d   1      37.573 -14.403  11.435  0.00  0.00     0.048 H 
ATOM      5  H7  4D9 d   1      37.688 -15.101   9.784  0.00  0.00     0.048 H 
BRANCH   3   6
ATOM      6  C9  4D9 d   1      38.537 -16.302  11.327  0.00  0.00     0.107 A 
ATOM      7  N5  4D9 d   1      38.848 -16.537  12.612  0.00  0.00    -0.342 N 
ATOM      8  C6  4D9 d   1      39.075 -17.842  12.762  0.00  0.00     0.062 A 
ATOM      9  H5  4D9 d   1      38.902 -15.828  13.357  0.00  0.00     0.167 HD
ATOM     10  C1  4D9 d   1      39.425 -18.644  13.843  0.00  0.00    -0.055 A 
ATOM     11  C7  4D9 d   1      38.881 -18.458  11.431  0.00  0.00     0.085 A 
ATOM     12  C2  4D9 d   1      39.592 -20.011  13.663  0.00  0.00    -0.081 A 
ATOM     13  H1  4D9 d   1      39.567 -18.203  14.823  0.00  0.00     0.087 H 
ATOM     14  C3  4D9 d   1      39.395 -20.572  12.398  0.00  0.00    -0.081 A 
ATOM     15  H2  4D9 d   1      39.874 -20.640  14.500  0.00  0.00     0.083 H 
ATOM     16  C4  4D9 d   1      39.044 -19.819  11.272  0.00  0.00    -0.053 A 
ATOM     17  H3  4D9 d   1      39.520 -21.643  12.284  0.00  0.00     0.083 H 
ATOM     18  H4  4D9 d   1      38.905 -20.290  10.306  0.00  0.00     0.087 H 
ATOM     19  N8  4D9 d   1      38.554 -17.461  10.615  0.00  0.00    -0.233 NA
ENDBRANCH   3   6
ENDBRANCH   1   3
BRANCH   1  20
ATOM     20  C12 4D9 d   1      38.988 -12.768   9.820  0.00  0.00     0.197 C 
ATOM     21  O14 4D9 d   1      38.725 -12.723   8.582  0.00  0.00    -0.646 OA
ATOM     22  O15 4D9 d   1      38.870 -11.770  10.582  0.00  0.00    -0.646 OA
ENDBRANCH   1  20
BRANCH   1  23
ATOM     23  N13 4D9 d   1      40.563 -14.625   9.661  0.00  0.00    -0.342 N 
ATOM     24  C16 4D9 d   1      40.811 -15.895   9.280  0.00  0.00     0.259 C 
ATOM     25  O18 4D9 d   1      41.242 -16.745  10.049  0.00  0.00    -0.267 OA
ATOM     26  H9  4D9 d   1      41.242 -13.957   9.358  0.00  0.00     0.163 HD
BRANCH  24  27
ATOM     27  C17 4D9 d   1      40.564 -16.258   7.846  0.00  0.00     0.074 A 
ATOM     28  C19 4D9 d   1      40.061 -15.457   6.799  0.00  0.00    -0.050 A 
ATOM     29  C22 4D9 d   1      39.991 -16.232   5.581  0.00  0.00    -0.018 A 
ATOM     30  H10 4D9 d   1      39.769 -14.412   6.894  0.00  0.00     0.087 H 
ATOM     31  C21 4D9 d   1      40.451 -17.643   5.751  0.00  0.00     0.016 A 
ATOM     32  C23 4D9 d   1      39.544 -15.799   4.326  0.00  0.00    -0.072 A 
ATOM     33  S20 4D9 d   1      40.932 -17.919   7.354  0.00  0.00    -0.084 SA
ATOM     34  C26 4D9 d   1      40.455 -18.541   4.678  0.00  0.00    -0.066 A 
ATOM     35  C25 4D9 d   1      39.987 -18.055   3.445  0.00  0.00    -0.082 A 
ATOM     36  H14 4D9 d   1      40.802 -19.562   4.792  0.00  0.00     0.085 H 
ATOM     37  C24 4D9 d   1      39.544 -16.720   3.273  0.00  0.00    -0.082 A 
ATOM     38  H13 4D9 d   1      39.964 -18.726   2.594  0.00  0.00     0.083 H 
ATOM     39  H12 4D9 d   1      39.195 -16.403   2.297  0.00  0.00     0.083 H 
ATOM     40  H11 4D9 d   1      39.208 -14.780   4.175  0.00  0.00     0.084 H 
ENDBRANCH  24  27
ENDBRANCH   1  23
TORSDOF 5
