REMARK  6 active torsions:
REMARK  status: ('A' for Active; 'I' for Inactive)
REMARK    1  A    between atoms: C9_9  and  C10_10 
REMARK    2  A    between atoms: C10_10  and  C11_11 
REMARK    3  A    between atoms: C11_11  and  C12_12 
REMARK    4  A    between atoms: C11_11  and  N15_15 
REMARK       I    between atoms: N15_15  and  C16_16 
REMARK    5  A    between atoms: C16_16  and  C17_17 
REMARK    6  A    between atoms: C19_19  and  C23_23 
ROOT
ATOM      1  C11 4D7 d   1     -36.979  27.519  24.088  0.00  0.00     0.103 C 
ATOM      2  H8  4D7 d   1     -36.272  28.157  24.638  0.00  0.00     0.090 H 
ENDROOT
BRANCH   1   3
ATOM      3  C10 4D7 d   1     -37.080  26.157  24.778  0.00  0.00     0.018 C 
ATOM      4  H6  4D7 d   1     -37.646  26.269  25.714  0.00  0.00     0.048 H 
ATOM      5  H7  4D7 d   1     -37.606  25.455  24.114  0.00  0.00     0.048 H 
BRANCH   3   6
ATOM      6  C9  4D7 d   1     -35.691  25.599  25.097  0.00  0.00     0.107 A 
ATOM      7  N5  4D7 d   1     -35.051  25.734  26.259  0.00  0.00    -0.233 NA
ATOM      8  C6  4D7 d   1     -33.876  25.121  26.163  0.00  0.00     0.085 A 
ATOM      9  C4  4D7 d   1     -32.826  24.952  27.057  0.00  0.00    -0.053 A 
ATOM     10  C7  4D7 d   1     -33.796  24.589  24.886  0.00  0.00     0.062 A 
ATOM     11  C1  4D7 d   1     -31.694  24.247  26.667  0.00  0.00    -0.081 A 
ATOM     12  H4  4D7 d   1     -32.890  25.369  28.056  0.00  0.00     0.087 H 
ATOM     13  C2  4D7 d   1     -31.613  23.712  25.386  0.00  0.00    -0.081 A 
ATOM     14  H1  4D7 d   1     -30.873  24.114  27.362  0.00  0.00     0.083 H 
ATOM     15  C3  4D7 d   1     -32.665  23.883  24.493  0.00  0.00    -0.055 A 
ATOM     16  H2  4D7 d   1     -30.730  23.162  25.084  0.00  0.00     0.083 H 
ATOM     17  H3  4D7 d   1     -32.603  23.467  23.494  0.00  0.00     0.087 H 
ATOM     18  N8  4D7 d   1     -34.926  24.901  24.259  0.00  0.00    -0.342 N 
ATOM     19  H5  4D7 d   1     -35.169  24.647  23.291  0.00  0.00     0.167 HD
ENDBRANCH   3   6
ENDBRANCH   1   3
BRANCH   1  20
ATOM     20  C12 4D7 d   1     -38.356  28.185  24.069  0.00  0.00     0.197 C 
ATOM     21  O13 4D7 d   1     -38.762  28.803  25.051  0.00  0.00    -0.646 OA
ATOM     22  O14 4D7 d   1     -39.070  28.109  23.070  0.00  0.00    -0.646 OA
ENDBRANCH   1  20
BRANCH   1  23
ATOM     23  N15 4D7 d   1     -36.502  27.336  22.710  0.00  0.00    -0.342 N 
ATOM     24  C16 4D7 d   1     -35.257  27.633  22.349  0.00  0.00     0.254 C 
ATOM     25  O18 4D7 d   1     -34.406  28.078  23.118  0.00  0.00    -0.268 OA
ATOM     26  H9  4D7 d   1     -37.133  26.977  22.023  0.00  0.00     0.163 HD
BRANCH  24  27
ATOM     27  C17 4D7 d   1     -34.933  27.381  20.875  0.00  0.00     0.063 A 
ATOM     28  C19 4D7 d   1     -35.256  28.218  19.825  0.00  0.00     0.064 A 
ATOM     29  O20 4D7 d   1     -34.799  27.645  18.681  0.00  0.00    -0.326 OA
ATOM     30  C21 4D7 d   1     -34.201  26.461  19.065  0.00  0.00     0.020 A 
ATOM     31  C22 4D7 d   1     -34.292  26.320  20.393  0.00  0.00    -0.044 A 
ATOM     32  H10 4D7 d   1     -33.727  25.750  18.390  0.00  0.00     0.123 H 
ATOM     33  H11 4D7 d   1     -33.909  25.484  20.976  0.00  0.00     0.088 H 
BRANCH  28  34
ATOM     34  C23 4D7 d   1     -35.998  29.552  19.932  0.00  0.00    -0.030 C 
ATOM     35  H12 4D7 d   1     -36.110  29.991  18.930  0.00  0.00     0.036 H 
ATOM     36  H13 4D7 d   1     -35.425  30.240  20.572  0.00  0.00     0.036 H 
ATOM     37  H14 4D7 d   1     -36.992  29.384  20.372  0.00  0.00     0.036 H 
ENDBRANCH  28  34
ENDBRANCH  24  27
ENDBRANCH   1  23
TORSDOF 6
