REMARK  7 active torsions:
REMARK  status: ('A' for Active; 'I' for Inactive)
REMARK    1  A    between atoms: C9_9  and  C10_10 
REMARK    2  A    between atoms: C10_10  and  C11_11 
REMARK    3  A    between atoms: C11_11  and  C12_12 
REMARK    4  A    between atoms: C11_11  and  N15_15 
REMARK       I    between atoms: N15_15  and  C16_16 
REMARK    5  A    between atoms: C16_16  and  C17_17 
REMARK    6  A    between atoms: N19_19  and  C23_23 
REMARK    7  A    between atoms: C21_21  and  C24_24 
ROOT
ATOM      1  N15 4DH d   1      36.782 -26.726 -18.949  0.00  0.00    -0.341 N 
ATOM      2  C16 4DH d   1      35.520 -27.102 -19.133  0.00  0.00     0.270 C 
ATOM      3  O18 4DH d   1      34.890 -27.808 -18.348  0.00  0.00    -0.266 OA
ATOM      4  H9  4DH d   1      37.222 -26.149 -19.637  0.00  0.00     0.163 HD
ENDROOT
BRANCH   1   5
ATOM      5  C11 4DH d   1      37.550 -27.133 -17.764  0.00  0.00     0.103 C 
ATOM      6  H8  4DH d   1      37.066 -28.002 -17.295  0.00  0.00     0.090 H 
BRANCH   5   7
ATOM      7  C10 4DH d   1      37.598 -25.976 -16.764  0.00  0.00     0.018 C 
ATOM      8  H6  4DH d   1      38.178 -26.286 -15.883  0.00  0.00     0.048 H 
ATOM      9  H7  4DH d   1      38.085 -25.111 -17.238  0.00  0.00     0.048 H 
BRANCH   7  10
ATOM     10  C9  4DH d   1      36.190 -25.576 -16.320  0.00  0.00     0.107 A 
ATOM     11  N5  4DH d   1      35.353 -24.797 -17.006  0.00  0.00    -0.233 NA
ATOM     12  C6  4DH d   1      34.229 -24.674 -16.309  0.00  0.00     0.085 A 
ATOM     13  C4  4DH d   1      33.043 -23.989 -16.546  0.00  0.00    -0.053 A 
ATOM     14  C7  4DH d   1      34.387 -25.411 -15.146  0.00  0.00     0.062 A 
ATOM     15  C1  4DH d   1      32.015 -24.045 -15.613  0.00  0.00    -0.081 A 
ATOM     16  H4  4DH d   1      32.920 -23.413 -17.456  0.00  0.00     0.087 H 
ATOM     17  C2  4DH d   1      32.173 -24.784 -14.446  0.00  0.00    -0.081 A 
ATOM     18  H1  4DH d   1      31.089 -23.512 -15.795  0.00  0.00     0.083 H 
ATOM     19  C3  4DH d   1      33.360 -25.468 -14.211  0.00  0.00    -0.055 A 
ATOM     20  H2  4DH d   1      31.370 -24.827 -13.719  0.00  0.00     0.083 H 
ATOM     21  H3  4DH d   1      33.484 -26.044 -13.301  0.00  0.00     0.087 H 
ATOM     22  N8  4DH d   1      35.600 -25.951 -15.185  0.00  0.00    -0.342 N 
ATOM     23  H5  4DH d   1      36.014 -26.556 -14.462  0.00  0.00     0.167 HD
ENDBRANCH   7  10
ENDBRANCH   5   7
BRANCH   5  24
ATOM     24  C12 4DH d   1      38.974 -27.507 -18.181  0.00  0.00     0.197 C 
ATOM     25  O13 4DH d   1      39.333 -27.384 -19.351  0.00  0.00    -0.646 OA
ATOM     26  O14 4DH d   1      39.775 -27.934 -17.350  0.00  0.00    -0.646 OA
ENDBRANCH   5  24
ENDBRANCH   1   5
BRANCH   2  27
ATOM     27  C17 4DH d   1      34.874 -26.587 -20.421  0.00  0.00     0.122 A 
ATOM     28  N19 4DH d   1      33.576 -26.422 -20.624  0.00  0.00    -0.268 N 
ATOM     29  N20 4DH d   1      33.379 -25.994 -21.761  0.00  0.00    -0.172 NA
ATOM     30  C21 4DH d   1      34.561 -25.855 -22.371  0.00  0.00     0.089 A 
ATOM     31  C22 4DH d   1      35.517 -26.231 -21.522  0.00  0.00    -0.020 A 
ATOM     32  H10 4DH d   1      36.592 -26.243 -21.696  0.00  0.00     0.091 H 
BRANCH  28  33
ATOM     33  C23 4DH d   1      32.518 -26.710 -19.629  0.00  0.00     0.003 C 
ATOM     34  H11 4DH d   1      31.534 -26.483 -20.064  0.00  0.00     0.059 H 
ATOM     35  H12 4DH d   1      32.676 -26.089 -18.735  0.00  0.00     0.059 H 
ATOM     36  H13 4DH d   1      32.558 -27.773 -19.348  0.00  0.00     0.059 H 
ENDBRANCH  28  33
BRANCH  30  37
ATOM     37  C24 4DH d   1      34.759 -25.396 -23.668  0.00  0.00    -0.006 A 
ATOM     38  C25 4DH d   1      35.915 -25.740 -24.358  0.00  0.00    -0.071 A 
ATOM     39  C26 4DH d   1      36.112 -25.282 -25.656  0.00  0.00    -0.082 A 
ATOM     40  H14 4DH d   1      36.663 -26.365 -23.884  0.00  0.00     0.084 H 
ATOM     41  C27 4DH d   1      35.153 -24.478 -26.262  0.00  0.00    -0.083 A 
ATOM     42  H15 4DH d   1      37.013 -25.552 -26.195  0.00  0.00     0.083 H 
ATOM     43  C28 4DH d   1      33.997 -24.134 -25.572  0.00  0.00    -0.082 A 
ATOM     44  H16 4DH d   1      35.307 -24.119 -27.273  0.00  0.00     0.083 H 
ATOM     45  C29 4DH d   1      33.800 -24.593 -24.274  0.00  0.00    -0.071 A 
ATOM     46  H17 4DH d   1      33.249 -23.508 -26.045  0.00  0.00     0.083 H 
ATOM     47  H18 4DH d   1      32.899 -24.325 -23.735  0.00  0.00     0.084 H 
ENDBRANCH  30  37
ENDBRANCH   2  27
TORSDOF 7
