REMARK  7 active torsions:
REMARK  status: ('A' for Active; 'I' for Inactive)
REMARK    1  A    between atoms: C2_2  and  C4_4 
REMARK    2  A    between atoms: C4_4  and  C5_5 
REMARK    3  A    between atoms: C5_5  and  C6_6 
REMARK    4  A    between atoms: C5_5  and  N7_7 
REMARK       I    between atoms: N7_7  and  C10_10 
REMARK    5  A    between atoms: C10_10  and  C13_13 
REMARK    6  A    between atoms: N14_14  and  C24_24 
REMARK    7  A    between atoms: C16_16  and  C18_18 
ROOT
ATOM      1  C5  4FI d   1      39.506 -14.429   9.998  0.00  0.00     0.100 C 
ATOM      2  H5  4FI d   1      40.508 -14.495  10.448  0.00  0.00     0.090 H 
ENDROOT
BRANCH   1   3
ATOM      3  C4  4FI d   1      38.472 -14.992  10.974  0.00  0.00    -0.013 C 
ATOM      4  H3  4FI d   1      38.470 -14.380  11.888  0.00  0.00     0.043 H 
ATOM      5  H4  4FI d   1      37.477 -14.954  10.506  0.00  0.00     0.043 H 
BRANCH   3   6
ATOM      6  C2  4FI d   1      38.797 -16.441  11.342  0.00  0.00    -0.055 A 
ATOM      7  C3  4FI d   1      39.260 -16.748  12.616  0.00  0.00    -0.066 A 
ATOM      8  C26 4FI d   1      39.556 -18.064  12.950  0.00  0.00    -0.025 A 
ATOM      9  H2  4FI d   1      39.390 -15.960  13.349  0.00  0.00     0.085 H 
ATOM     10  C25 4FI d   1      39.388 -19.074  12.010  0.00  0.00    -0.026 A 
ATOM     11  C27 4FI d   1      40.019 -18.371  14.224  0.00  0.00    -0.072 A 
ATOM     12  C1  4FI d   1      38.924 -18.768  10.735  0.00  0.00    -0.072 A 
ATOM     13  C30 4FI d   1      39.683 -20.391  12.344  0.00  0.00    -0.072 A 
ATOM     14  C11 4FI d   1      38.629 -17.451  10.402  0.00  0.00    -0.076 A 
ATOM     15  H1  4FI d   1      38.793 -19.556  10.002  0.00  0.00     0.084 H 
ATOM     16  H7  4FI d   1      38.268 -17.212   9.409  0.00  0.00     0.084 H 
ATOM     17  C29 4FI d   1      40.146 -20.698  13.618  0.00  0.00    -0.082 A 
ATOM     18  H20 4FI d   1      39.552 -21.178  11.611  0.00  0.00     0.084 H 
ATOM     19  C28 4FI d   1      40.314 -19.688  14.558  0.00  0.00    -0.082 A 
ATOM     20  H19 4FI d   1      40.376 -21.725  13.879  0.00  0.00     0.083 H 
ATOM     21  H18 4FI d   1      40.675 -19.927  15.552  0.00  0.00     0.083 H 
ATOM     22  H17 4FI d   1      40.150 -17.584  14.957  0.00  0.00     0.084 H 
ENDBRANCH   3   6
ENDBRANCH   1   3
BRANCH   1  23
ATOM     23  C6  4FI d   1      39.179 -12.965   9.696  0.00  0.00     0.197 C 
ATOM     24  O8  4FI d   1      38.796 -12.631   8.576  0.00  0.00    -0.646 OA
ATOM     25  O9  4FI d   1      39.297 -12.107  10.570  0.00  0.00    -0.646 OA
ENDBRANCH   1  23
BRANCH   1  26
ATOM     26  N7  4FI d   1      39.478 -15.206   8.751  0.00  0.00    -0.341 N 
ATOM     27  C10 4FI d   1      40.525 -15.916   8.339  0.00  0.00     0.270 C 
ATOM     28  O12 4FI d   1      41.590 -15.988   8.949  0.00  0.00    -0.266 OA
ATOM     29  H6  4FI d   1      38.647 -15.201   8.195  0.00  0.00     0.163 HD
BRANCH  27  30
ATOM     30  C13 4FI d   1      40.320 -16.663   7.019  0.00  0.00     0.122 A 
ATOM     31  N14 4FI d   1      40.745 -17.888   6.749  0.00  0.00    -0.268 N 
ATOM     32  N15 4FI d   1      40.421 -18.201   5.603  0.00  0.00    -0.172 NA
ATOM     33  C16 4FI d   1      39.757 -17.177   5.057  0.00  0.00     0.089 A 
ATOM     34  C17 4FI d   1      39.690 -16.194   5.954  0.00  0.00    -0.020 A 
ATOM     35  H8  4FI d   1      39.220 -15.219   5.837  0.00  0.00     0.091 H 
BRANCH  31  36
ATOM     36  C24 4FI d   1      41.496 -18.752   7.687  0.00  0.00     0.003 C 
ATOM     37  H14 4FI d   1      41.720 -19.713   7.201  0.00  0.00     0.059 H 
ATOM     38  H15 4FI d   1      40.890 -18.929   8.588  0.00  0.00     0.059 H 
ATOM     39  H16 4FI d   1      42.436 -18.256   7.969  0.00  0.00     0.059 H 
ENDBRANCH  31  36
BRANCH  33  40
ATOM     40  C18 4FI d   1      39.228 -17.144   3.772  0.00  0.00    -0.006 A 
ATOM     41  C19 4FI d   1      38.936 -15.925   3.172  0.00  0.00    -0.071 A 
ATOM     42  C20 4FI d   1      38.407 -15.891   1.887  0.00  0.00    -0.082 A 
ATOM     43  H9  4FI d   1      39.121 -15.000   3.706  0.00  0.00     0.084 H 
ATOM     44  C21 4FI d   1      38.169 -17.077   1.202  0.00  0.00    -0.083 A 
ATOM     45  H10 4FI d   1      38.180 -14.940   1.419  0.00  0.00     0.083 H 
ATOM     46  C22 4FI d   1      38.461 -18.297   1.802  0.00  0.00    -0.082 A 
ATOM     47  H11 4FI d   1      37.756 -17.051   0.200  0.00  0.00     0.083 H 
ATOM     48  C23 4FI d   1      38.990 -18.330   3.087  0.00  0.00    -0.071 A 
ATOM     49  H12 4FI d   1      38.276 -19.222   1.268  0.00  0.00     0.083 H 
ATOM     50  H13 4FI d   1      39.217 -19.281   3.555  0.00  0.00     0.084 H 
ENDBRANCH  33  40
ENDBRANCH  27  30
ENDBRANCH   1  26
TORSDOF 7
