REMARK  8 active torsions:
REMARK  status: ('A' for Active; 'I' for Inactive)
REMARK    1  A    between atoms: C2_2  and  N18_18 
REMARK    2  A    between atoms: N11_11  and  C17_17 
REMARK    3  A    between atoms: C13_13  and  C14_14 
REMARK       I    between atoms: C14_14  and  N15_15 
REMARK    4  A    between atoms: N18_18  and  C19_19 
REMARK    5  A    between atoms: C21_21  and  N30_27 
REMARK    6  A    between atoms: C24_24  and  O25_25 
REMARK    7  A    between atoms: O25_25  and  C26_26 
REMARK    8  A    between atoms: N33_30  and  C36_33 
ROOT
ATOM      1  C19 071 d   1      45.792 -13.098  18.574  0.00  0.00     0.084 A 
ATOM      2  C20 071 d   1      46.172 -14.302  17.981  0.00  0.00    -0.028 A 
ATOM      3  C21 071 d   1      47.502 -14.713  18.004  0.00  0.00     0.032 A 
ATOM      4  C22 071 d   1      48.443 -13.900  18.623  0.00  0.00    -0.055 A 
ATOM      5  C23 071 d   1      48.083 -12.698  19.202  0.00  0.00    -0.046 A 
ATOM      6  C24 071 d   1      46.755 -12.310  19.180  0.00  0.00     0.095 A 
ATOM      7  H12 071 d   1      45.426 -14.923  17.498  0.00  0.00     0.090 H 
ATOM      8  H13 071 d   1      49.480 -14.215  18.652  0.00  0.00     0.087 H 
ATOM      9  H14 071 d   1      48.831 -12.067  19.668  0.00  0.00     0.087 H 
ENDROOT
BRANCH   1  10
ATOM     10  N18 071 d   1      44.507 -12.620  18.580  0.00  0.00    -0.185 N 
ATOM     11  H11 071 d   1      44.194 -12.079  19.399  0.00  0.00     0.184 HD
BRANCH  10  12
ATOM     12  C2  071 d   1      43.617 -12.820  17.563  0.00  0.00     0.727 A 
ATOM     13  N1  071 d   1      42.337 -12.394  17.689  0.00  0.00    -0.074 NA
ATOM     14  C4  071 d   1      41.451 -12.620  16.696  0.00  0.00     0.029 A 
ATOM     15  C5  071 d   1      41.840 -13.262  15.505  0.00  0.00    -0.008 A 
ATOM     16  H1  071 d   1      40.422 -12.302  16.818  0.00  0.00     0.116 H 
ATOM     17  C6  071 d   1      43.162 -13.628  15.364  0.00  0.00     0.112 A 
ATOM     18  C8  071 d   1      40.866 -13.551  14.370  0.00  0.00    -0.034 C 
ATOM     19  N3  071 d   1      44.004 -13.442  16.416  0.00  0.00    -0.060 NA
ATOM     20  C10 071 d   1      43.630 -14.455  14.227  0.00  0.00     0.091 A 
ATOM     21  C9  071 d   1      42.528 -14.978  13.406  0.00  0.00     0.009 A 
ATOM     22  N11 071 d   1      44.825 -14.922  13.877  0.00  0.00    -0.271 N 
ATOM     23  C7  071 d   1      41.101 -15.010  13.967  0.00  0.00    -0.032 C 
ATOM     24  C13 071 d   1      43.319 -15.915  12.570  0.00  0.00     0.153 A 
ATOM     25  H2  071 d   1      40.380 -15.331  13.200  0.00  0.00     0.040 H 
ATOM     26  H3  071 d   1      41.032 -15.678  14.838  0.00  0.00     0.040 H 
ATOM     27  N12 071 d   1      44.661 -15.816  12.782  0.00  0.00    -0.166 NA
ATOM     28  H4  071 d   1      41.064 -12.883  13.518  0.00  0.00     0.040 H 
ATOM     29  H5  071 d   1      39.830 -13.412  14.712  0.00  0.00     0.040 H 
BRANCH  24  30
ATOM     30  C14 071 d   1      42.618 -16.706  11.501  0.00  0.00     0.270 C 
ATOM     31  N15 071 d   1      43.244 -17.791  11.053  0.00  0.00    -0.365 N 
ATOM     32  H6  071 d   1      42.822 -18.354  10.342  0.00  0.00     0.159 HD
ATOM     33  H7  071 d   1      44.136 -18.044  11.427  0.00  0.00     0.159 HD
ATOM     34  O16 071 d   1      41.508 -16.419  11.070  0.00  0.00    -0.266 OA
ENDBRANCH  24  30
BRANCH  22  35
ATOM     35  C17 071 d   1      46.221 -14.691  14.318  0.00  0.00     0.003 C 
ATOM     36  H8  071 d   1      46.902 -15.318  13.724  0.00  0.00     0.059 H 
ATOM     37  H9  071 d   1      46.317 -14.952  15.382  0.00  0.00     0.059 H 
ATOM     38  H10 071 d   1      46.480 -13.632  14.175  0.00  0.00     0.059 H 
ENDBRANCH  22  35
ENDBRANCH  10  12
ENDBRANCH   1  10
BRANCH   6  39
ATOM     39  O25 071 d   1      46.388 -11.128  19.771  0.00  0.00    -0.354 OA
BRANCH  39  40
ATOM     40  C26 071 d   1      47.357 -10.470  20.595  0.00  0.00     0.010 C 
ATOM     41  H15 071 d   1      46.926  -9.542  20.998  0.00  0.00     0.066 H 
ATOM     42  H16 071 d   1      48.247 -10.230  19.994  0.00  0.00     0.066 H 
ATOM     43  H17 071 d   1      47.643 -11.133  21.425  0.00  0.00     0.066 H 
ENDBRANCH  39  40
ENDBRANCH   6  39
BRANCH   3  44
ATOM     44  N30 071 d   1      47.958 -15.918  17.398  0.00  0.00    -0.378 N 
ATOM     45  C31 071 d   1      47.213 -17.131  17.704  0.00  0.00     0.018 C 
ATOM     46  C32 071 d   1      47.516 -18.251  16.712  0.00  0.00     0.098 C 
ATOM     47  H18 071 d   1      46.137 -16.906  17.668  0.00  0.00     0.066 H 
ATOM     48  H19 071 d   1      47.484 -17.469  18.715  0.00  0.00     0.066 H 
ATOM     49  N33 071 d   1      48.945 -18.311  16.453  0.00  0.00    -0.072 N 
ATOM     50  H20 071 d   1      46.983 -18.058  15.770  0.00  0.00     0.078 H 
ATOM     51  H21 071 d   1      47.181 -19.211  17.132  0.00  0.00     0.078 H 
ATOM     52  C34 071 d   1      49.695 -17.099  16.170  0.00  0.00     0.098 C 
ATOM     53  H22 071 d   1      49.284 -18.508  17.382  0.00  0.00     0.279 HD
ATOM     54  C35 071 d   1      49.416 -16.033  17.230  0.00  0.00     0.018 C 
ATOM     55  H23 071 d   1      49.400 -16.713  15.183  0.00  0.00     0.078 H 
ATOM     56  H24 071 d   1      50.770 -17.332  16.166  0.00  0.00     0.078 H 
ATOM     57  H25 071 d   1      49.878 -16.327  18.184  0.00  0.00     0.066 H 
ATOM     58  H26 071 d   1      49.830 -15.067  16.904  0.00  0.00     0.066 H 
BRANCH  49  59
ATOM     59  C36 071 d   1      49.377 -19.510  15.742  0.00  0.00     0.066 C 
ATOM     60  H27 071 d   1      48.741 -20.359  16.034  0.00  0.00     0.068 H 
ATOM     61  H28 071 d   1      50.424 -19.731  15.998  0.00  0.00     0.068 H 
ATOM     62  H29 071 d   1      49.292 -19.344  14.658  0.00  0.00     0.068 H 
ENDBRANCH  49  59
ENDBRANCH   3  44
TORSDOF 8
