REMARK  7 active torsions:
REMARK  status: ('A' for Active; 'I' for Inactive)
REMARK    1  A    between atoms: C01_1  and  C02_2 
REMARK    2  A    between atoms: C07_7  and  C08_8 
REMARK    3  A    between atoms: C08_8  and  N09_9 
REMARK    4  A    between atoms: N09_9  and  C10_10 
REMARK    5  A    between atoms: N09_9  and  C19_19 
REMARK    6  A    between atoms: N13_13  and  S15_15 
REMARK    7  A    between atoms: S15_15  and  C16_16 
ROOT
ATOM      1  C19 WOW d   1      -3.520  -8.770  26.352  0.00  0.00     0.032 A 
ATOM      2  C20 WOW d   1      -4.606  -8.430  27.159  0.00  0.00    -0.056 A 
ATOM      3  C21 WOW d   1      -4.793  -9.048  28.391  0.00  0.00    -0.059 A 
ATOM      4  C22 WOW d   1      -3.898 -10.022  28.814  0.00  0.00     0.066 A 
ATOM      5  C23 WOW d   1      -4.110 -10.666  30.135  0.00  0.00     0.101 C 
ATOM      6  N24 WOW d   1      -4.279 -11.167  31.135  0.00  0.00    -0.191 NA
ATOM      7  C25 WOW d   1      -2.828 -10.387  27.991  0.00  0.00     0.057 A 
ATOM      8 CL26 WOW d   1      -1.639 -11.506  28.517  0.00  0.00    -0.083 Cl
ATOM      9  C27 WOW d   1      -2.616  -9.737  26.779  0.00  0.00    -0.035 A 
ATOM     10  H20 WOW d   1      -5.310  -7.678  26.823  0.00  0.00     0.087 H 
ATOM     11  H21 WOW d   1      -5.633  -8.771  29.018  0.00  0.00     0.086 H 
ATOM     12  H22 WOW d   1      -1.752  -9.983  26.172  0.00  0.00     0.089 H 
ENDROOT
BRANCH   1  13
ATOM     13  N09 WOW d   1      -3.328  -8.110  25.110  0.00  0.00    -0.370 N 
BRANCH  13  14
ATOM     14  C08 WOW d   1      -2.195  -8.416  24.300  0.00  0.00     0.020 C 
ATOM     15  H8  WOW d   1      -1.958  -7.510  23.723  0.00  0.00     0.071 H 
ATOM     16  H9  WOW d   1      -1.363  -8.644  24.983  0.00  0.00     0.071 H 
BRANCH  14  17
ATOM     17  C07 WOW d   1      -2.282  -9.541  23.329  0.00  0.00    -0.034 A 
ATOM     18  C02 WOW d   1      -1.306  -9.729  22.343  0.00  0.00    -0.054 A 
ATOM     19  C03 WOW d   1      -1.410 -10.803  21.458  0.00  0.00    -0.077 A 
ATOM     20  C04 WOW d   1      -2.455 -11.710  21.586  0.00  0.00    -0.082 A 
ATOM     21  H4  WOW d   1      -0.676 -10.930  20.671  0.00  0.00     0.084 H 
ATOM     22  C05 WOW d   1      -3.433 -11.515  22.557  0.00  0.00    -0.082 A 
ATOM     23  H5  WOW d   1      -2.509 -12.570  20.929  0.00  0.00     0.083 H 
ATOM     24  C06 WOW d   1      -3.322 -10.457  23.454  0.00  0.00    -0.075 A 
ATOM     25  H6  WOW d   1      -4.281 -12.187  22.614  0.00  0.00     0.083 H 
ATOM     26  H7  WOW d   1      -4.047 -10.346  24.252  0.00  0.00     0.084 H 
BRANCH  18  27
ATOM     27  C01 WOW d   1      -0.165  -8.789  22.195  0.00  0.00    -0.051 C 
ATOM     28  H1  WOW d   1       0.478  -9.120  21.366  0.00  0.00     0.033 H 
ATOM     29  H2  WOW d   1       0.419  -8.771  23.127  0.00  0.00     0.033 H 
ATOM     30  H3  WOW d   1      -0.547  -7.780  21.982  0.00  0.00     0.033 H 
ENDBRANCH  18  27
ENDBRANCH  14  17
ENDBRANCH  13  14
BRANCH  13  31
ATOM     31  C10 WOW d   1      -4.100  -6.947  24.825  0.00  0.00     0.030 C 
ATOM     32  C11 WOW d   1      -3.399  -5.629  24.897  0.00  0.00    -0.029 C 
ATOM     33  C12 WOW d   1      -3.131  -5.246  23.442  0.00  0.00     0.007 C 
ATOM     34  H11 WOW d   1      -2.454  -5.723  25.453  0.00  0.00     0.038 H 
ATOM     35  H12 WOW d   1      -4.038  -4.877  25.384  0.00  0.00     0.038 H 
ATOM     36  N13 WOW d   1      -3.905  -6.161  22.622  0.00  0.00    -0.309 N 
ATOM     37  H13 WOW d   1      -2.059  -5.346  23.214  0.00  0.00     0.065 H 
ATOM     38  H14 WOW d   1      -3.450  -4.209  23.258  0.00  0.00     0.065 H 
ATOM     39  C14 WOW d   1      -4.767  -6.947  23.504  0.00  0.00     0.024 C 
ATOM     40  H15 WOW d   1      -5.763  -6.485  23.578  0.00  0.00     0.068 H 
ATOM     41  H16 WOW d   1      -4.867  -7.975  23.125  0.00  0.00     0.068 H 
ATOM     42  H10 WOW d   1      -4.889  -6.933  25.592  0.00  0.00     0.075 H 
BRANCH  36  43
ATOM     43  S15 WOW d   1      -3.723  -5.597  21.122  0.00  0.00     0.224 S 
ATOM     44  O17 WOW d   1      -2.821  -4.502  21.150  0.00  0.00    -0.206 OA
ATOM     45  O18 WOW d   1      -4.979  -5.166  20.643  0.00  0.00    -0.206 OA
BRANCH  43  46
ATOM     46  C16 WOW d   1      -3.137  -6.866  20.084  0.00  0.00     0.032 C 
ATOM     47  H17 WOW d   1      -3.014  -6.477  19.062  0.00  0.00     0.051 H 
ATOM     48  H18 WOW d   1      -3.859  -7.696  20.076  0.00  0.00     0.051 H 
ATOM     49  H19 WOW d   1      -2.167  -7.227  20.458  0.00  0.00     0.051 H 
ENDBRANCH  43  46
ENDBRANCH  36  43
ENDBRANCH  13  31
ENDBRANCH   1  13
TORSDOF 7
