REMARK  4 active torsions:
REMARK  status: ('A' for Active; 'I' for Inactive)
REMARK    1  A    between atoms: C1_1  and  O14_14 
REMARK    2  A    between atoms: C11_11  and  N13_13 
REMARK    3  A    between atoms: O14_14  and  C15_15 
REMARK    4  A    between atoms: C15_15  and  P16_16 
ROOT
ATOM      1  C1  2T4 d   1      19.195  60.211  16.287  0.00  0.00     0.082 A 
ATOM      2  C2  2T4 d   1      19.514  61.206  15.343  0.00  0.00    -0.050 A 
ATOM      3  C3  2T4 d   1      20.851  61.626  15.179  0.00  0.00    -0.080 A 
ATOM      4  C4  2T4 d   1      21.866  61.047  15.960  0.00  0.00    -0.075 A 
ATOM      5  C5  2T4 d   1      21.515  60.067  16.881  0.00  0.00    -0.038 A 
ATOM      6  C6  2T4 d   1      20.206  59.674  17.027  0.00  0.00     0.034 A 
ATOM      7  C7  2T4 d   1      22.454  59.292  17.842  0.00  0.00    -0.008 A 
ATOM      8  C8  2T4 d   1      21.366  58.449  18.485  0.00  0.00     0.020 A 
ATOM      9  C9  2T4 d   1      20.141  58.658  18.041  0.00  0.00     0.086 A 
ATOM     10  S10 2T4 d   1      21.376  57.270  19.674  0.00  0.00    -0.054 SA
ATOM     11  C11 2T4 d   1      19.674  57.069  19.560  0.00  0.00     0.165 A 
ATOM     12  N12 2T4 d   1      19.128  57.912  18.604  0.00  0.00    -0.223 NA
ATOM     13  H1  2T4 d   1      18.730  61.651  14.741  0.00  0.00     0.087 H 
ATOM     14  H2  2T4 d   1      21.095  62.393  14.453  0.00  0.00     0.083 H 
ATOM     15  H3  2T4 d   1      22.898  61.358  15.847  0.00  0.00     0.084 H 
ATOM     16  H4  2T4 d   1      22.962  59.950  18.562  0.00  0.00     0.048 H 
ATOM     17  H5  2T4 d   1      23.201  58.686  17.309  0.00  0.00     0.048 H 
ENDROOT
BRANCH   1  18
ATOM     18  O14 2T4 d   1      17.899  59.763  16.484  0.00  0.00    -0.337 OA
BRANCH  18  19
ATOM     19  C15 2T4 d   1      16.969  60.690  15.984  0.00  0.00     0.128 C 
ATOM     20  H8  2T4 d   1      17.145  60.842  14.909  0.00  0.00     0.096 H 
ATOM     21  H9  2T4 d   1      17.085  61.647  16.514  0.00  0.00     0.096 H 
BRANCH  19  22
ATOM     22  P16 2T4 d   1      15.287  60.058  16.238  0.00  0.00     0.284 P 
ATOM     23  O17 2T4 d   1      14.306  60.868  15.444  0.00  0.00    -0.638 OA
ATOM     24  O18 2T4 d   1      15.225  58.629  15.796  0.00  0.00    -0.638 OA
ATOM     25  O19 2T4 d   1      14.949  60.149  17.692  0.00  0.00    -0.638 OA
ENDBRANCH  19  22
ENDBRANCH  18  19
ENDBRANCH   1  18
BRANCH  11  26
ATOM     26  N13 2T4 d   1      18.905  56.122  20.375  0.00  0.00    -0.378 N 
ATOM     27  H6  2T4 d   1      17.884  56.051  20.256  0.00  0.00     0.158 HD
ATOM     28  H7  2T4 d   1      19.386  55.528  21.066  0.00  0.00     0.158 HD
ENDBRANCH  11  26
TORSDOF 4
