REMARK  3 active torsions:
REMARK  status: ('A' for Active; 'I' for Inactive)
REMARK    1  A    between atoms: P1_1  and  C5_5 
REMARK    2  A    between atoms: C5_5  and  O6_6 
REMARK    3  A    between atoms: O6_6  and  C7_7 
ROOT
ATOM      1  C7  2T5 d   1      19.381  60.455  16.301  0.00  0.00     0.082 A 
ATOM      2  C8  2T5 d   1      20.265  59.765  17.081  0.00  0.00     0.034 A 
ATOM      3  C9  2T5 d   1      21.600  60.090  17.051  0.00  0.00    -0.038 A 
ATOM      4  C10 2T5 d   1      22.079  61.105  16.247  0.00  0.00    -0.075 A 
ATOM      5  C11 2T5 d   1      21.189  61.810  15.454  0.00  0.00    -0.080 A 
ATOM      6  C12 2T5 d   1      19.835  61.486  15.480  0.00  0.00    -0.050 A 
ATOM      7  C13 2T5 d   1      22.480  59.215  17.991  0.00  0.00    -0.008 A 
ATOM      8  C14 2T5 d   1      21.333  58.372  18.508  0.00  0.00     0.018 A 
ATOM      9  C15 2T5 d   1      20.142  58.665  18.023  0.00  0.00     0.084 A 
ATOM     10  S16 2T5 d   1      21.180  57.035  19.647  0.00  0.00    -0.085 SA
ATOM     11  C17 2T5 d   1      19.443  57.012  19.335  0.00  0.00     0.041 A 
ATOM     12  N18 2T5 d   1      19.049  57.950  18.439  0.00  0.00    -0.252 NA
ATOM     13  H   2T5 d   1      23.142  61.348  16.236  0.00  0.00     0.084 H 
ATOM     14  H   2T5 d   1      21.547  62.615  14.812  0.00  0.00     0.083 H 
ATOM     15  H   2T5 d   1      19.130  62.038  14.858  0.00  0.00     0.087 H 
ATOM     16  H   2T5 d   1      23.084  59.738  18.733  0.00  0.00     0.048 H 
ATOM     17  H   2T5 d   1      23.317  58.686  17.536  0.00  0.00     0.048 H 
ATOM     18  H   2T5 d   1      18.756  56.314  19.814  0.00  0.00     0.126 H 
ENDROOT
BRANCH   1  19
ATOM     19  O6  2T5 d   1      18.044  60.096  16.359  0.00  0.00    -0.337 OA
BRANCH  19  20
ATOM     20  C5  2T5 d   1      17.263  60.888  15.507  0.00  0.00     0.128 C 
ATOM     21  H   2T5 d   1      17.334  61.936  15.798  0.00  0.00     0.096 H 
ATOM     22  H   2T5 d   1      17.617  60.798  14.480  0.00  0.00     0.096 H 
BRANCH  20  23
ATOM     23  P1  2T5 d   1      15.540  60.318  15.629  0.00  0.00     0.284 P 
ATOM     24  O2  2T5 d   1      14.639  61.253  14.873  0.00  0.00    -0.638 OA
ATOM     25  O3  2T5 d   1      15.122  60.295  17.068  0.00  0.00    -0.638 OA
ATOM     26  O4  2T5 d   1      15.437  58.934  15.053  0.00  0.00    -0.638 OA
ENDBRANCH  20  23
ENDBRANCH  19  20
ENDBRANCH   1  19
TORSDOF 3
