REMARK  4 active torsions:
REMARK  status: ('A' for Active; 'I' for Inactive)
REMARK    1  A    between atoms: C3_3  and  O13_13 
REMARK    2  A    between atoms: C6_6  and  C16_16 
REMARK    3  A    between atoms: O13_13  and  C14_14 
REMARK    4  A    between atoms: C14_14  and  P19_19 
REMARK       I    between atoms: C16_16  and  N17_17 
ROOT
ATOM      1  C1  2T6 d   1      21.481  59.552  17.131  0.00  0.00    -0.022 A 
ATOM      2  C2  2T6 d   1      20.144  59.311  17.345  0.00  0.00     0.034 A 
ATOM      3  C3  2T6 d   1      19.164  60.004  16.691  0.00  0.00     0.082 A 
ATOM      4  C4  2T6 d   1      19.547  60.998  15.768  0.00  0.00    -0.049 A 
ATOM      5  C5  2T6 d   1      20.907  61.258  15.536  0.00  0.00    -0.065 A 
ATOM      6  C6  2T6 d   1      21.889  60.526  16.226  0.00  0.00     0.039 A 
ATOM      7  C7  2T6 d   1      22.377  58.625  18.002  0.00  0.00    -0.007 A 
ATOM      8  C8  2T6 d   1      21.239  57.885  18.677  0.00  0.00     0.014 A 
ATOM      9  C9  2T6 d   1      20.016  58.258  18.322  0.00  0.00     0.079 A 
ATOM     10  S10 2T6 d   1      21.189  56.654  19.815  0.00  0.00    -0.101 SA
ATOM     11  C11 2T6 d   1      19.474  56.661  19.796  0.00  0.00     0.112 A 
ATOM     12  N12 2T6 d   1      18.958  57.603  18.919  0.00  0.00    -0.269 NA
ATOM     13  H1  2T6 d   1      18.790  61.563  15.236  0.00  0.00     0.087 H 
ATOM     14  H2  2T6 d   1      21.200  62.023  14.825  0.00  0.00     0.085 H 
ATOM     15  H3  2T6 d   1      23.000  59.185  18.715  0.00  0.00     0.048 H 
ATOM     16  H4  2T6 d   1      23.015  57.962  17.398  0.00  0.00     0.048 H 
ATOM     17  H5  2T6 d   1      18.859  56.000  20.405  0.00  0.00     0.098 H 
ENDROOT
BRANCH   3  18
ATOM     18  O13 2T6 d   1      17.838  59.718  16.947  0.00  0.00    -0.337 OA
BRANCH  18  19
ATOM     19  C14 2T6 d   1      17.011  60.405  16.040  0.00  0.00     0.128 C 
ATOM     20  H6  2T6 d   1      17.307  60.151  15.011  0.00  0.00     0.096 H 
ATOM     21  H7  2T6 d   1      17.118  61.489  16.196  0.00  0.00     0.096 H 
BRANCH  19  22
ATOM     22  P19 2T6 d   1      15.284  59.927  16.305  0.00  0.00     0.284 P 
ATOM     23  O15 2T6 d   1      14.993  59.933  17.772  0.00  0.00    -0.638 OA
ATOM     24  O20 2T6 d   1      14.374  60.893  15.612  0.00  0.00    -0.638 OA
ATOM     25  O21 2T6 d   1      15.069  58.550  15.753  0.00  0.00    -0.638 OA
ENDBRANCH  19  22
ENDBRANCH  18  19
ENDBRANCH   3  18
BRANCH   6  26
ATOM     26  C16 2T6 d   1      23.311  60.787  15.993  0.00  0.00     0.249 C 
ATOM     27  N17 2T6 d   1      23.567  61.940  15.346  0.00  0.00    -0.366 N 
ATOM     28  H8  2T6 d   1      24.511  62.201  15.143  0.00  0.00     0.159 HD
ATOM     29  H9  2T6 d   1      22.813  62.535  15.068  0.00  0.00     0.159 HD
ATOM     30  O18 2T6 d   1      24.209  60.026  16.338  0.00  0.00    -0.268 OA
ENDBRANCH   6  26
TORSDOF 4
