REMARK  4 active torsions:
REMARK  status: ('A' for Active; 'I' for Inactive)
REMARK    1  A    between atoms: C13_13  and  N25_25 
REMARK    2  A    between atoms: N25_25  and  C14_14 
REMARK    3  A    between atoms: C16_16  and  C17_17 
REMARK    4  A    between atoms: C19_19  and  N20_20 
ROOT
ATOM      1  C8  MK2 d   1      -5.457  54.972 -12.109  0.00  0.00    -0.043 A 
ATOM      2  C9  MK2 d   1      -6.983  55.784 -10.414  0.00  0.00    -0.042 A 
ATOM      3  C10 MK2 d   1      -3.819  56.705 -12.641  0.00  0.00     0.034 A 
ATOM      4  C14 MK2 d   1      -6.540  54.784 -11.270  0.00  0.00     0.035 A 
ATOM      5  C15 MK2 d   1      -4.913  56.234 -11.946  0.00  0.00     0.014 A 
ATOM      6  C16 MK2 d   1      -6.433  57.055 -10.284  0.00  0.00     0.029 A 
ATOM      7  C18 MK2 d   1      -5.341  57.275 -11.097  0.00  0.00     0.075 A 
ATOM      8  N21 MK2 d   1      -4.560  58.363 -11.272  0.00  0.00    -0.277 N 
ATOM      9  N23 MK2 d   1      -3.656  57.994 -12.201  0.00  0.00    -0.186 NA
ATOM     10  H8  MK2 d   1      -5.083  54.228 -12.803  0.00  0.00     0.088 H 
ATOM     11  H9  MK2 d   1      -7.838  55.552  -9.789  0.00  0.00     0.088 H 
ATOM     12  H10 MK2 d   1      -3.218  56.172 -13.376  0.00  0.00     0.118 H 
ATOM     13  H13 MK2 d   1      -4.638  59.275 -10.799  0.00  0.00     0.189 HD
ENDROOT
BRANCH   6  14
ATOM     14  C17 MK2 d   1      -6.904  58.140  -9.438  0.00  0.00     0.089 A 
ATOM     15  C7  MK2 d   1      -8.142  58.430  -8.880  0.00  0.00    -0.037 A 
ATOM     16  C11 MK2 d   1      -7.973  59.662  -8.180  0.00  0.00     0.000 A 
ATOM     17  H7  MK2 d   1      -9.053  57.839  -8.960  0.00  0.00     0.089 H 
ATOM     18  C3  MK2 d   1      -8.813  60.469  -7.432  0.00  0.00    -0.070 A 
ATOM     19  C12 MK2 d   1      -6.644  60.042  -8.371  0.00  0.00     0.086 A 
ATOM     20  C1  MK2 d   1      -8.263  61.611  -6.908  0.00  0.00    -0.082 A 
ATOM     21  H3  MK2 d   1      -9.853  60.211  -7.269  0.00  0.00     0.084 H 
ATOM     22  C2  MK2 d   1      -6.946  61.961  -7.110  0.00  0.00    -0.080 A 
ATOM     23  H1  MK2 d   1      -8.889  62.264  -6.311  0.00  0.00     0.083 H 
ATOM     24  C4  MK2 d   1      -6.068  61.186  -7.857  0.00  0.00    -0.049 A 
ATOM     25  H2  MK2 d   1      -6.579  62.880  -6.667  0.00  0.00     0.083 H 
ATOM     26  H4  MK2 d   1      -5.030  61.454  -8.021  0.00  0.00     0.087 H 
ATOM     27  O26 MK2 d   1      -5.980  59.121  -9.135  0.00  0.00    -0.309 OA
ENDBRANCH   6  14
BRANCH   4  28
ATOM     28  N25 MK2 d   1      -7.239  53.582 -11.266  0.00  0.00    -0.340 N 
ATOM     29  H14 MK2 d   1      -8.005  53.505 -10.582  0.00  0.00     0.167 HD
BRANCH  28  30
ATOM     30  C13 MK2 d   1      -7.028  52.468 -12.077  0.00  0.00     0.148 A 
ATOM     31  C5  MK2 d   1      -7.645  51.323 -11.639  0.00  0.00    -0.021 A 
ATOM     32  C6  MK2 d   1      -7.463  50.171 -12.383  0.00  0.00     0.025 A 
ATOM     33  H5  MK2 d   1      -8.253  51.321 -10.742  0.00  0.00     0.091 H 
ATOM     34  N22 MK2 d   1      -6.743  50.098 -13.505  0.00  0.00    -0.075 NA
ATOM     35  H6  MK2 d   1      -7.939  49.263 -12.030  0.00  0.00     0.115 H 
ATOM     36  C19 MK2 d   1      -6.177  51.260 -13.867  0.00  0.00     0.721 A 
ATOM     37  N24 MK2 d   1      -6.279  52.441 -13.199  0.00  0.00    -0.045 NA
BRANCH  36  38
ATOM     38  N20 MK2 d   1      -5.428  51.215 -15.052  0.00  0.00    -0.231 N 
ATOM     39  H11 MK2 d   1      -5.339  50.330 -15.572  0.00  0.00     0.174 HD
ATOM     40  H12 MK2 d   1      -4.967  52.067 -15.402  0.00  0.00     0.174 HD
ENDBRANCH  36  38
ENDBRANCH  28  30
ENDBRANCH   4  28
TORSDOF 4
