REMARK  2 active torsions:
REMARK  status: ('A' for Active; 'I' for Inactive)
REMARK    1  A    between atoms: C1_1  and  C6_6 
REMARK    2  A    between atoms: C11_11  and  C13_13 
ROOT
ATOM      1  C1  4BY d   1       4.657  44.526  11.576  0.00  0.00     0.111 A 
ATOM      2  N2  4BY d   1       4.307  43.555  10.723  0.00  0.00    -0.350 N 
ATOM      3  C3  4BY d   1       5.086  44.021  12.738  0.00  0.00    -0.038 A 
ATOM      4  C4  4BY d   1       5.010  42.688  12.628  0.00  0.00    -0.007 A 
ATOM      5  C5  4BY d   1       4.522  42.391  11.348  0.00  0.00     0.043 A 
ATOM      6  C7  4BY d   1       5.323  41.645  13.502  0.00  0.00    -0.065 A 
ATOM      7  C9  4BY d   1       4.365  41.064  10.947  0.00  0.00    -0.056 A 
ATOM      8  C11 4BY d   1       5.147  40.308  13.101  0.00  0.00    -0.061 A 
ATOM      9  C12 4BY d   1       4.668  40.018  11.821  0.00  0.00    -0.075 A 
ATOM     10  H1  4BY d   1       3.942  43.680   9.768  0.00  0.00     0.166 HD
ATOM     11  H2  4BY d   1       5.430  44.584  13.604  0.00  0.00     0.088 H 
ATOM     12  H3  4BY d   1       5.703  41.866  14.493  0.00  0.00     0.085 H 
ATOM     13  H4  4BY d   1       4.005  40.843   9.949  0.00  0.00     0.087 H 
ATOM     14  H5  4BY d   1       4.533  38.989  11.509  0.00  0.00     0.084 H 
ENDROOT
BRANCH   8  15
ATOM     15  C13 4BY d   1       5.480  39.164  14.068  0.00  0.00    -0.051 C 
ATOM     16  H6  4BY d   1       5.840  39.582  15.020  0.00  0.00     0.033 H 
ATOM     17  H7  4BY d   1       6.261  38.527  13.628  0.00  0.00     0.033 H 
ATOM     18  H8  4BY d   1       4.577  38.563  14.250  0.00  0.00     0.033 H 
ENDBRANCH   8  15
BRANCH   1  19
ATOM     19  C6  4BY d   1       4.549  46.004  11.233  0.00  0.00     0.226 C 
ATOM     20  O8  4BY d   1       3.974  46.284  10.150  0.00  0.00    -0.643 OA
ATOM     21  O10 4BY d   1       5.026  46.850  12.029  0.00  0.00    -0.643 OA
ENDBRANCH   1  19
TORSDOF 2
