REMARK  7 active torsions:
REMARK  status: ('A' for Active; 'I' for Inactive)
REMARK    1  A    between atoms: C1_1  and  O2_2 
REMARK    2  A    between atoms: O2_2  and  C3_3 
REMARK    3  A    between atoms: C3_3  and  C4_4 
REMARK    4  A    between atoms: C8_8  and  C10_10 
REMARK    5  A    between atoms: C11_11  and  C18_18 
REMARK    6  A    between atoms: N12_12  and  C13_13 
REMARK    7  A    between atoms: N14_14  and  C15_15 
ROOT
ATOM      1  C10 JZO d   1      75.701  26.984  90.420  0.00  0.00     0.073 A 
ATOM      2  C11 JZO d   1      75.134  25.799  90.814  0.00  0.00     0.077 A 
ATOM      3  N12 JZO d   1      75.191  24.911  89.729  0.00  0.00    -0.290 N 
ATOM      4  N14 JZO d   1      75.798  25.549  88.658  0.00  0.00    -0.259 N 
ATOM      5  C16 JZO d   1      76.119  26.783  89.000  0.00  0.00     0.275 A 
ATOM      6  O17 JZO d   1      76.670  27.617  88.268  0.00  0.00    -0.266 OA
ENDROOT
BRANCH   1   7
ATOM      7  C8  JZO d   1      75.904  28.267  91.190  0.00  0.00    -0.018 A 
ATOM      8  C7  JZO d   1      76.483  28.269  92.503  0.00  0.00    -0.072 A 
ATOM      9  C6  JZO d   1      76.676  29.494  93.208  0.00  0.00    -0.082 A 
ATOM     10  H8  JZO d   1      76.776  27.332  92.963  0.00  0.00     0.084 H 
ATOM     11  C5  JZO d   1      76.301  30.723  92.604  0.00  0.00    -0.075 A 
ATOM     12  H7  JZO d   1      77.108  29.487  94.202  0.00  0.00     0.083 H 
ATOM     13  C4  JZO d   1      75.728  30.727  91.293  0.00  0.00    -0.034 A 
ATOM     14  H6  JZO d   1      76.448  31.656  93.135  0.00  0.00     0.084 H 
ATOM     15  C9  JZO d   1      75.532  29.506  90.594  0.00  0.00    -0.064 A 
ATOM     16  H9  JZO d   1      75.097  29.517  89.601  0.00  0.00     0.085 H 
BRANCH  13  17
ATOM     17  C3  JZO d   1      75.330  32.013  90.625  0.00  0.00     0.043 C 
ATOM     18  H4  JZO d   1      76.166  32.372  90.007  0.00  0.00     0.081 H 
ATOM     19  H5  JZO d   1      74.453  31.831  89.987  0.00  0.00     0.081 H 
BRANCH  17  20
ATOM     20  O2  JZO d   1      75.007  33.001  91.587  0.00  0.00    -0.391 OA
BRANCH  20  21
ATOM     21  C1  JZO d   1      74.625  34.218  90.943  0.00  0.00     0.004 C 
ATOM     22  H1  JZO d   1      74.378  34.973  91.704  0.00  0.00     0.066 H 
ATOM     23  H2  JZO d   1      73.746  34.036  90.308  0.00  0.00     0.066 H 
ATOM     24  H3  JZO d   1      75.457  34.581  90.322  0.00  0.00     0.066 H 
ENDBRANCH  20  21
ENDBRANCH  17  20
ENDBRANCH  13  17
ENDBRANCH   1   7
BRANCH   2  25
ATOM     25  C18 JZO d   1      74.543  25.463  92.152  0.00  0.00    -0.004 A 
ATOM     26  C19 JZO d   1      73.562  26.309  92.760  0.00  0.00    -0.068 A 
ATOM     27  C20 JZO d   1      73.001  25.965  94.026  0.00  0.00    -0.052 A 
ATOM     28  H16 JZO d   1      73.244  27.215  92.257  0.00  0.00     0.085 H 
ATOM     29  C21 JZO d   1      73.415  24.775  94.682  0.00  0.00     0.085 A 
ATOM     30  H17 JZO d   1      72.261  26.610  94.486  0.00  0.00     0.087 H 
ATOM     31  N22 JZO d   1      72.898  24.411  95.878  0.00  0.00    -0.257 NA
ATOM     32  C26 JZO d   1      74.397  23.926  94.077  0.00  0.00     0.086 A 
ATOM     33  C23 JZO d   1      73.280  23.268  96.520  0.00  0.00     0.020 A 
ATOM     34  C24 JZO d   1      74.248  22.437  95.915  0.00  0.00     0.020 A 
ATOM     35  H18 JZO d   1      72.847  23.003  97.478  0.00  0.00     0.117 H 
ATOM     36  N25 JZO d   1      74.777  22.791  94.715  0.00  0.00    -0.257 NA
ATOM     37  H19 JZO d   1      74.567  21.524  96.404  0.00  0.00     0.117 H 
ATOM     38  C27 JZO d   1      74.956  24.272  92.825  0.00  0.00    -0.041 A 
ATOM     39  H20 JZO d   1      75.703  23.630  92.373  0.00  0.00     0.088 H 
ENDBRANCH   2  25
BRANCH   3  40
ATOM     40  C13 JZO d   1      74.692  23.504  89.683  0.00  0.00     0.001 C 
ATOM     41  H10 JZO d   1      74.255  23.238  90.657  0.00  0.00     0.059 H 
ATOM     42  H11 JZO d   1      75.528  22.826  89.459  0.00  0.00     0.059 H 
ATOM     43  H12 JZO d   1      73.925  23.412  88.900  0.00  0.00     0.059 H 
ENDBRANCH   3  40
BRANCH   4  44
ATOM     44  C15 JZO d   1      76.048  24.949  87.334  0.00  0.00     0.004 C 
ATOM     45  H13 JZO d   1      76.542  25.686  86.685  0.00  0.00     0.059 H 
ATOM     46  H14 JZO d   1      75.092  24.646  86.882  0.00  0.00     0.059 H 
ATOM     47  H15 JZO d   1      76.696  24.067  87.447  0.00  0.00     0.059 H 
ENDBRANCH   4  44
TORSDOF 7
