REMARK  2 active torsions:
REMARK  status: ('A' for Active; 'I' for Inactive)
REMARK    1  A    between atoms: C9_15  and  C5_2 
REMARK    2  A    between atoms: C2_12  and  O1_11 
ROOT
ATOM      1  C13 3KC d   1      15.509  14.086   5.836  0.00  0.00    -0.081 A 
ATOM      2  C15 3KC d   1      15.359  11.807   5.053  0.00  0.00    -0.070 A 
ATOM      3  C17 3KC d   1      13.744  11.000   3.419  0.00  0.00    -0.007 A 
ATOM      4  C21 3KC d   1      12.064   9.895   1.924  0.00  0.00     0.160 A 
ATOM      5  C24 3KC d   1      10.883  11.681   1.196  0.00  0.00     0.018 A 
ATOM      6  C26 3KC d   1      12.597  11.069   2.545  0.00  0.00     0.037 A 
ATOM      7  C9  3KC d   1      12.017  13.625   2.327  0.00  0.00     0.082 C 
ATOM      8  N10 3KC d   1      12.906  14.061   3.242  0.00  0.00    -0.246 NA
ATOM      9  C11 3KC d   1      13.860  13.501   4.094  0.00  0.00     0.068 A 
ATOM     10  C12 3KC d   1      14.502  14.454   4.930  0.00  0.00    -0.054 A 
ATOM     11  C14 3KC d   1      15.928  12.755   5.906  0.00  0.00    -0.082 A 
ATOM     12  C16 3KC d   1      14.318  12.157   4.169  0.00  0.00     0.004 A 
ATOM     13  C18 3KC d   1      14.316   9.721   3.680  0.00  0.00    -0.054 A 
ATOM     14  C19 3KC d   1      13.747   8.612   3.024  0.00  0.00     0.005 A 
ATOM     15  N20 3KC d   1      12.667   8.733   2.209  0.00  0.00    -0.241 NA
ATOM     16  N22 3KC d   1      11.011  10.320   1.134  0.00  0.00    -0.240 NA
ATOM     17  C25 3KC d   1      11.803  12.203   2.032  0.00  0.00     0.026 A 
ATOM     18  H3  3KC d   1      15.960  14.832   6.480  0.00  0.00     0.083 H 
ATOM     19  H4  3KC d   1      15.723  10.786   5.071  0.00  0.00     0.084 H 
ATOM     20  H5  3KC d   1      10.146  12.258   0.650  0.00  0.00     0.116 H 
ATOM     21  H8  3KC d   1      14.206  15.495   4.866  0.00  0.00     0.087 H 
ATOM     22  H9  3KC d   1      16.690  12.460   6.618  0.00  0.00     0.083 H 
ATOM     23  H10 3KC d   1      15.155   9.606   4.356  0.00  0.00     0.087 H 
ATOM     24  H11 3KC d   1      14.184   7.632   3.174  0.00  0.00     0.114 H 
ENDROOT
BRANCH   7  25
ATOM     25  C5  3KC d   1      11.226  14.708   1.645  0.00  0.00     0.015 A 
ATOM     26  C4  3KC d   1      11.371  15.025   0.290  0.00  0.00    -0.067 A 
ATOM     27  C3  3KC d   1      10.680  16.110  -0.276  0.00  0.00    -0.050 A 
ATOM     28  H1  3KC d   1      12.026  14.425  -0.332  0.00  0.00     0.085 H 
ATOM     29  C2  3KC d   1       9.843  16.917   0.509  0.00  0.00     0.067 A 
ATOM     30  H7  3KC d   1      10.795  16.326  -1.332  0.00  0.00     0.087 H 
ATOM     31  C8  3KC d   1       9.722  16.632   1.857  0.00  0.00    -0.029 A 
ATOM     32  C6  3KC d   1      10.413  15.580   2.341  0.00  0.00     0.049 A 
ATOM     33  H2  3KC d   1       9.093  17.234   2.503  0.00  0.00     0.090 H 
ATOM     34 CL7  3KC d   1      10.236  15.277   3.966  0.00  0.00    -0.083 Cl
BRANCH  29  35
ATOM     35  O1  3KC d   1       9.156  18.016   0.061  0.00  0.00    -0.361 OA
ATOM     36  H6  3KC d   1       9.461  18.788   0.522  0.00  0.00     0.217 HD
ENDBRANCH  29  35
ENDBRANCH   7  25
TORSDOF 2
