REMARK  26 active torsions:
REMARK  status: ('A' for Active; 'I' for Inactive)
REMARK    1  A    between atoms: C_1  and  CH3_3 
REMARK       I    between atoms: C_1  and  N_4 
REMARK    2  A    between atoms: N_4  and  CA_5 
REMARK    3  A    between atoms: CA_5  and  C_6 
REMARK    4  A    between atoms: CA_5  and  CB_8 
REMARK       I    between atoms: C_6  and  N_12 
REMARK    5  A    between atoms: CB_8  and  CG_9 
REMARK    6  A    between atoms: CG_9  and  SD_10 
REMARK    7  A    between atoms: SD_10  and  CE_11 
REMARK    8  A    between atoms: N_12  and  CA_13 
REMARK    9  A    between atoms: CA_13  and  C_14 
REMARK   10  A    between atoms: CA_13  and  CB_16 
REMARK       I    between atoms: C_14  and  N_21 
REMARK   11  A    between atoms: CB_16  and  CG_17 
REMARK   12  A    between atoms: CG_17  and  CD_18 
REMARK   13  A    between atoms: N_21  and  CA_22 
REMARK   14  A    between atoms: CA_22  and  C_23 
REMARK   15  A    between atoms: CA_22  and  CB_25 
REMARK       I    between atoms: C_23  and  N_30 
REMARK   16  A    between atoms: CB_25  and  CG_26 
REMARK   17  A    between atoms: CG_26  and  CD_27 
REMARK   18  A    between atoms: N_30  and  CA_31 
REMARK   19  A    between atoms: CA_31  and  C_32 
REMARK   20  A    between atoms: CA_31  and  CB_34 
REMARK       I    between atoms: C_32  and  N_37 
REMARK   21  A    between atoms: CB_34  and  CG1_35 
REMARK   22  A    between atoms: CB_34  and  CG2_36 
REMARK   23  A    between atoms: N_37  and  CA_38 
REMARK   24  A    between atoms: CA_38  and  C_39 
REMARK   25  A    between atoms: CA_38  and  CB_41 
REMARK   26  A    between atoms: CB_41  and  CG_42 
ROOT
ATOM      1  CA  NON d   1     -19.506 -15.602 -12.293  0.00  0.00     0.090 C 
ATOM      2  H   NON d   1     -20.102 -16.303 -11.709  0.00  0.00     0.087 H 
ENDROOT
BRANCH   1   3
ATOM      3  N   NON d   1     -20.434 -14.793 -13.090  0.00  0.00    -0.346 N 
ATOM      4  C   NON d   1     -21.709 -14.605 -12.750  0.00  0.00     0.241 C 
ATOM      5  O   NON d   1     -22.212 -15.059 -11.720  0.00  0.00    -0.271 OA
ATOM      6  H   NON d   1     -20.088 -14.354 -13.943  0.00  0.00     0.163 HD
BRANCH   4   7
ATOM      7  CA  NON d   1     -22.542 -13.774 -13.726  0.00  0.00     0.090 C 
ATOM      8  H   NON d   1     -22.081 -13.880 -14.708  0.00  0.00     0.087 H 
BRANCH   7   9
ATOM      9  N   NON d   1     -23.916 -14.259 -13.843  0.00  0.00    -0.346 N 
ATOM     10  C   NON d   1     -24.348 -14.909 -14.921  0.00  0.00     0.241 C 
ATOM     11  O   NON d   1     -23.608 -15.255 -15.846  0.00  0.00    -0.271 OA
ATOM     12  H   NON d   1     -24.565 -14.094 -13.073  0.00  0.00     0.163 HD
BRANCH  10  13
ATOM     13  CA  NON d   1     -25.844 -15.221 -14.955  0.00  0.00     0.090 C 
ATOM     14  H   NON d   1     -26.357 -14.436 -14.400  0.00  0.00     0.087 H 
BRANCH  13  15
ATOM     15  N   NON d   1     -26.378 -15.200 -16.318  0.00  0.00    -0.348 N 
ATOM     16  C   NON d   1     -26.440 -14.085 -17.045  0.00  0.00     0.214 C 
ATOM     17  O   NON d   1     -27.168 -13.139 -16.744  0.00  0.00    -0.274 OA
ATOM     18  H   NON d   1     -26.715 -16.072 -16.727  0.00  0.00     0.163 HD
BRANCH  16  19
ATOM     19  CH3 NON d   1     -25.658 -14.108 -18.327  0.00  0.00    -0.003 C 
ATOM     20  H   NON d   1     -26.345 -14.049 -19.171  0.00  0.00     0.040 H 
ATOM     21  H   NON d   1     -24.977 -13.257 -18.351  0.00  0.00     0.040 H 
ATOM     22  H   NON d   1     -25.087 -15.034 -18.386  0.00  0.00     0.040 H 
ENDBRANCH  16  19
ENDBRANCH  13  15
BRANCH  13  23
ATOM     23  CB  NON d   1     -26.125 -16.566 -14.277  0.00  0.00    -0.030 C 
ATOM     24  H   NON d   1     -25.569 -16.577 -13.340  0.00  0.00     0.037 H 
ATOM     25  H   NON d   1     -25.832 -17.348 -14.978  0.00  0.00     0.037 H 
BRANCH  23  26
ATOM     26  CG  NON d   1     -27.594 -16.796 -13.933  0.00  0.00    -0.021 C 
ATOM     27  H   NON d   1     -28.114 -17.028 -14.862  0.00  0.00     0.049 H 
ATOM     28  H   NON d   1     -27.959 -15.895 -13.440  0.00  0.00     0.049 H 
BRANCH  26  29
ATOM     29  SD  NON d   1     -27.866 -18.177 -12.803  0.00  0.00    -0.173 SA
BRANCH  29  30
ATOM     30  CE  NON d   1     -27.369 -17.458 -11.237  0.00  0.00    -0.035 C 
ATOM     31  H   NON d   1     -26.326 -17.147 -11.296  0.00  0.00     0.041 H 
ATOM     32  H   NON d   1     -27.996 -16.593 -11.021  0.00  0.00     0.041 H 
ATOM     33  H   NON d   1     -27.484 -18.199 -10.446  0.00  0.00     0.041 H 
ENDBRANCH  29  30
ENDBRANCH  26  29
ENDBRANCH  23  26
ENDBRANCH  13  23
ENDBRANCH  10  13
ENDBRANCH   7   9
BRANCH   7  34
ATOM     34  CB  NON d   1     -22.528 -12.294 -13.321  0.00  0.00    -0.029 C 
ATOM     35  H   NON d   1     -21.487 -11.972 -13.340  0.00  0.00     0.037 H 
ATOM     36  H   NON d   1     -23.012 -12.229 -12.346  0.00  0.00     0.037 H 
BRANCH  34  37
ATOM     37  CG  NON d   1     -23.301 -11.356 -14.264  0.00  0.00     0.018 C 
ATOM     38  H   NON d   1     -23.212 -10.345 -13.865  0.00  0.00     0.049 H 
ATOM     39  H   NON d   1     -24.329 -11.716 -14.313  0.00  0.00     0.049 H 
BRANCH  37  40
ATOM     40  CD  NON d   1     -22.754 -11.336 -15.688  0.00  0.00     0.172 C 
ATOM     41  OE1 NON d   1     -21.528 -11.164 -15.868  0.00  0.00    -0.648 OA
ATOM     42  OE2 NON d   1     -23.559 -11.483 -16.632  0.00  0.00    -0.648 OA
ENDBRANCH  37  40
ENDBRANCH  34  37
ENDBRANCH   7  34
ENDBRANCH   4   7
ENDBRANCH   1   3
BRANCH   1  43
ATOM     43  C   NON d   1     -18.704 -14.751 -11.302  0.00  0.00     0.241 C 
ATOM     44  O   NON d   1     -18.979 -13.563 -11.132  0.00  0.00    -0.271 OA
ATOM     45  N   NON d   1     -17.722 -15.370 -10.647  0.00  0.00    -0.346 N 
ATOM     46  H   NON d   1     -17.564 -16.362 -10.826  0.00  0.00     0.163 HD
BRANCH  45  47
ATOM     47  CA  NON d   1     -16.859 -14.683  -9.679  0.00  0.00     0.092 C 
ATOM     48  H   NON d   1     -16.924 -13.628  -9.945  0.00  0.00     0.088 H 
BRANCH  47  49
ATOM     49  C   NON d   1     -15.401 -15.132  -9.771  0.00  0.00     0.241 C 
ATOM     50  O   NON d   1     -15.119 -16.320  -9.953  0.00  0.00    -0.271 OA
ATOM     51  N   NON d   1     -14.487 -14.171  -9.639  0.00  0.00    -0.344 N 
ATOM     52  H   NON d   1     -14.801 -13.207  -9.532  0.00  0.00     0.163 HD
BRANCH  51  53
ATOM     53  CA  NON d   1     -13.052 -14.447  -9.642  0.00  0.00     0.105 C 
ATOM     54  H   NON d   1     -12.923 -15.529  -9.626  0.00  0.00     0.090 H 
BRANCH  53  55
ATOM     55  C   NON d   1     -12.377 -13.871  -8.398  0.00  0.00     0.197 C 
ATOM     56  O   NON d   1     -12.219 -12.657  -8.252  0.00  0.00    -0.646 OA
ATOM     57  OXT NON d   1     -11.973 -14.611  -7.500  0.00  0.00    -0.646 OA
ENDBRANCH  53  55
BRANCH  53  58
ATOM     58  CB  NON d   1     -12.391 -13.903 -10.917  0.00  0.00     0.044 C 
ATOM     59  H   NON d   1     -11.314 -14.037 -10.818  0.00  0.00     0.053 H 
ATOM     60  H   NON d   1     -12.678 -12.857 -11.022  0.00  0.00     0.053 H 
BRANCH  58  61
ATOM     61  CG  NON d   1     -12.839 -14.637 -12.172  0.00  0.00     0.175 C 
ATOM     62  OD1 NON d   1     -14.031 -14.537 -12.536  0.00  0.00    -0.648 OA
ATOM     63  OD2 NON d   1     -11.992 -15.307 -12.802  0.00  0.00    -0.648 OA
ENDBRANCH  58  61
ENDBRANCH  53  58
ENDBRANCH  51  53
ENDBRANCH  47  49
BRANCH  47  64
ATOM     64  CB  NON d   1     -17.343 -14.870  -8.215  0.00  0.00    -0.033 C 
ATOM     65  H   NON d   1     -16.480 -14.753  -7.559  0.00  0.00     0.042 H 
BRANCH  64  66
ATOM     66  CG1 NON d   1     -18.359 -13.801  -7.837  0.00  0.00    -0.071 C 
ATOM     67  H   NON d   1     -17.901 -12.816  -7.932  0.00  0.00     0.028 H 
ATOM     68  H   NON d   1     -19.220 -13.868  -8.502  0.00  0.00     0.028 H 
ATOM     69  H   NON d   1     -18.681 -13.956  -6.807  0.00  0.00     0.028 H 
ENDBRANCH  64  66
BRANCH  64  70
ATOM     70  CG2 NON d   1     -17.896 -16.274  -7.989  0.00  0.00    -0.071 C 
ATOM     71  H   NON d   1     -18.740 -16.443  -8.658  0.00  0.00     0.028 H 
ATOM     72  H   NON d   1     -17.116 -17.008  -8.193  0.00  0.00     0.028 H 
ATOM     73  H   NON d   1     -18.226 -16.371  -6.955  0.00  0.00     0.028 H 
ENDBRANCH  64  70
ENDBRANCH  47  64
ENDBRANCH  45  47
ENDBRANCH   1  43
BRANCH   1  74
ATOM     74  CB  NON d   1     -18.561 -16.387 -13.213  0.00  0.00    -0.029 C 
ATOM     75  H   NON d   1     -17.848 -16.906 -12.572  0.00  0.00     0.037 H 
ATOM     76  H   NON d   1     -18.110 -15.668 -13.897  0.00  0.00     0.037 H 
BRANCH  74  77
ATOM     77  CG  NON d   1     -19.252 -17.448 -14.068  0.00  0.00     0.018 C 
ATOM     78  H   NON d   1     -19.973 -16.938 -14.707  0.00  0.00     0.049 H 
ATOM     79  H   NON d   1     -19.710 -18.169 -13.391  0.00  0.00     0.049 H 
BRANCH  77  80
ATOM     80  CD  NON d   1     -18.294 -18.211 -14.973  0.00  0.00     0.172 C 
ATOM     81  OE1 NON d   1     -17.063 -18.021 -14.860  0.00  0.00    -0.648 OA
ATOM     82  OE2 NON d   1     -18.779 -19.010 -15.802  0.00  0.00    -0.648 OA
ENDBRANCH  77  80
ENDBRANCH  74  77
ENDBRANCH   1  74
TORSDOF 26
