REMARK  11 active torsions:
REMARK  status: ('A' for Active; 'I' for Inactive)
REMARK    1  A    between atoms: C1_1  and  C2_2 
REMARK    2  A    between atoms: C3_3  and  C14_14 
REMARK    3  A    between atoms: C5_5  and  C7_7 
REMARK    4  A    between atoms: C14_14  and  O15_15 
REMARK    5  A    between atoms: O15_15  and  C16_16 
REMARK    6  A    between atoms: C20_20  and  C22_22 
REMARK    7  A    between atoms: C22_22  and  N23_23 
REMARK    8  A    between atoms: N23_23  and  C24_24 
REMARK       I    between atoms: N23_23  and  C28_28 
REMARK    9  A    between atoms: C24_24  and  C25_25 
REMARK   10  A    between atoms: C28_28  and  O30_30 
REMARK   11  A    between atoms: O30_30  and  C31_31 
ROOT
ATOM      1  C16 7HA d   1       2.793  13.970  -6.535  0.00  0.00     0.069 A 
ATOM      2  C17 7HA d   1       4.026  13.609  -5.981  0.00  0.00    -0.051 A 
ATOM      3  C18 7HA d   1       4.124  12.411  -5.298  0.00  0.00    -0.080 A 
ATOM      4  C19 7HA d   1       3.021  11.581  -5.152  0.00  0.00    -0.075 A 
ATOM      5  C20 7HA d   1       1.790  11.943  -5.683  0.00  0.00    -0.037 A 
ATOM      6  C21 7HA d   1       1.685  13.137  -6.385  0.00  0.00    -0.043 A 
ATOM      7  H   7HA d   1       4.894  14.261  -6.086  0.00  0.00     0.087 H 
ATOM      8  H   7HA d   1       5.081  12.114  -4.868  0.00  0.00     0.083 H 
ATOM      9  H   7HA d   1       3.122  10.637  -4.616  0.00  0.00     0.084 H 
ATOM     10  H   7HA d   1       0.729  13.425  -6.822  0.00  0.00     0.088 H 
ENDROOT
BRANCH   1  11
ATOM     11  O15 7HA d   1       2.681  15.110  -7.199  0.00  0.00    -0.345 OA
BRANCH  11  12
ATOM     12  C14 7HA d   1       3.769  15.774  -7.876  0.00  0.00     0.068 C 
ATOM     13  H   7HA d   1       4.332  16.375  -7.162  0.00  0.00     0.085 H 
ATOM     14  H   7HA d   1       4.431  15.031  -8.320  0.00  0.00     0.085 H 
BRANCH  12  15
ATOM     15  C3  7HA d   1       3.211  16.664  -8.957  0.00  0.00     0.090 A 
ATOM     16  C2  7HA d   1       1.937  17.245  -9.065  0.00  0.00     0.078 A 
ATOM     17  O6  7HA d   1       1.920  17.916 -10.167  0.00  0.00    -0.294 OA
ATOM     18  C5  7HA d   1       3.060  17.814 -10.778  0.00  0.00     0.180 A 
ATOM     19  N4  7HA d   1       3.894  17.049 -10.043  0.00  0.00    -0.224 NA
BRANCH  16  20
ATOM     20  C1  7HA d   1       0.775  17.140  -8.104  0.00  0.00    -0.029 C 
ATOM     21  H   7HA d   1       0.486  16.094  -7.998  0.00  0.00     0.036 H 
ATOM     22  H   7HA d   1       1.071  17.537  -7.133  0.00  0.00     0.036 H 
ATOM     23  H   7HA d   1      -0.068  17.713  -8.491  0.00  0.00     0.036 H 
ENDBRANCH  16  20
BRANCH  18  24
ATOM     24  C7  7HA d   1       3.488  18.462 -12.052  0.00  0.00     0.017 A 
ATOM     25  C8  7HA d   1       2.621  18.841 -13.083  0.00  0.00    -0.067 A 
ATOM     26  C9  7HA d   1       3.152  19.466 -14.212  0.00  0.00    -0.061 A 
ATOM     27  H   7HA d   1       1.550  18.651 -13.006  0.00  0.00     0.085 H 
ATOM     28  C10 7HA d   1       4.530  19.720 -14.287  0.00  0.00     0.034 A 
ATOM     29  H   7HA d   1       2.498  19.756 -15.034  0.00  0.00     0.086 H 
ATOM     30  C11 7HA d   1       5.384  19.356 -13.252  0.00  0.00    -0.061 A 
ATOM     31 CL13 7HA d   1       5.270  20.497 -15.656  0.00  0.00    -0.084 Cl
ATOM     32  C12 7HA d   1       4.853  18.737 -12.139  0.00  0.00    -0.067 A 
ATOM     33  H   7HA d   1       6.453  19.556 -13.319  0.00  0.00     0.086 H 
ATOM     34  H   7HA d   1       5.510  18.459 -11.315  0.00  0.00     0.085 H 
ENDBRANCH  18  24
ENDBRANCH  12  15
ENDBRANCH  11  12
ENDBRANCH   1  11
BRANCH   5  35
ATOM     35  C22 7HA d   1       0.628  11.005  -5.524  0.00  0.00     0.024 C 
ATOM     36  H   7HA d   1      -0.212  11.499  -5.035  0.00  0.00     0.071 H 
ATOM     37  H   7HA d   1       0.891  10.157  -4.892  0.00  0.00     0.071 H 
BRANCH  35  38
ATOM     38  N23 7HA d   1       0.271  10.568  -6.869  0.00  0.00    -0.314 N 
ATOM     39  C28 7HA d   1      -0.867  11.004  -7.407  0.00  0.00     0.363 C 
ATOM     40  O29 7HA d   1      -1.647  11.652  -6.733  0.00  0.00    -0.238 OA
BRANCH  38  41
ATOM     41  C24 7HA d   1       1.158   9.717  -7.668  0.00  0.00     0.080 C 
ATOM     42  H   7HA d   1       2.189   9.941  -7.394  0.00  0.00     0.081 H 
ATOM     43  H   7HA d   1       0.970   9.918  -8.723  0.00  0.00     0.081 H 
BRANCH  41  44
ATOM     44  C25 7HA d   1       0.905   8.253  -7.410  0.00  0.00     0.191 C 
ATOM     45  O26 7HA d   1       1.800   7.460  -7.635  0.00  0.00    -0.647 OA
ATOM     46  O27 7HA d   1      -0.267   7.829  -6.951  0.00  0.00    -0.647 OA
ENDBRANCH  41  44
ENDBRANCH  38  41
BRANCH  39  47
ATOM     47  O30 7HA d   1      -1.136  10.741  -8.681  0.00  0.00    -0.309 OA
BRANCH  47  48
ATOM     48  C31 7HA d   1      -2.069   9.679  -9.022  0.00  0.00     0.015 C 
ATOM     49  H   7HA d   1      -1.699   8.732  -8.629  0.00  0.00     0.067 H 
ATOM     50  H   7HA d   1      -3.043   9.899  -8.586  0.00  0.00     0.067 H 
ATOM     51  H   7HA d   1      -2.161   9.613 -10.106  0.00  0.00     0.067 H 
ENDBRANCH  47  48
ENDBRANCH  39  47
ENDBRANCH  35  38
ENDBRANCH   5  35
TORSDOF 11
