REMARK  12 active torsions:
REMARK  status: ('A' for Active; 'I' for Inactive)
REMARK    1  A    between atoms: C1_1  and  C2_2 
REMARK    2  A    between atoms: C5_5  and  O8_8 
REMARK    3  A    between atoms: O8_8  and  C9_9 
REMARK       I    between atoms: C9_9  and  N11_11 
REMARK    4  A    between atoms: N11_11  and  C12_12 
REMARK    5  A    between atoms: N11_11  and  C34_34 
REMARK    6  A    between atoms: C12_12  and  C13_13 
REMARK    7  A    between atoms: C17_17  and  O19_19 
REMARK    8  A    between atoms: O19_19  and  C20_20 
REMARK    9  A    between atoms: C20_20  and  C21_21 
REMARK   10  A    between atoms: C22_22  and  C33_33 
REMARK   11  A    between atoms: C24_24  and  C26_26 
REMARK   12  A    between atoms: C34_34  and  C35_35 
ROOT
ATOM      1  C13 NKS d   1      33.529  43.769  21.114  0.00  0.00    -0.037 A 
ATOM      2  C14 NKS d   1      34.696  43.121  21.516  0.00  0.00    -0.075 A 
ATOM      3  C15 NKS d   1      35.902  43.818  21.531  0.00  0.00    -0.080 A 
ATOM      4  C16 NKS d   1      35.927  45.155  21.151  0.00  0.00    -0.051 A 
ATOM      5  C17 NKS d   1      34.757  45.800  20.745  0.00  0.00     0.069 A 
ATOM      6  C18 NKS d   1      33.555  45.106  20.724  0.00  0.00    -0.043 A 
ATOM      7  H10 NKS d   1      34.665  42.080  21.816  0.00  0.00     0.084 H 
ATOM      8  H11 NKS d   1      36.815  43.321  21.837  0.00  0.00     0.083 H 
ATOM      9  H12 NKS d   1      36.863  45.702  21.170  0.00  0.00     0.087 H 
ATOM     10  H13 NKS d   1      32.644  45.600  20.407  0.00  0.00     0.088 H 
ENDROOT
BRANCH   1  11
ATOM     11  C12 NKS d   1      32.223  43.020  21.066  0.00  0.00     0.024 C 
ATOM     12  H8  NKS d   1      32.301  42.101  21.665  0.00  0.00     0.071 H 
ATOM     13  H9  NKS d   1      31.419  43.653  21.469  0.00  0.00     0.071 H 
BRANCH  11  14
ATOM     14  N11 NKS d   1      31.928  42.676  19.668  0.00  0.00    -0.314 N 
ATOM     15  C9  NKS d   1      30.921  43.270  19.012  0.00  0.00     0.368 C 
ATOM     16  O10 NKS d   1      30.662  42.866  17.890  0.00  0.00    -0.238 OA
BRANCH  15  17
ATOM     17  O8  NKS d   1      30.208  44.264  19.556  0.00  0.00    -0.261 OA
BRANCH  17  18
ATOM     18  C5  NKS d   1      29.596  45.227  18.856  0.00  0.00     0.081 A 
ATOM     19  C4  NKS d   1      28.678  44.941  17.839  0.00  0.00    -0.050 A 
ATOM     20  C3  NKS d   1      28.044  45.962  17.127  0.00  0.00    -0.075 A 
ATOM     21  H5  NKS d   1      28.455  43.908  17.599  0.00  0.00     0.087 H 
ATOM     22  C2  NKS d   1      28.316  47.292  17.440  0.00  0.00    -0.062 A 
ATOM     23  H4  NKS d   1      27.344  45.721  16.335  0.00  0.00     0.084 H 
ATOM     24  C7  NKS d   1      29.217  47.602  18.455  0.00  0.00    -0.075 A 
ATOM     25  C6  NKS d   1      29.847  46.568  19.152  0.00  0.00    -0.050 A 
ATOM     26  H7  NKS d   1      29.428  48.636  18.702  0.00  0.00     0.084 H 
ATOM     27  H6  NKS d   1      30.548  46.813  19.942  0.00  0.00     0.087 H 
BRANCH  22  28
ATOM     28  C1  NKS d   1      27.634  48.405  16.683  0.00  0.00    -0.051 C 
ATOM     29  H1  NKS d   1      26.963  47.975  15.925  0.00  0.00     0.033 H 
ATOM     30  H2  NKS d   1      28.392  49.031  16.189  0.00  0.00     0.033 H 
ATOM     31  H3  NKS d   1      27.050  49.021  17.383  0.00  0.00     0.033 H 
ENDBRANCH  22  28
ENDBRANCH  17  18
ENDBRANCH  15  17
BRANCH  14  32
ATOM     32  C34 NKS d   1      32.732  41.672  18.952  0.00  0.00     0.080 C 
ATOM     33  H23 NKS d   1      33.794  41.853  19.172  0.00  0.00     0.081 H 
ATOM     34  H24 NKS d   1      32.556  41.788  17.872  0.00  0.00     0.081 H 
BRANCH  32  35
ATOM     35  C35 NKS d   1      32.394  40.247  19.345  0.00  0.00     0.191 C 
ATOM     36  O36 NKS d   1      33.202  39.341  19.178  0.00  0.00    -0.647 OA
ATOM     37  O37 NKS d   1      31.211  39.947  19.871  0.00  0.00    -0.647 OA
ENDBRANCH  32  35
ENDBRANCH  14  32
ENDBRANCH  11  14
ENDBRANCH   1  11
BRANCH   5  38
ATOM     38  O19 NKS d   1      34.766  47.078  20.370  0.00  0.00    -0.345 OA
BRANCH  38  39
ATOM     39  C20 NKS d   1      35.838  47.570  19.537  0.00  0.00     0.068 C 
ATOM     40  H14 NKS d   1      36.252  46.728  18.963  0.00  0.00     0.085 H 
ATOM     41  H15 NKS d   1      36.620  47.993  20.184  0.00  0.00     0.085 H 
BRANCH  39  42
ATOM     42  C21 NKS d   1      35.384  48.636  18.569  0.00  0.00     0.090 A 
ATOM     43  C22 NKS d   1      34.263  49.483  18.598  0.00  0.00     0.078 A 
ATOM     44  O23 NKS d   1      34.329  50.215  17.537  0.00  0.00    -0.294 OA
ATOM     45  C24 NKS d   1      35.379  49.915  16.836  0.00  0.00     0.180 A 
ATOM     46  N25 NKS d   1      36.067  48.937  17.444  0.00  0.00    -0.224 NA
BRANCH  43  47
ATOM     47  C33 NKS d   1      33.136  49.583  19.609  0.00  0.00    -0.029 C 
ATOM     48  H20 NKS d   1      32.432  50.368  19.297  0.00  0.00     0.036 H 
ATOM     49  H21 NKS d   1      33.550  49.834  20.596  0.00  0.00     0.036 H 
ATOM     50  H22 NKS d   1      32.609  48.619  19.667  0.00  0.00     0.036 H 
ENDBRANCH  43  47
BRANCH  45  51
ATOM     51  C26 NKS d   1      35.753  50.599  15.577  0.00  0.00     0.017 A 
ATOM     52  C27 NKS d   1      36.977  50.344  14.960  0.00  0.00    -0.067 A 
ATOM     53  C28 NKS d   1      37.297  51.030  13.788  0.00  0.00    -0.061 A 
ATOM     54  H16 NKS d   1      37.669  49.625  15.384  0.00  0.00     0.085 H 
ATOM     55  C29 NKS d   1      36.387  51.949  13.261  0.00  0.00     0.034 A 
ATOM     56  H17 NKS d   1      38.244  50.851  13.291  0.00  0.00     0.086 H 
ATOM     57  C30 NKS d   1      35.170  52.201  13.887  0.00  0.00    -0.061 A 
ATOM     58 CL32 NKS d   1      36.766  52.812  11.807  0.00  0.00    -0.084 Cl
ATOM     59  C31 NKS d   1      34.852  51.524  15.056  0.00  0.00    -0.067 A 
ATOM     60  H18 NKS d   1      34.477  52.920  13.465  0.00  0.00     0.086 H 
ATOM     61  H19 NKS d   1      33.911  51.714  15.559  0.00  0.00     0.085 H 
ENDBRANCH  45  51
ENDBRANCH  39  42
ENDBRANCH  38  39
ENDBRANCH   5  38
TORSDOF 12
