REMARK  9 active torsions:
REMARK  status: ('A' for Active; 'I' for Inactive)
REMARK    1  A    between atoms: C5_24  and  C22_2 
REMARK       I    between atoms: C7_3  and  N2_4 
REMARK    2  A    between atoms: C8_14  and  C7_3 
REMARK    3  A    between atoms: N2_4  and  C11_5 
REMARK    4  A    between atoms: C11_5  and  C20_9 
REMARK    5  A    between atoms: C9_6  and  C24_17 
REMARK    6  A    between atoms: C1_25  and  N5_21 
REMARK    7  A    between atoms: C4_29  and  C1_25 
REMARK    8  A    between atoms: C21_26  and  O1_32 
REMARK    9  A    between atoms: O1_32  and  C13_33 
ROOT
ATOM      1  C3  3KE d   1      82.098   9.650  35.779  0.00  0.00    -0.069 A 
ATOM      2  C22 3KE d   1      82.722  10.858  36.009  0.00  0.00     0.016 A 
ATOM      3  C2  3KE d   1      82.855   8.529  35.503  0.00  0.00    -0.081 A 
ATOM      4  C23 3KE d   1      84.095  10.938  35.965  0.00  0.00    -0.054 A 
ATOM      5  C8  3KE d   1      84.838   9.815  35.691  0.00  0.00     0.033 A 
ATOM      6  C6  3KE d   1      84.234   8.600  35.458  0.00  0.00    -0.068 A 
ATOM      7  H   3KE d   1      81.011   9.581  35.815  0.00  0.00     0.085 H 
ATOM      8  H   3KE d   1      82.359   7.576  35.318  0.00  0.00     0.083 H 
ATOM      9  H   3KE d   1      84.592  11.891  36.147  0.00  0.00     0.086 H 
ATOM     10  H   3KE d   1      84.831   7.714  35.243  0.00  0.00     0.085 H 
ENDROOT
BRANCH   2  11
ATOM     11  C5  3KE d   1      81.990  12.056  36.311  0.00  0.00     0.198 A 
ATOM     12  N1  3KE d   1      80.685  12.245  36.068  0.00  0.00    -0.136 NA
ATOM     13  N5  3KE d   1      80.564  13.489  36.552  0.00  0.00    -0.187 N 
ATOM     14  N3  3KE d   1      81.671  14.057  37.055  0.00  0.00     0.025 NA
ATOM     15  N4  3KE d   1      82.607  13.131  36.902  0.00  0.00    -0.136 NA
BRANCH  13  16
ATOM     16  C1  3KE d   1      79.303  14.192  36.528  0.00  0.00     0.055 C 
ATOM     17  H   3KE d   1      79.099  14.597  37.519  0.00  0.00     0.076 H 
ATOM     18  H   3KE d   1      78.512  13.501  36.238  0.00  0.00     0.076 H 
BRANCH  16  19
ATOM     19  C4  3KE d   1      79.363  15.311  35.543  0.00  0.00    -0.037 A 
ATOM     20  C10 3KE d   1      78.499  16.373  35.705  0.00  0.00    -0.073 A 
ATOM     21  C15 3KE d   1      78.506  17.431  34.821  0.00  0.00    -0.050 A 
ATOM     22  H   3KE d   1      77.802  16.376  36.543  0.00  0.00     0.084 H 
ATOM     23  C21 3KE d   1      79.394  17.422  33.759  0.00  0.00     0.068 A 
ATOM     24  H   3KE d   1      77.819  18.266  34.957  0.00  0.00     0.087 H 
ATOM     25  C17 3KE d   1      80.267  16.368  33.589  0.00  0.00    -0.050 A 
ATOM     26  C19 3KE d   1      80.251  15.311  34.480  0.00  0.00    -0.073 A 
ATOM     27  H   3KE d   1      80.968  16.368  32.754  0.00  0.00     0.087 H 
ATOM     28  H   3KE d   1      80.939  14.476  34.346  0.00  0.00     0.084 H 
BRANCH  23  29
ATOM     29  O1  3KE d   1      79.433  18.467  32.837  0.00  0.00    -0.356 OA
BRANCH  29  30
ATOM     30  C13 3KE d   1      78.298  19.307  33.024  0.00  0.00     0.010 C 
ATOM     31  H   3KE d   1      77.388  18.725  32.876  0.00  0.00     0.066 H 
ATOM     32  H   3KE d   1      78.311  19.713  34.035  0.00  0.00     0.066 H 
ATOM     33  H   3KE d   1      78.329  20.124  32.303  0.00  0.00     0.066 H 
ENDBRANCH  29  30
ENDBRANCH  23  29
ENDBRANCH  16  19
ENDBRANCH  13  16
ENDBRANCH   2  11
BRANCH   5  34
ATOM     34  C7  3KE d   1      86.295   9.982  35.658  0.00  0.00     0.251 C 
ATOM     35  N2  3KE d   1      86.995   8.994  35.016  0.00  0.00    -0.353 N 
ATOM     36  H   3KE d   1      86.531   8.173  34.626  0.00  0.00     0.163 HD
ATOM     37  O3  3KE d   1      86.799  10.975  36.169  0.00  0.00    -0.268 OA
BRANCH  35  38
ATOM     38  C11 3KE d   1      88.426   9.178  34.921  0.00  0.00     0.019 C 
ATOM     39  H   3KE d   1      88.890   8.193  34.980  0.00  0.00     0.071 H 
ATOM     40  H   3KE d   1      88.727   9.844  35.729  0.00  0.00     0.071 H 
BRANCH  38  41
ATOM     41  C20 3KE d   1      88.855   9.803  33.637  0.00  0.00    -0.040 A 
ATOM     42  C14 3KE d   1      89.765   9.139  32.849  0.00  0.00    -0.074 A 
ATOM     43  C12 3KE d   1      90.186   9.685  31.657  0.00  0.00    -0.066 A 
ATOM     44  H   3KE d   1      90.156   8.174  33.170  0.00  0.00     0.084 H 
ATOM     45  C9  3KE d   1      89.700  10.903  31.240  0.00  0.00     0.040 A 
ATOM     46  H   3KE d   1      90.908   9.150  31.041  0.00  0.00     0.085 H 
ATOM     47  C18 3KE d   1      88.787  11.571  32.027  0.00  0.00    -0.066 A 
ATOM     48  C16 3KE d   1      88.367  11.024  33.221  0.00  0.00    -0.074 A 
ATOM     49  H   3KE d   1      88.395  12.536  31.704  0.00  0.00     0.085 H 
ATOM     50  H   3KE d   1      87.646  11.559  33.839  0.00  0.00     0.084 H 
BRANCH  45  51
ATOM     51  C24 3KE d   1      90.169  11.470  29.961  0.00  0.00     0.209 C 
ATOM     52  O4  3KE d   1      90.181  12.730  29.851  0.00  0.00    -0.644 OA
ATOM     53  O5  3KE d   1      90.528  10.642  29.080  0.00  0.00    -0.644 OA
ENDBRANCH  45  51
ENDBRANCH  38  41
ENDBRANCH  35  38
ENDBRANCH   5  34
TORSDOF 9
