REMARK  5 active torsions:
REMARK  status: ('A' for Active; 'I' for Inactive)
REMARK    1  A    between atoms: N_1  and  CA_2 
REMARK    2  A    between atoms: CA_2  and  C_3 
REMARK    3  A    between atoms: CA_2  and  CB_5 
REMARK    4  A    between atoms: CB_5  and  CG_6 
REMARK    5  A    between atoms: CG_6  and  ND_7 
ROOT
ATOM      1  CB  DAB d   1     -50.073  47.043   8.263  0.00  0.00    -0.007 C 
ATOM      2  H5  DAB d   1     -50.649  46.325   7.661  0.00  0.00     0.039 H 
ATOM      3  H6  DAB d   1     -50.678  47.946   8.435  0.00  0.00     0.039 H 
ENDROOT
BRANCH   1   4
ATOM      4  CA  DAB d   1     -48.758  47.426   7.510  0.00  0.00     0.184 C 
ATOM      5  H4  DAB d   1     -48.132  48.013   8.198  0.00  0.00     0.101 H 
BRANCH   4   6
ATOM      6  N   DAB d   1     -49.058  48.276   6.295  0.00  0.00    -0.065 N 
ATOM      7  H1  DAB d   1     -49.578  49.092   6.576  0.00  0.00     0.275 HD
ATOM      8  H2  DAB d   1     -49.602  47.741   5.637  0.00  0.00     0.275 HD
ATOM      9  H3  DAB d   1     -48.193  48.561   5.863  0.00  0.00     0.275 HD
ENDBRANCH   4   6
BRANCH   4  10
ATOM     10  C   DAB d   1     -47.949  46.157   7.072  0.00  0.00     0.204 C 
ATOM     11  O   DAB d   1     -48.297  45.663   6.022  0.00  0.00    -0.646 OA
ATOM     12  OXT DAB d   1     -47.002  45.748   7.721  0.00  0.00    -0.646 OA
ENDBRANCH   4  10
ENDBRANCH   1   4
BRANCH   1  13
ATOM     13  CG  DAB d   1     -49.691  46.391   9.642  0.00  0.00     0.082 C 
ATOM     14  H7  DAB d   1     -50.579  46.439  10.290  0.00  0.00     0.075 H 
ATOM     15  H8  DAB d   1     -48.883  46.993  10.082  0.00  0.00     0.075 H 
BRANCH  13  16
ATOM     16  ND  DAB d   1     -49.228  44.962   9.612  0.00  0.00    -0.079 N 
ATOM     17  H9  DAB d   1     -49.014  44.658  10.549  0.00  0.00     0.274 HD
ATOM     18  H10 DAB d   1     -48.403  44.888   9.038  0.00  0.00     0.274 HD
ATOM     19  H11 DAB d   1     -49.957  44.381   9.229  0.00  0.00     0.274 HD
ENDBRANCH  13  16
ENDBRANCH   1  13
TORSDOF 5
