REMARK  7 active torsions:
REMARK  status: ('A' for Active; 'I' for Inactive)
REMARK    1  A    between atoms: C2_2  and  C7_7 
REMARK    2  A    between atoms: C5_5  and  C10_10 
REMARK    3  A    between atoms: C10_10  and  N11_11 
REMARK    4  A    between atoms: C14_14  and  C16_16 
REMARK    5  A    between atoms: C18_18  and  C22_22 
REMARK       I    between atoms: C22_22  and  N23_23 
REMARK    6  A    between atoms: N23_23  and  C24_24 
REMARK    7  A    between atoms: C24_24  and  C25_25 
ROOT
ATOM      1  C16 3EJ d   1      44.085  22.429  19.445  0.00  0.00     0.018 A 
ATOM      2  C17 3EJ d   1      44.911  23.496  19.733  0.00  0.00    -0.036 A 
ATOM      3  C18 3EJ d   1      44.389  24.771  19.693  0.00  0.00     0.124 A 
ATOM      4  N19 3EJ d   1      43.121  25.056  19.370  0.00  0.00    -0.255 NA
ATOM      5  C20 3EJ d   1      42.349  23.992  19.102  0.00  0.00     0.004 A 
ATOM      6  C21 3EJ d   1      42.768  22.679  19.125  0.00  0.00    -0.052 A 
ATOM      7  H   3EJ d   1      45.958  23.333  19.988  0.00  0.00     0.088 H 
ATOM      8  H   3EJ d   1      41.307  24.181  18.845  0.00  0.00     0.114 H 
ATOM      9  H   3EJ d   1      42.080  21.865  18.898  0.00  0.00     0.087 H 
ENDROOT
BRANCH   1  10
ATOM     10  C14 3EJ d   1      44.647  21.104  19.431  0.00  0.00     0.198 A 
ATOM     11  N13 3EJ d   1      45.828  20.823  20.062  0.00  0.00    -0.136 NA
ATOM     12  N12 3EJ d   1      46.117  19.555  19.820  0.00  0.00     0.025 NA
ATOM     13  N11 3EJ d   1      45.094  19.147  19.068  0.00  0.00    -0.187 N 
ATOM     14  N15 3EJ d   1      44.145  20.054  18.774  0.00  0.00    -0.136 NA
BRANCH  13  15
ATOM     15  C10 3EJ d   1      45.065  17.782  18.586  0.00  0.00     0.055 C 
ATOM     16  H   3EJ d   1      45.587  17.154  19.308  0.00  0.00     0.076 H 
ATOM     17  H   3EJ d   1      44.023  17.485  18.466  0.00  0.00     0.076 H 
BRANCH  15  18
ATOM     18  C5  3EJ d   1      45.748  17.642  17.263  0.00  0.00    -0.037 A 
ATOM     19  C4  3EJ d   1      45.560  16.465  16.573  0.00  0.00    -0.074 A 
ATOM     20  C3  3EJ d   1      46.151  16.259  15.347  0.00  0.00    -0.066 A 
ATOM     21  H   3EJ d   1      44.933  15.684  17.005  0.00  0.00     0.084 H 
ATOM     22  C2  3EJ d   1      46.949  17.238  14.799  0.00  0.00     0.040 A 
ATOM     23  H   3EJ d   1      45.988  15.324  14.812  0.00  0.00     0.085 H 
ATOM     24  C1  3EJ d   1      47.146  18.420  15.483  0.00  0.00    -0.066 A 
ATOM     25  C6  3EJ d   1      46.544  18.623  16.708  0.00  0.00    -0.074 A 
ATOM     26  H   3EJ d   1      47.780  19.196  15.054  0.00  0.00     0.085 H 
ATOM     27  H   3EJ d   1      46.698  19.562  17.239  0.00  0.00     0.084 H 
BRANCH  22  28
ATOM     28  C7  3EJ d   1      47.567  16.988  13.482  0.00  0.00     0.209 C 
ATOM     29  O8  3EJ d   1      48.732  17.418  13.304  0.00  0.00    -0.644 OA
ATOM     30  O9  3EJ d   1      46.867  16.357  12.641  0.00  0.00    -0.644 OA
ENDBRANCH  22  28
ENDBRANCH  15  18
ENDBRANCH  13  15
ENDBRANCH   1  10
BRANCH   3  31
ATOM     31  C22 3EJ d   1      45.301  25.902  19.982  0.00  0.00     0.270 C 
ATOM     32  N23 3EJ d   1      44.774  27.129  19.683  0.00  0.00    -0.351 N 
ATOM     33  H   3EJ d   1      43.817  27.186  19.336  0.00  0.00     0.163 HD
ATOM     34  O26 3EJ d   1      46.439  25.707  20.387  0.00  0.00    -0.266 OA
BRANCH  32  35
ATOM     35  C24 3EJ d   1      45.538  28.347  19.846  0.00  0.00     0.019 C 
ATOM     36  H   3EJ d   1      46.031  28.282  20.816  0.00  0.00     0.071 H 
ATOM     37  H   3EJ d   1      44.837  29.175  19.741  0.00  0.00     0.071 H 
BRANCH  35  38
ATOM     38  C25 3EJ d   1      46.609  28.559  18.832  0.00  0.00    -0.038 A 
ATOM     39  C27 3EJ d   1      46.912  27.618  17.862  0.00  0.00    -0.075 A 
ATOM     40  C28 3EJ d   1      47.912  27.844  16.942  0.00  0.00    -0.080 A 
ATOM     41  H   3EJ d   1      46.351  26.684  17.826  0.00  0.00     0.084 H 
ATOM     42  C29 3EJ d   1      48.633  29.019  16.970  0.00  0.00    -0.046 A 
ATOM     43  H   3EJ d   1      48.135  27.090  16.187  0.00  0.00     0.083 H 
ATOM     44  C30 3EJ d   1      48.319  29.947  17.938  0.00  0.00     0.117 A 
ATOM     45  H   3EJ d   1      49.427  29.208  16.248  0.00  0.00     0.088 H 
ATOM     46  C31 3EJ d   1      47.321  29.736  18.862  0.00  0.00    -0.038 A 
ATOM     47  F32 3EJ d   1      48.994  31.098  17.985  0.00  0.00    -0.206 F 
ATOM     48  H   3EJ d   1      47.096  30.495  19.611  0.00  0.00     0.089 H 
ENDBRANCH  35  38
ENDBRANCH  32  35
ENDBRANCH   3  31
TORSDOF 7
