REMARK  7 active torsions:
REMARK  status: ('A' for Active; 'I' for Inactive)
REMARK    1  A    between atoms: C6_6  and  C14_11 
REMARK    2  A    between atoms: C7_7  and  C10_10 
REMARK    3  A    between atoms: C15_12  and  N16_13 
REMARK    4  A    between atoms: N25_22  and  C26_23 
REMARK    5  A    between atoms: C29_26  and  P36_29 
REMARK    6  A    between atoms: P36_29  and  C37_30 
REMARK    7  A    between atoms: P36_29  and  C41_31 
ROOT
ATOM      1  N16 B90 d   1      34.792  -9.902 -23.051  0.00  0.00    -0.299 N 
ATOM      2  C17 B90 d   1      34.026 -10.510 -23.991  0.00  0.00     0.072 A 
ATOM      3  N18 B90 d   1      34.387 -10.168 -25.233  0.00  0.00    -0.236 NA
ATOM      4  C19 B90 d   1      35.456  -9.282 -25.091  0.00  0.00     0.150 A 
ATOM      5  C20 B90 d   1      35.713  -9.100 -23.707  0.00  0.00     0.169 A 
ATOM      6  C21 B90 d   1      36.265  -8.569 -25.962  0.00  0.00     0.162 A 
ATOM      7  N22 B90 d   1      37.264  -7.744 -25.494  0.00  0.00    -0.222 NA
ATOM      8  C23 B90 d   1      37.439  -7.635 -24.144  0.00  0.00     0.091 A 
ATOM      9  N24 B90 d   1      36.700  -8.289 -23.235  0.00  0.00    -0.221 NA
ATOM     10  N25 B90 d   1      36.039  -8.725 -27.298  0.00  0.00    -0.339 N 
ATOM     11  H10 B90 d   1      33.212 -11.196 -23.762  0.00  0.00     0.144 H 
ATOM     12  H11 B90 d   1      38.224  -6.979 -23.785  0.00  0.00     0.146 H 
ATOM     13  H12 B90 d   1      35.245  -9.334 -27.544  0.00  0.00     0.167 HD
ENDROOT
BRANCH  10  14
ATOM     14  C26 B90 d   1      36.724  -8.182 -28.370  0.00  0.00     0.033 A 
ATOM     15  C27 B90 d   1      36.184  -8.410 -29.667  0.00  0.00    -0.056 A 
ATOM     16  C28 B90 d   1      36.814  -7.876 -30.810  0.00  0.00    -0.067 A 
ATOM     17  H13 B90 d   1      35.281  -8.999 -29.777  0.00  0.00     0.086 H 
ATOM     18  C29 B90 d   1      37.986  -7.112 -30.678  0.00  0.00     0.004 A 
ATOM     19  H14 B90 d   1      36.393  -8.055 -31.793  0.00  0.00     0.085 H 
ATOM     20  C30 B90 d   1      38.547  -6.880 -29.398  0.00  0.00    -0.067 A 
ATOM     21  C31 B90 d   1      37.922  -7.411 -28.247  0.00  0.00    -0.056 A 
ATOM     22  H15 B90 d   1      39.455  -6.296 -29.302  0.00  0.00     0.085 H 
ATOM     23  H16 B90 d   1      38.352  -7.233 -27.268  0.00  0.00     0.086 H 
BRANCH  18  24
ATOM     24  P36 B90 d   1      38.744  -6.426 -32.184  0.00  0.00     0.101 P 
ATOM     25  O45 B90 d   1      38.847  -7.469 -33.217  0.00  0.00    -0.318 OA
BRANCH  24  26
ATOM     26  C37 B90 d   1      40.419  -5.736 -31.772  0.00  0.00    -0.022 C 
ATOM     27  H17 B90 d   1      40.878  -5.321 -32.681  0.00  0.00     0.038 H 
ATOM     28  H18 B90 d   1      41.057  -6.537 -31.372  0.00  0.00     0.038 H 
ATOM     29  H19 B90 d   1      40.313  -4.941 -31.019  0.00  0.00     0.038 H 
ENDBRANCH  24  26
BRANCH  24  30
ATOM     30  C41 B90 d   1      37.800  -4.963 -32.803  0.00  0.00    -0.022 C 
ATOM     31  H20 B90 d   1      36.781  -5.273 -33.077  0.00  0.00     0.038 H 
ATOM     32  H21 B90 d   1      38.306  -4.547 -33.687  0.00  0.00     0.038 H 
ATOM     33  H22 B90 d   1      37.751  -4.198 -32.014  0.00  0.00     0.038 H 
ENDBRANCH  24  30
ENDBRANCH  18  24
ENDBRANCH  10  14
BRANCH   1  34
ATOM     34  C15 B90 d   1      34.653 -10.066 -21.591  0.00  0.00    -0.011 C 
ATOM     35  C14 B90 d   1      35.710 -10.277 -20.786  0.00  0.00    -0.056 C 
ATOM     36  H8  B90 d   1      36.710 -10.225 -21.215  0.00  0.00     0.086 H 
ATOM     37  H9  B90 d   1      33.659 -10.014 -21.149  0.00  0.00     0.112 H 
BRANCH  35  38
ATOM     38  C6  B90 d   1      35.573 -10.579 -19.329  0.00  0.00    -0.015 A 
ATOM     39  C3  B90 d   1      35.080  -9.595 -18.445  0.00  0.00     0.022 A 
ATOM     40  C2  B90 d   1      34.623  -8.221 -18.631  0.00  0.00     0.009 A 
ATOM     41  C4  B90 d   1      34.961  -9.903 -17.040  0.00  0.00     0.089 A 
ATOM     42  N1  B90 d   1      34.275  -7.803 -17.423  0.00  0.00    -0.288 N 
ATOM     43  H2  B90 d   1      34.578  -7.660 -19.563  0.00  0.00     0.115 H 
ATOM     44  N5  B90 d   1      34.464  -8.754 -16.500  0.00  0.00    -0.175 NA
ATOM     45  H1  B90 d   1      33.905  -6.864 -17.219  0.00  0.00     0.188 HD
ATOM     46  C9  B90 d   1      35.319 -11.143 -16.545  0.00  0.00    -0.052 A 
ATOM     47  C8  B90 d   1      35.812 -12.137 -17.422  0.00  0.00    -0.074 A 
ATOM     48  H4  B90 d   1      35.222 -11.353 -15.486  0.00  0.00     0.087 H 
ATOM     49  C7  B90 d   1      35.943 -11.876 -18.816  0.00  0.00    -0.051 A 
ATOM     50  H3  B90 d   1      36.093 -13.107 -17.029  0.00  0.00     0.084 H 
BRANCH  49  51
ATOM     51  C10 B90 d   1      36.469 -12.969 -19.713  0.00  0.00    -0.050 C 
ATOM     52  H5  B90 d   1      36.507 -12.605 -20.750  0.00  0.00     0.033 H 
ATOM     53  H6  B90 d   1      35.803 -13.843 -19.655  0.00  0.00     0.033 H 
ATOM     54  H7  B90 d   1      37.480 -13.256 -19.388  0.00  0.00     0.033 H 
ENDBRANCH  49  51
ENDBRANCH  35  38
ENDBRANCH   1  34
TORSDOF 7
