REMARK  6 active torsions:
REMARK  status: ('A' for Active; 'I' for Inactive)
REMARK    1  A    between atoms: C5_5  and  C10_10 
REMARK    2  A    between atoms: C7_7  and  C20_20 
REMARK    3  A    between atoms: C10_10  and  C11_11 
REMARK    4  A    between atoms: C11_11  and  C12_12 
REMARK    5  A    between atoms: C22_22  and  C26_26 
REMARK    6  A    between atoms: C25_25  and  C29_29 
REMARK       I    between atoms: C26_26  and  N27_27 
ROOT
ATOM      1  C1  L9G d   1      35.048  39.446  19.700  0.00  0.00    -0.036 A 
ATOM      2  C2  L9G d   1      34.789  39.755  21.172  0.00  0.00     0.157 A 
ATOM      3  N3  L9G d   1      34.638  38.799  22.079  0.00  0.00    -0.287 N 
ATOM      4  C4  L9G d   1      34.720  37.376  21.720  0.00  0.00    -0.005 A 
ATOM      5  C5  L9G d   1      34.952  37.097  20.387  0.00  0.00    -0.042 A 
ATOM      6  C6  L9G d   1      35.099  38.087  19.432  0.00  0.00    -0.072 A 
ATOM      7  C7  L9G d   1      34.423  39.394  23.306  0.00  0.00     0.168 A 
ATOM      8  N8  L9G d   1      34.667  40.923  21.797  0.00  0.00    -0.130 NA
ATOM      9  N9  L9G d   1      34.432  40.664  23.119  0.00  0.00    -0.129 NA
ATOM     10  H1  L9G d   1      35.179  40.214  18.939  0.00  0.00     0.089 H 
ATOM     11  H2  L9G d   1      34.605  36.587  22.462  0.00  0.00     0.113 H 
ATOM     12  H3  L9G d   1      35.266  37.778  18.401  0.00  0.00     0.084 H 
ENDROOT
BRANCH   7  13
ATOM     13  C20 L9G d   1      34.182  38.819  24.661  0.00  0.00     0.019 A 
ATOM     14  C21 L9G d   1      35.079  39.197  25.636  0.00  0.00    -0.053 A 
ATOM     15  C22 L9G d   1      34.894  38.798  26.941  0.00  0.00     0.032 A 
ATOM     16  H11 L9G d   1      35.934  39.811  25.375  0.00  0.00     0.086 H 
ATOM     17  C23 L9G d   1      33.824  38.013  27.304  0.00  0.00    -0.067 A 
ATOM     18  C24 L9G d   1      32.930  37.615  26.314  0.00  0.00    -0.075 A 
ATOM     19  H12 L9G d   1      33.681  37.712  28.335  0.00  0.00     0.085 H 
ATOM     20  C25 L9G d   1      33.100  38.024  24.999  0.00  0.00    -0.048 A 
ATOM     21  H13 L9G d   1      32.092  36.978  26.573  0.00  0.00     0.084 H 
BRANCH  15  22
ATOM     22  C26 L9G d   1      35.920  39.267  27.901  0.00  0.00     0.249 C 
ATOM     23  N27 L9G d   1      35.807  38.743  29.158  0.00  0.00    -0.366 N 
ATOM     24  H14 L9G d   1      36.459  39.006  29.870  0.00  0.00     0.159 HD
ATOM     25  H15 L9G d   1      35.073  38.097  29.366  0.00  0.00     0.159 HD
ATOM     26  O28 L9G d   1      36.769  40.065  27.517  0.00  0.00    -0.268 OA
ENDBRANCH  15  22
BRANCH  20  27
ATOM     27  C29 L9G d   1      32.082  37.607  23.975  0.00  0.00    -0.050 C 
ATOM     28  H16 L9G d   1      32.364  38.012  22.992  0.00  0.00     0.033 H 
ATOM     29  H17 L9G d   1      31.093  37.995  24.262  0.00  0.00     0.033 H 
ATOM     30  H18 L9G d   1      32.044  36.509  23.922  0.00  0.00     0.033 H 
ENDBRANCH  20  27
ENDBRANCH   7  13
BRANCH   5  31
ATOM     31  C10 L9G d   1      35.033  35.642  20.003  0.00  0.00    -0.036 C 
ATOM     32  H4  L9G d   1      34.434  35.490  19.093  0.00  0.00     0.040 H 
ATOM     33  H5  L9G d   1      34.611  35.043  20.824  0.00  0.00     0.040 H 
BRANCH  31  34
ATOM     34  C11 L9G d   1      36.450  35.153  19.732  0.00  0.00    -0.034 C 
ATOM     35  H6  L9G d   1      36.424  34.064  19.576  0.00  0.00     0.040 H 
ATOM     36  H7  L9G d   1      37.076  35.383  20.607  0.00  0.00     0.040 H 
BRANCH  34  37
ATOM     37  C12 L9G d   1      37.058  35.798  18.522  0.00  0.00    -0.019 A 
ATOM     38  C13 L9G d   1      38.221  36.536  18.637  0.00  0.00     0.125 A 
ATOM     39  C14 L9G d   1      38.808  37.131  17.557  0.00  0.00    -0.008 A 
ATOM     40  F18 L9G d   1      38.832  36.690  19.811  0.00  0.00    -0.205 F 
ATOM     41  C15 L9G d   1      38.219  36.992  16.327  0.00  0.00     0.119 A 
ATOM     42  H8  L9G d   1      39.722  37.702  17.670  0.00  0.00     0.093 H 
ATOM     43  C16 L9G d   1      37.060  36.265  16.173  0.00  0.00    -0.045 A 
ATOM     44  F19 L9G d   1      38.807  37.597  15.298  0.00  0.00    -0.206 F 
ATOM     45  C17 L9G d   1      36.483  35.655  17.271  0.00  0.00    -0.071 A 
ATOM     46  H9  L9G d   1      36.602  36.171  15.195  0.00  0.00     0.088 H 
ATOM     47  H10 L9G d   1      35.581  35.065  17.152  0.00  0.00     0.084 H 
ENDBRANCH  34  37
ENDBRANCH  31  34
ENDBRANCH   5  31
TORSDOF 6
