REMARK  11 active torsions:
REMARK  status: ('A' for Active; 'I' for Inactive)
REMARK    1  A    between atoms: C3_8  and  N1_3 
REMARK       I    between atoms: N2_7  and  C12_24 
REMARK    2  A    between atoms: C13_25  and  N2_7 
REMARK    3  A    between atoms: C4_11  and  C3_8 
REMARK    4  A    between atoms: C15_27  and  N3_10 
REMARK    5  A    between atoms: C5_13  and  C4_11 
REMARK    6  A    between atoms: C6_15  and  C11_23 
REMARK    7  A    between atoms: N8_20  and  C24_34 
REMARK    8  A    between atoms: C30_40  and  N8_20 
REMARK    9  A    between atoms: C12_24  and  C9_21 
REMARK   10  A    between atoms: C17_29  and  C19_31 
REMARK   11  A    between atoms: C25_35  and  C27_37 
ROOT
ATOM      1  C5  B91 d   1      17.888 -10.349  14.007  0.00  0.00    -0.028 A 
ATOM      2  C6  B91 d   1      18.344 -11.524  14.649  0.00  0.00    -0.052 A 
ATOM      3  C7  B91 d   1      18.129 -11.716  16.040  0.00  0.00    -0.075 A 
ATOM      4  C8  B91 d   1      17.438 -10.728  16.783  0.00  0.00    -0.067 A 
ATOM      5  C9  B91 d   1      16.965  -9.553  16.143  0.00  0.00     0.033 A 
ATOM      6  C10 B91 d   1      17.196  -9.361  14.756  0.00  0.00    -0.057 A 
ATOM      7  H6  B91 d   1      18.491 -12.613  16.529  0.00  0.00     0.084 H 
ATOM      8  H7  B91 d   1      17.270 -10.870  17.844  0.00  0.00     0.085 H 
ATOM      9  H9  B91 d   1      16.844  -8.459  14.268  0.00  0.00     0.086 H 
ENDROOT
BRANCH   5  10
ATOM     10  C12 B91 d   1      16.219  -8.515  16.855  0.00  0.00     0.256 C 
ATOM     11  O1  B91 d   1      15.585  -7.662  16.218  0.00  0.00    -0.267 OA
ATOM     12  N2  B91 d   1      16.216  -8.561  18.214  0.00  0.00    -0.323 N 
ATOM     13  H3  B91 d   1      16.837  -9.223  18.634  0.00  0.00     0.169 HD
BRANCH  12  14
ATOM     14  C13 B91 d   1      15.459  -7.804  19.080  0.00  0.00     0.037 A 
ATOM     15  C14 B91 d   1      15.911  -7.714  20.377  0.00  0.00    -0.031 A 
ATOM     16  C15 B91 d   1      15.217  -6.979  21.374  0.00  0.00     0.042 A 
ATOM     17  H13 B91 d   1      16.830  -8.222  20.647  0.00  0.00     0.090 H 
ATOM     18  C16 B91 d   1      14.022  -6.323  21.000  0.00  0.00    -0.042 A 
ATOM     19  C17 B91 d   1      13.524  -6.396  19.666  0.00  0.00     0.052 A 
ATOM     20  H14 B91 d   1      13.474  -5.753  21.742  0.00  0.00     0.088 H 
ATOM     21  C18 B91 d   1      14.255  -7.146  18.719  0.00  0.00    -0.042 A 
ATOM     22  H15 B91 d   1      13.891  -7.220  17.701  0.00  0.00     0.088 H 
BRANCH  16  23
ATOM     23  N3  B91 d   1      15.731  -6.988  22.682  0.00  0.00    -0.315 N 
ATOM     24  C22 B91 d   1      17.055  -6.930  23.043  0.00  0.00     0.010 A 
ATOM     25  C25 B91 d   1      17.065  -7.039  24.428  0.00  0.00     0.048 A 
ATOM     26  H16 B91 d   1      17.915  -6.822  22.383  0.00  0.00     0.115 H 
ATOM     27  N4  B91 d   1      15.804  -7.156  24.880  0.00  0.00    -0.247 NA
ATOM     28  C23 B91 d   1      14.967  -7.128  23.822  0.00  0.00     0.070 A 
ATOM     29  H17 B91 d   1      13.881  -7.203  23.861  0.00  0.00     0.144 H 
BRANCH  25  30
ATOM     30  C27 B91 d   1      18.218  -7.048  25.331  0.00  0.00    -0.034 C 
ATOM     31  H20 B91 d   1      19.143  -6.940  24.746  0.00  0.00     0.035 H 
ATOM     32  H21 B91 d   1      18.243  -7.998  25.884  0.00  0.00     0.035 H 
ATOM     33  H22 B91 d   1      18.134  -6.212  26.041  0.00  0.00     0.035 H 
ENDBRANCH  25  30
ENDBRANCH  16  23
BRANCH  19  34
ATOM     34  C19 B91 d   1      12.252  -5.712  19.227  0.00  0.00     0.417 C 
ATOM     35  F1  B91 d   1      12.554  -4.640  18.540  0.00  0.00    -0.166 F 
ATOM     36  F2  B91 d   1      11.544  -6.489  18.442  0.00  0.00    -0.166 F 
ATOM     37  F3  B91 d   1      11.528  -5.358  20.276  0.00  0.00    -0.166 F 
ENDBRANCH  19  34
ENDBRANCH  12  14
ENDBRANCH   5  10
BRANCH   1  38
ATOM     38  C4  B91 d   1      18.124 -10.141  12.579  0.00  0.00    -0.057 C 
ATOM     39  H5  B91 d   1      19.140  -9.959  12.232  0.00  0.00     0.086 H 
BRANCH  38  40
ATOM     40  C3  B91 d   1      17.153 -10.167  11.709  0.00  0.00    -0.012 C 
ATOM     41  H4  B91 d   1      16.153 -10.395  12.075  0.00  0.00     0.112 H 
BRANCH  40  42
ATOM     42  N1  B91 d   1      17.309  -9.913  10.284  0.00  0.00    -0.299 N 
ATOM     43  C1  B91 d   1      18.337  -9.326   9.591  0.00  0.00     0.169 A 
ATOM     44  N6  B91 d   1      19.506  -8.829  10.031  0.00  0.00    -0.221 NA
ATOM     45  C29 B91 d   1      17.910  -9.343   8.246  0.00  0.00     0.150 A 
ATOM     46  C33 B91 d   1      20.310  -8.298   9.065  0.00  0.00     0.091 A 
ATOM     47  N7  B91 d   1      19.962  -8.267   7.760  0.00  0.00    -0.222 NA
ATOM     48  H25 B91 d   1      21.268  -7.884   9.357  0.00  0.00     0.146 H 
ATOM     49  C30 B91 d   1      18.778  -8.778   7.330  0.00  0.00     0.158 A 
ATOM     50  N5  B91 d   1      16.676  -9.937   8.173  0.00  0.00    -0.236 NA
ATOM     51  C26 B91 d   1      16.304 -10.288   9.440  0.00  0.00     0.072 A 
ATOM     52  H19 B91 d   1      15.374 -10.778   9.725  0.00  0.00     0.144 H 
BRANCH  49  53
ATOM     53  N8  B91 d   1      18.428  -8.735   6.017  0.00  0.00    -0.368 N 
ATOM     54  H8  B91 d   1      17.564  -9.197   5.699  0.00  0.00     0.161 HD
BRANCH  53  55
ATOM     55  C24 B91 d   1      19.303  -8.012   5.029  0.00  0.00     0.011 A 
ATOM     56  C2  B91 d   1      19.016  -8.472   3.604  0.00  0.00    -0.044 A 
ATOM     57  C28 B91 d   1      20.289  -8.956   4.315  0.00  0.00    -0.044 A 
ATOM     58  H1  B91 d   1      19.091  -7.757   2.771  0.00  0.00     0.036 H 
ATOM     59  H2  B91 d   1      18.194  -9.177   3.410  0.00  0.00     0.036 H 
ATOM     60  H23 B91 d   1      21.274  -8.585   3.995  0.00  0.00     0.036 H 
ATOM     61  H24 B91 d   1      20.378 -10.005   4.634  0.00  0.00     0.036 H 
ATOM     62  H18 B91 d   1      19.543  -6.975   5.308  0.00  0.00     0.072 H 
ENDBRANCH  53  55
ENDBRANCH  49  53
ENDBRANCH  40  42
ENDBRANCH  38  40
ENDBRANCH   1  38
BRANCH   2  63
ATOM     63  C11 B91 d   1      19.052 -12.599  13.886  0.00  0.00    -0.050 C 
ATOM     64  H10 B91 d   1      19.140 -12.302  12.830  0.00  0.00     0.033 H 
ATOM     65  H11 B91 d   1      18.481 -13.536  13.957  0.00  0.00     0.033 H 
ATOM     66  H12 B91 d   1      20.056 -12.749  14.309  0.00  0.00     0.033 H 
ENDBRANCH   2  63
TORSDOF 11
