REMARK  6 active torsions:
REMARK  status: ('A' for Active; 'I' for Inactive)
REMARK    1  A    between atoms: S1_5  and  C1_1 
REMARK    2  A    between atoms: C2_6  and  S1_5 
REMARK    3  A    between atoms: O3_11  and  C6_14 
REMARK    4  A    between atoms: C8_16  and  O3_11 
REMARK    5  A    between atoms: C14_22  and  C12_20 
REMARK    6  A    between atoms: C22_30  and  C23_31 
ROOT
ATOM      1  C8  61X d   1      14.577  52.071  28.639  0.00  0.00     0.076 A 
ATOM      2  C9  61X d   1      14.353  52.728  27.416  0.00  0.00    -0.050 A 
ATOM      3  C10 61X d   1      15.310  53.609  26.915  0.00  0.00    -0.080 A 
ATOM      4  C11 61X d   1      16.481  53.843  27.642  0.00  0.00    -0.072 A 
ATOM      5  C12 61X d   1      16.698  53.203  28.884  0.00  0.00    -0.022 A 
ATOM      6  C13 61X d   1      15.744  52.299  29.367  0.00  0.00    -0.040 A 
ATOM      7  H8  61X d   1      13.438  52.550  26.864  0.00  0.00     0.087 H 
ATOM      8  H9  61X d   1      15.147  54.110  25.967  0.00  0.00     0.083 H 
ATOM      9  H10 61X d   1      17.230  54.522  27.250  0.00  0.00     0.084 H 
ATOM     10  H11 61X d   1      15.912  51.779  30.303  0.00  0.00     0.089 H 
ENDROOT
BRANCH   5  11
ATOM     11  C14 61X d   1      17.935  53.433  29.648  0.00  0.00    -0.012 A 
ATOM     12  C15 61X d   1      18.571  52.288  30.157  0.00  0.00    -0.054 A 
ATOM     13  C16 61X d   1      19.735  52.451  30.871  0.00  0.00     0.004 A 
ATOM     14  H12 61X d   1      18.155  51.301  29.991  0.00  0.00     0.087 H 
ATOM     15  N1  61X d   1      20.294  53.658  31.103  0.00  0.00    -0.259 NA
ATOM     16  H13 61X d   1      20.227  51.569  31.266  0.00  0.00     0.114 H 
ATOM     17  C17 61X d   1      19.715  54.785  30.621  0.00  0.00     0.082 A 
ATOM     18  C18 61X d   1      18.513  54.730  29.866  0.00  0.00     0.005 A 
ATOM     19  C22 61X d   1      20.306  56.043  30.872  0.00  0.00     0.077 A 
ATOM     20  C19 61X d   1      17.962  55.954  29.401  0.00  0.00    -0.070 A 
ATOM     21  C20 61X d   1      18.561  57.189  29.654  0.00  0.00    -0.081 A 
ATOM     22  H14 61X d   1      17.042  55.928  28.828  0.00  0.00     0.084 H 
ATOM     23  C21 61X d   1      19.740  57.237  30.386  0.00  0.00    -0.066 A 
ATOM     24  H15 61X d   1      18.110  58.102  29.283  0.00  0.00     0.083 H 
ATOM     25  H16 61X d   1      20.222  58.188  30.582  0.00  0.00     0.084 H 
BRANCH  19  26
ATOM     26  C23 61X d   1      21.592  56.093  31.639  0.00  0.00     0.419 C 
ATOM     27  F1  61X d   1      21.538  55.743  32.938  0.00  0.00    -0.166 F 
ATOM     28  F2  61X d   1      22.506  55.292  31.058  0.00  0.00    -0.166 F 
ATOM     29  F3  61X d   1      22.175  57.298  31.649  0.00  0.00    -0.166 F 
ENDBRANCH  19  26
ENDBRANCH   5  11
BRANCH   1  30
ATOM     30  O3  61X d   1      13.707  51.170  29.217  0.00  0.00    -0.311 OA
BRANCH  30  31
ATOM     31  C6  61X d   1      12.794  50.478  28.456  0.00  0.00     0.077 A 
ATOM     32  C5  61X d   1      12.998  49.164  28.006  0.00  0.00    -0.050 A 
ATOM     33  C4  61X d   1      11.983  48.549  27.248  0.00  0.00    -0.079 A 
ATOM     34  H6  61X d   1      13.916  48.635  28.237  0.00  0.00     0.087 H 
ATOM     35  C3  61X d   1      10.788  49.229  26.948  0.00  0.00    -0.062 A 
ATOM     36  H5  61X d   1      12.124  47.536  26.890  0.00  0.00     0.083 H 
ATOM     37  C2  61X d   1      10.616  50.542  27.399  0.00  0.00     0.061 A 
ATOM     38  H4  61X d   1      10.009  48.741  26.374  0.00  0.00     0.085 H 
ATOM     39  C7  61X d   1      11.614  51.161  28.162  0.00  0.00    -0.029 A 
ATOM     40  H7  61X d   1      11.469  52.172  28.525  0.00  0.00     0.090 H 
BRANCH  37  41
ATOM     41  S1  61X d   1       9.141  51.469  27.077  0.00  0.00     0.172 S 
ATOM     42  O1  61X d   1       8.504  51.572  28.374  0.00  0.00    -0.223 OA
ATOM     43  O2  61X d   1       8.452  50.874  25.955  0.00  0.00    -0.223 OA
BRANCH  41  44
ATOM     44  C1  61X d   1       9.688  53.090  26.647  0.00  0.00     0.020 C 
ATOM     45  H1  61X d   1      10.181  53.062  25.664  0.00  0.00     0.049 H 
ATOM     46  H2  61X d   1      10.400  53.450  27.404  0.00  0.00     0.049 H 
ATOM     47  H3  61X d   1       8.824  53.769  26.605  0.00  0.00     0.049 H 
ENDBRANCH  41  44
ENDBRANCH  37  41
ENDBRANCH  30  31
ENDBRANCH   1  30
TORSDOF 6
