REMARK  30 active torsions:
REMARK  status: ('A' for Active; 'I' for Inactive)
REMARK    1  A    between atoms: N1_1  and  C1_2 
REMARK    2  A    between atoms: C1_2  and  C2_4 
REMARK    3  A    between atoms: C1_2  and  C3_5 
REMARK    4  A    between atoms: N2_3  and  C10_14 
REMARK    5  A    between atoms: C2_4  and  C52_58 
REMARK    6  A    between atoms: C3_5  and  C4_6 
REMARK    7  A    between atoms: C10_14  and  C11_15 
REMARK    8  A    between atoms: C10_14  and  C12_16 
REMARK    9  A    between atoms: C12_16  and  CG2_60 
REMARK   10  A    between atoms: C12_16  and  CG1_61 
REMARK       I    between atoms: C31_62  and  N4_19 
REMARK   11  A    between atoms: C18_24  and  C19_25 
REMARK   12  A    between atoms: C18_24  and  C20_26 
REMARK   13  A    between atoms: C81_28  and  O59_29 
REMARK       I    between atoms: N54_37  and  C81_28 
REMARK   14  A    between atoms: O59_29  and  CA5_30 
REMARK   15  A    between atoms: CA5_30  and  C50_31 
REMARK   16  A    between atoms: C68_38  and  C70_39 
REMARK   17  A    between atoms: C69_40  and  C68_38 
REMARK   18  A    between atoms: C60_43  and  N52_42 
REMARK   19  A    between atoms: C60_43  and  C62_44 
REMARK   20  A    between atoms: C61_47  and  C60_43 
REMARK   21  A    between atoms: C62_44  and  CG6_45 
REMARK   22  A    between atoms: C62_44  and  CG5_46 
REMARK   23  A    between atoms: C51_50  and  N51_49 
REMARK   24  A    between atoms: C51_50  and  C53_51 
REMARK   25  A    between atoms: C52_58  and  C51_50 
REMARK   26  A    between atoms: C53_51  and  C54_52 
REMARK   27  A    between atoms: C52_58  and  O51_59 
REMARK   28  A    between atoms: O9_64  and  C31_62 
REMARK   29  A    between atoms: CA_65  and  O9_64 
REMARK   30  A    between atoms: CA_65  and  C_66 
ROOT
ATOM      1  C52 3TL d   1      13.810  19.337  18.465  0.00  0.00     0.114 C 
ATOM      2  H49 3TL d   1      14.333  20.080  19.085  0.00  0.00     0.098 H 
ENDROOT
BRANCH   1   3
ATOM      3  C2  3TL d   1      14.288  19.505  17.059  0.00  0.00     0.180 C 
ATOM      4  O1  3TL d   1      14.586  18.556  16.384  0.00  0.00    -0.293 OA
BRANCH   3   5
ATOM      5  C1  3TL d   1      14.535  20.777  16.306  0.00  0.00     0.075 C 
ATOM      6  H2  3TL d   1      13.656  21.372  16.019  0.00  0.00     0.085 H 
BRANCH   5   7
ATOM      7  N1  3TL d   1      15.439  21.432  17.284  0.00  0.00    -0.358 N 
ATOM      8  C11 3TL d   1      15.139  22.613  17.698  0.00  0.00     0.175 C 
ATOM      9  O2  3TL d   1      13.957  23.091  17.334  0.00  0.00    -0.175 OA
ATOM     10  H1  3TL d   1      16.261  20.967  17.613  0.00  0.00     0.162 HD
BRANCH   8  11
ATOM     11  C10 3TL d   1      16.117  23.351  18.601  0.00  0.00     0.079 C 
ATOM     12  H11 3TL d   1      16.769  22.581  19.040  0.00  0.00     0.086 H 
BRANCH  11  13
ATOM     13  N2  3TL d   1      16.973  24.205  17.758  0.00  0.00    -0.354 N 
ATOM     14  C19 3TL d   1      18.235  24.319  17.827  0.00  0.00     0.200 C 
ATOM     15  O4  3TL d   1      19.047  23.736  18.695  0.00  0.00    -0.170 OA
ATOM     16  H3  3TL d   1      16.511  24.751  17.059  0.00  0.00     0.162 HD
BRANCH  14  17
ATOM     17  C18 3TL d   1      18.910  25.311  16.925  0.00  0.00     0.090 C 
ATOM     18  N4  3TL d   1      18.890  25.211  15.650  0.00  0.00    -0.188 NA
ATOM     19  C31 3TL d   1      19.614  25.846  14.687  0.00  0.00     0.387 C 
ATOM     20  O8  3TL d   1      20.641  25.405  14.176  0.00  0.00    -0.236 OA
BRANCH  19  21
ATOM     21  O9  3TL d   1      19.256  27.052  14.208  0.00  0.00    -0.298 OA
BRANCH  21  22
ATOM     22  CA  3TL d   1      19.544  27.383  12.817  0.00  0.00     0.054 C 
ATOM     23  H57 3TL d   1      20.214  26.612  12.409  0.00  0.00     0.082 H 
ATOM     24  H58 3TL d   1      20.049  28.360  12.791  0.00  0.00     0.082 H 
BRANCH  22  25
ATOM     25  C   3TL d   1      18.314  27.459  11.939  0.00  0.00    -0.034 A 
ATOM     26  C13 3TL d   1      18.448  27.489  10.554  0.00  0.00    -0.075 A 
ATOM     27  C14 3TL d   1      17.326  27.562   9.736  0.00  0.00    -0.082 A 
ATOM     28  H13 3TL d   1      19.436  27.455  10.109  0.00  0.00     0.084 H 
ATOM     29  C15 3TL d   1      16.035  27.598  10.274  0.00  0.00    -0.083 A 
ATOM     30  H14 3TL d   1      17.454  27.592   8.660  0.00  0.00     0.083 H 
ATOM     31  C16 3TL d   1      15.895  27.559  11.658  0.00  0.00    -0.082 A 
ATOM     32  H15 3TL d   1      15.166  27.655   9.629  0.00  0.00     0.083 H 
ATOM     33  C17 3TL d   1      17.029  27.497  12.468  0.00  0.00    -0.075 A 
ATOM     34  H16 3TL d   1      14.908  27.577  12.105  0.00  0.00     0.083 H 
ATOM     35  H17 3TL d   1      16.904  27.478  13.545  0.00  0.00     0.084 H 
ENDBRANCH  22  25
ENDBRANCH  21  22
ENDBRANCH  19  21
BRANCH  17  36
ATOM     36  C20 3TL d   1      19.602  26.420  17.670  0.00  0.00    -0.031 C 
ATOM     37  H18 3TL d   1      19.469  26.273  18.752  0.00  0.00     0.035 H 
ATOM     38  H19 3TL d   1      19.168  27.387  17.375  0.00  0.00     0.035 H 
ATOM     39  H20 3TL d   1      20.675  26.411  17.428  0.00  0.00     0.035 H 
ENDBRANCH  17  36
ENDBRANCH  14  17
ENDBRANCH  11  13
BRANCH  11  40
ATOM     40  C12 3TL d   1      15.509  24.102  19.803  0.00  0.00    -0.034 C 
ATOM     41  H12 3TL d   1      14.983  24.954  19.347  0.00  0.00     0.042 H 
BRANCH  40  42
ATOM     42  CG2 3TL d   1      16.530  24.733  20.759  0.00  0.00    -0.071 C 
ATOM     43  H51 3TL d   1      16.000  25.242  21.578  0.00  0.00     0.028 H 
ATOM     44  H52 3TL d   1      17.144  25.462  20.210  0.00  0.00     0.028 H 
ATOM     45  H53 3TL d   1      17.178  23.947  21.174  0.00  0.00     0.028 H 
ENDBRANCH  40  42
BRANCH  40  46
ATOM     46  CG1 3TL d   1      14.431  23.347  20.577  0.00  0.00    -0.071 C 
ATOM     47  H54 3TL d   1      13.713  22.905  19.870  0.00  0.00     0.028 H 
ATOM     48  H55 3TL d   1      13.905  24.043  21.247  0.00  0.00     0.028 H 
ATOM     49  H56 3TL d   1      14.898  22.549  21.172  0.00  0.00     0.028 H 
ENDBRANCH  40  46
ENDBRANCH  11  40
ENDBRANCH   8  11
ENDBRANCH   5   7
BRANCH   5  50
ATOM     50  C3  3TL d   1      15.340  20.211  15.125  0.00  0.00    -0.016 C 
ATOM     51  H4  3TL d   1      14.675  19.682  14.427  0.00  0.00     0.043 H 
ATOM     52  H5  3TL d   1      16.116  19.521  15.486  0.00  0.00     0.043 H 
BRANCH  50  53
ATOM     53  C4  3TL d   1      15.966  21.395  14.454  0.00  0.00    -0.056 A 
ATOM     54  C5  3TL d   1      15.088  22.273  13.824  0.00  0.00    -0.077 A 
ATOM     55  C6  3TL d   1      15.612  23.404  13.210  0.00  0.00    -0.082 A 
ATOM     56  H6  3TL d   1      14.022  22.079  13.813  0.00  0.00     0.084 H 
ATOM     57  C7  3TL d   1      16.980  23.599  13.259  0.00  0.00    -0.083 A 
ATOM     58  H7  3TL d   1      14.966  24.114  12.706  0.00  0.00     0.083 H 
ATOM     59  C8  3TL d   1      17.857  22.721  13.906  0.00  0.00    -0.082 A 
ATOM     60  H8  3TL d   1      17.393  24.475  12.772  0.00  0.00     0.083 H 
ATOM     61  C9  3TL d   1      17.349  21.586  14.528  0.00  0.00    -0.077 A 
ATOM     62  H9  3TL d   1      18.922  22.924  13.922  0.00  0.00     0.083 H 
ATOM     63  H10 3TL d   1      17.993  20.884  15.045  0.00  0.00     0.084 H 
ENDBRANCH  50  53
ENDBRANCH   5  50
ENDBRANCH   3   5
ENDBRANCH   1   3
BRANCH   1  64
ATOM     64  C51 3TL d   1      12.362  19.694  18.619  0.00  0.00     0.046 C 
ATOM     65  H41 3TL d   1      12.148  20.634  18.088  0.00  0.00     0.077 H 
BRANCH  64  66
ATOM     66  N51 3TL d   1      11.645  18.611  17.953  0.00  0.00    -0.362 N 
ATOM     67  C61 3TL d   1      10.727  18.823  17.096  0.00  0.00     0.175 C 
ATOM     68  O52 3TL d   1      10.326  20.041  16.774  0.00  0.00    -0.175 OA
ATOM     69  H40 3TL d   1      11.884  17.666  18.178  0.00  0.00     0.162 HD
BRANCH  67  70
ATOM     70  C60 3TL d   1      10.008  17.679  16.365  0.00  0.00     0.079 C 
ATOM     71  H32 3TL d   1      10.340  16.726  16.803  0.00  0.00     0.086 H 
BRANCH  70  72
ATOM     72  N52 3TL d   1       8.586  17.839  16.599  0.00  0.00    -0.354 N 
ATOM     73  C69 3TL d   1       7.964  16.781  17.027  0.00  0.00     0.200 C 
ATOM     74  O54 3TL d   1       8.597  15.645  17.330  0.00  0.00    -0.170 OA
ATOM     75  H31 3TL d   1       8.115  18.707  16.441  0.00  0.00     0.162 HD
BRANCH  73  76
ATOM     76  C68 3TL d   1       6.510  16.802  17.281  0.00  0.00     0.090 C 
ATOM     77  N54 3TL d   1       6.235  17.673  18.160  0.00  0.00    -0.188 NA
ATOM     78  C81 3TL d   1       5.268  18.212  18.902  0.00  0.00     0.387 C 
ATOM     79  O58 3TL d   1       4.781  17.590  19.824  0.00  0.00    -0.236 OA
BRANCH  78  80
ATOM     80  O59 3TL d   1       4.827  19.468  18.687  0.00  0.00    -0.298 OA
BRANCH  80  81
ATOM     81  CA5 3TL d   1       4.007  20.101  19.710  0.00  0.00     0.054 C 
ATOM     82  H21 3TL d   1       4.514  19.942  20.673  0.00  0.00     0.082 H 
ATOM     83  H22 3TL d   1       3.039  19.579  19.715  0.00  0.00     0.082 H 
BRANCH  81  84
ATOM     84  C50 3TL d   1       3.713  21.574  19.604  0.00  0.00    -0.034 A 
ATOM     85  C63 3TL d   1       2.823  22.158  20.488  0.00  0.00    -0.075 A 
ATOM     86  C64 3TL d   1       2.591  23.513  20.385  0.00  0.00    -0.082 A 
ATOM     87  H23 3TL d   1       2.320  21.564  21.243  0.00  0.00     0.084 H 
ATOM     88  C65 3TL d   1       3.191  24.298  19.400  0.00  0.00    -0.083 A 
ATOM     89  H24 3TL d   1       1.920  23.985  21.093  0.00  0.00     0.083 H 
ATOM     90  C66 3TL d   1       4.059  23.706  18.512  0.00  0.00    -0.082 A 
ATOM     91  H25 3TL d   1       2.976  25.359  19.335  0.00  0.00     0.083 H 
ATOM     92  C67 3TL d   1       4.315  22.357  18.637  0.00  0.00    -0.075 A 
ATOM     93  H26 3TL d   1       4.532  24.288  17.730  0.00  0.00     0.083 H 
ATOM     94  H27 3TL d   1       5.015  21.893  17.951  0.00  0.00     0.084 H 
ENDBRANCH  81  84
ENDBRANCH  80  81
ENDBRANCH  78  80
BRANCH  76  95
ATOM     95  C70 3TL d   1       5.467  15.928  16.621  0.00  0.00    -0.031 C 
ATOM     96  H28 3TL d   1       5.955  15.258  15.898  0.00  0.00     0.035 H 
ATOM     97  H29 3TL d   1       4.735  16.561  16.098  0.00  0.00     0.035 H 
ATOM     98  H30 3TL d   1       4.952  15.329  17.387  0.00  0.00     0.035 H 
ENDBRANCH  76  95
ENDBRANCH  73  76
ENDBRANCH  70  72
BRANCH  70  99
ATOM     99  C62 3TL d   1      10.286  17.627  14.881  0.00  0.00    -0.034 C 
ATOM    100  H33 3TL d   1       9.936  18.585  14.470  0.00  0.00     0.042 H 
BRANCH  99 101
ATOM    101  CG6 3TL d   1      11.787  17.569  14.632  0.00  0.00    -0.071 C 
ATOM    102  H34 3TL d   1      11.978  17.532  13.549  0.00  0.00     0.028 H 
ATOM    103  H35 3TL d   1      12.203  16.669  15.109  0.00  0.00     0.028 H 
ATOM    104  H36 3TL d   1      12.264  18.464  15.058  0.00  0.00     0.028 H 
ENDBRANCH  99 101
BRANCH  99 105
ATOM    105  CG5 3TL d   1       9.512  16.541  14.117  0.00  0.00    -0.071 C 
ATOM    106  H37 3TL d   1       8.438  16.634  14.336  0.00  0.00     0.028 H 
ATOM    107  H38 3TL d   1       9.866  15.548  14.432  0.00  0.00     0.028 H 
ATOM    108  H39 3TL d   1       9.678  16.664  13.037  0.00  0.00     0.028 H 
ENDBRANCH  99 105
ENDBRANCH  70  99
ENDBRANCH  67  70
ENDBRANCH  64  66
BRANCH  64 109
ATOM    109  C53 3TL d   1      12.045  19.912  20.078  0.00  0.00    -0.019 C 
ATOM    110  H42 3TL d   1      12.526  20.850  20.391  0.00  0.00     0.043 H 
ATOM    111  H43 3TL d   1      12.473  19.073  20.645  0.00  0.00     0.043 H 
BRANCH 109 112
ATOM    112  C54 3TL d   1      10.596  20.004  20.421  0.00  0.00    -0.056 A 
ATOM    113  C55 3TL d   1       9.956  18.860  20.893  0.00  0.00    -0.077 A 
ATOM    114  C56 3TL d   1       8.607  19.037  21.181  0.00  0.00    -0.082 A 
ATOM    115  H44 3TL d   1      10.466  17.913  21.025  0.00  0.00     0.084 H 
ATOM    116  C57 3TL d   1       7.940  20.249  21.033  0.00  0.00    -0.083 A 
ATOM    117  H45 3TL d   1       8.044  18.183  21.541  0.00  0.00     0.083 H 
ATOM    118  C58 3TL d   1       8.595  21.383  20.554  0.00  0.00    -0.082 A 
ATOM    119  H46 3TL d   1       6.890  20.313  21.295  0.00  0.00     0.083 H 
ATOM    120  C59 3TL d   1       9.932  21.215  20.263  0.00  0.00    -0.077 A 
ATOM    121  H47 3TL d   1       8.088  22.331  20.420  0.00  0.00     0.083 H 
ATOM    122  H48 3TL d   1      10.492  22.067  19.894  0.00  0.00     0.084 H 
ENDBRANCH 109 112
ENDBRANCH  64 109
ENDBRANCH   1  64
BRANCH   1 123
ATOM    123  O51 3TL d   1      14.344  18.058  18.866  0.00  0.00    -0.386 OA
ATOM    124  H50 3TL d   1      14.198  17.933  19.796  0.00  0.00     0.210 HD
ENDBRANCH   1 123
TORSDOF 30
