REMARK  3 active torsions:
REMARK  status: ('A' for Active; 'I' for Inactive)
REMARK    1  A    between atoms: N1_1  and  C29_18 
REMARK    2  A    between atoms: C4_4  and  C7_6 
REMARK    3  A    between atoms: C32_20  and  C39_24 
ROOT
ATOM      1  N1  LX9 d   1      37.302   5.211  13.638  0.00  0.00    -0.242 N 
ATOM      2  N2  LX9 d   1      38.393   5.661  12.988  0.00  0.00    -0.149 NA
ATOM      3  C3  LX9 d   1      39.239   6.180  13.792  0.00  0.00     0.154 A 
ATOM      4  C4  LX9 d   1      38.635   6.030  15.124  0.00  0.00     0.039 A 
ATOM      5  C5  LX9 d   1      37.442   5.462  14.913  0.00  0.00     0.019 A 
ATOM      6  N26 LX9 d   1      40.386   6.703  13.451  0.00  0.00    -0.382 N 
ATOM      7  H   LX9 d   1      36.703   5.243  15.684  0.00  0.00     0.116 H 
ATOM      8  H   LX9 d   1      40.668   6.718  12.471  0.00  0.00     0.157 HD
ATOM      9  H   LX9 d   1      41.000   7.096  14.165  0.00  0.00     0.157 HD
ENDROOT
BRANCH   1  10
ATOM     10  C29 LX9 d   1      36.214   4.648  13.098  0.00  0.00     0.059 A 
ATOM     11  C30 LX9 d   1      35.796   5.116  11.848  0.00  0.00    -0.044 A 
ATOM     12  C32 LX9 d   1      34.645   4.598  11.245  0.00  0.00    -0.024 A 
ATOM     13  H   LX9 d   1      36.371   5.890  11.340  0.00  0.00     0.088 H 
ATOM     14  C33 LX9 d   1      33.903   3.624  11.916  0.00  0.00    -0.072 A 
ATOM     15  C35 LX9 d   1      34.316   3.155  13.167  0.00  0.00    -0.080 A 
ATOM     16  H   LX9 d   1      32.995   3.226  11.462  0.00  0.00     0.084 H 
ATOM     17  C37 LX9 d   1      35.463   3.674  13.768  0.00  0.00    -0.055 A 
ATOM     18  H   LX9 d   1      33.740   2.381  13.674  0.00  0.00     0.083 H 
ATOM     19  H   LX9 d   1      35.773   3.324  14.753  0.00  0.00     0.087 H 
BRANCH  12  20
ATOM     20  C39 LX9 d   1      34.192   5.106   9.919  0.00  0.00    -0.024 A 
ATOM     21  C40 LX9 d   1      34.523   6.417   9.542  0.00  0.00    -0.046 A 
ATOM     22  C42 LX9 d   1      34.057   6.862   8.305  0.00  0.00     0.043 A 
ATOM     23  H   LX9 d   1      35.119   7.060  10.189  0.00  0.00     0.088 H 
ATOM     24  N43 LX9 d   1      34.251   8.057   7.713  0.00  0.00    -0.365 N 
ATOM     25  C49 LX9 d   1      33.293   6.050   7.470  0.00  0.00    -0.008 A 
ATOM     26  C45 LX9 d   1      33.666   8.100   6.542  0.00  0.00    -0.022 A 
ATOM     27  H   LX9 d   1      34.782   8.825   8.122  0.00  0.00     0.165 HD
ATOM     28  C47 LX9 d   1      33.038   6.934   6.274  0.00  0.00    -0.056 A 
ATOM     29  H   LX9 d   1      33.683   8.961   5.873  0.00  0.00     0.111 H 
ATOM     30  H   LX9 d   1      32.466   6.684   5.380  0.00  0.00     0.086 H 
ATOM     31  C50 LX9 d   1      32.938   4.746   7.820  0.00  0.00    -0.070 A 
ATOM     32  C52 LX9 d   1      33.398   4.298   9.071  0.00  0.00    -0.071 A 
ATOM     33  H   LX9 d   1      32.340   4.114   7.163  0.00  0.00     0.084 H 
ATOM     34  H   LX9 d   1      33.134   3.293   9.399  0.00  0.00     0.084 H 
ENDBRANCH  12  20
ENDBRANCH   1  10
BRANCH   4  35
ATOM     35  C7  LX9 d   1      39.109   6.493  16.485  0.00  0.00    -0.020 A 
ATOM     36  C8  LX9 d   1      38.835   5.775  17.637  0.00  0.00    -0.065 A 
ATOM     37  C10 LX9 d   1      39.243   6.255  18.874  0.00  0.00    -0.040 A 
ATOM     38  H   LX9 d   1      38.297   4.829  17.572  0.00  0.00     0.085 H 
ATOM     39  C11 LX9 d   1      39.926   7.480  18.969  0.00  0.00     0.038 A 
ATOM     40  C22 LX9 d   1      38.949   5.427  20.134  0.00  0.00    -0.025 C 
ATOM     41  C12 LX9 d   1      40.184   8.214  17.820  0.00  0.00    -0.066 A 
ATOM     42  C16 LX9 d   1      40.339   8.011  20.330  0.00  0.00     0.252 C 
ATOM     43  C14 LX9 d   1      39.770   7.720  16.586  0.00  0.00    -0.071 A 
ATOM     44  H   LX9 d   1      40.706   9.169  17.883  0.00  0.00     0.085 H 
ATOM     45  H   LX9 d   1      39.965   8.300  15.684  0.00  0.00     0.084 H 
ATOM     46  N17 LX9 d   1      39.798   7.432  21.430  0.00  0.00    -0.357 N 
ATOM     47  O25 LX9 d   1      41.082   8.989  20.418  0.00  0.00    -0.268 OA
ATOM     48  C19 LX9 d   1      38.860   6.311  21.399  0.00  0.00    -0.001 C 
ATOM     49  H   LX9 d   1      40.064   7.804  22.342  0.00  0.00     0.162 HD
ATOM     50  H   LX9 d   1      37.857   6.737  21.418  0.00  0.00     0.064 H 
ATOM     51  H   LX9 d   1      39.101   5.673  22.249  0.00  0.00     0.064 H 
ATOM     52  H   LX9 d   1      39.763   4.715  20.272  0.00  0.00     0.042 H 
ATOM     53  H   LX9 d   1      37.989   4.928  19.998  0.00  0.00     0.042 H 
ENDBRANCH   4  35
TORSDOF 3
