REMARK  4 active torsions:
REMARK  status: ('A' for Active; 'I' for Inactive)
REMARK    1  A    between atoms: C17_24  and  N1_5 
REMARK    2  A    between atoms: N4_11  and  C4_10 
REMARK       I    between atoms: C13_20  and  N4_11 
REMARK    3  A    between atoms: C6_13  and  C8_15 
REMARK    4  A    between atoms: C13_20  and  C17_24 
ROOT
ATOM      1  C1  C64 d   1      21.310  26.570  13.666  0.00  0.00    -0.055 A 
ATOM      2  N1  C64 d   1      21.195  24.694  11.994  0.00  0.00    -0.318 N 
ATOM      3  C3  C64 d   1      22.151  27.150  14.618  0.00  0.00    -0.081 A 
ATOM      4  N3  C64 d   1      23.278  23.854  12.396  0.00  0.00    -0.226 NA
ATOM      5  C6  C64 d   1      22.123  23.768  11.704  0.00  0.00     0.167 A 
ATOM      6  C9  C64 d   1      23.911  25.528  14.174  0.00  0.00    -0.053 A 
ATOM      7  C10 C64 d   1      21.746  25.458  12.947  0.00  0.00     0.065 A 
ATOM      8  C11 C64 d   1      23.108  24.914  13.215  0.00  0.00     0.086 A 
ATOM      9  C14 C64 d   1      23.427  26.638  14.869  0.00  0.00    -0.081 A 
ATOM     10  H   C64 d   1      20.318  26.984  13.486  0.00  0.00     0.087 H 
ATOM     11  H   C64 d   1      21.805  28.020  15.177  0.00  0.00     0.083 H 
ATOM     12  H   C64 d   1      24.910  25.144  14.380  0.00  0.00     0.087 H 
ATOM     13  H   C64 d   1      24.056  27.114  15.621  0.00  0.00     0.083 H 
ENDROOT
BRANCH   2  14
ATOM     14  C17 C64 d   1      19.858  24.865  11.421  0.00  0.00     0.076 C 
ATOM     15  H   C64 d   1      19.219  25.355  12.155  0.00  0.00     0.079 H 
ATOM     16  H   C64 d   1      19.458  23.886  11.158  0.00  0.00     0.079 H 
BRANCH  14  17
ATOM     17  C13 C64 d   1      19.919  25.719  10.177  0.00  0.00     0.240 C 
ATOM     18  O   C64 d   1      20.853  26.487  10.003  0.00  0.00    -0.271 OA
ATOM     19  N4  C64 d   1      18.894  25.555   9.336  0.00  0.00    -0.326 N 
ATOM     20  H   C64 d   1      18.180  24.879   9.607  0.00  0.00     0.169 HD
BRANCH  19  21
ATOM     21  C4  C64 d   1      18.710  26.203   8.153  0.00  0.00     0.034 A 
ATOM     22  C2  C64 d   1      19.612  27.152   7.664  0.00  0.00    -0.056 A 
ATOM     23  C5  C64 d   1      19.375  27.784   6.445  0.00  0.00    -0.064 A 
ATOM     24  H   C64 d   1      20.505  27.399   8.239  0.00  0.00     0.087 H 
ATOM     25  C18 C64 d   1      18.234  27.466   5.714  0.00  0.00     0.011 A 
ATOM     26  H   C64 d   1      20.080  28.524   6.066  0.00  0.00     0.085 H 
ATOM     27 BR   C64 d   1      17.908  28.320   4.063  0.00  0.00    -0.051 Br
ATOM     28  C16 C64 d   1      17.331  26.522   6.194  0.00  0.00    -0.064 A 
ATOM     29  C12 C64 d   1      17.572  25.893   7.412  0.00  0.00    -0.056 A 
ATOM     30  H   C64 d   1      16.439  26.276   5.618  0.00  0.00     0.085 H 
ATOM     31  H   C64 d   1      16.866  25.153   7.788  0.00  0.00     0.087 H 
ENDBRANCH  19  21
ENDBRANCH  14  17
ENDBRANCH   2  14
BRANCH   5  32
ATOM     32  C8  C64 d   1      21.944  22.693  10.676  0.00  0.00     0.143 A 
ATOM     33  S   C64 d   1      23.310  21.868   9.998  0.00  0.00    -0.077 SA
ATOM     34  C7  C64 d   1      22.185  20.946   9.037  0.00  0.00    -0.026 A 
ATOM     35  C15 C64 d   1      20.871  21.322   9.295  0.00  0.00     0.010 A 
ATOM     36  H   C64 d   1      22.474  20.173   8.325  0.00  0.00     0.097 H 
ATOM     37  N2  C64 d   1      20.736  22.309  10.221  0.00  0.00    -0.249 NA
ATOM     38  H   C64 d   1      20.018  20.863   8.795  0.00  0.00     0.115 H 
ENDBRANCH   5  32
TORSDOF 4
