REMARK  4 active torsions:
REMARK  status: ('A' for Active; 'I' for Inactive)
REMARK    1  A    between atoms: C_1  and  O_3 
REMARK    2  A    between atoms: C1_4  and  C_1 
REMARK    3  A    between atoms: C7_10  and  N_2 
REMARK    4  A    between atoms: C4_7  and  C7_10 
ROOT
ATOM      1  C1  4AL d   1     -30.784  88.991 -11.173  0.00  0.00    -0.035 A 
ATOM      2  C2  4AL d   1     -30.051  88.518 -10.183  0.00  0.00    -0.074 A 
ATOM      3  C3  4AL d   1     -29.016  87.745 -10.235  0.00  0.00    -0.075 A 
ATOM      4  C4  4AL d   1     -28.623  87.411 -11.414  0.00  0.00    -0.033 A 
ATOM      5  C5  4AL d   1     -29.327  87.861 -12.471  0.00  0.00    -0.075 A 
ATOM      6  C6  4AL d   1     -30.395  88.688 -12.400  0.00  0.00    -0.074 A 
ATOM      7  H7  4AL d   1     -30.359  88.819  -9.188  0.00  0.00     0.084 H 
ATOM      8  H8  4AL d   1     -28.510  87.400  -9.341  0.00  0.00     0.084 H 
ATOM      9  H9  4AL d   1     -29.013  87.535 -13.456  0.00  0.00     0.084 H 
ATOM     10  H10 4AL d   1     -30.894  89.073 -13.282  0.00  0.00     0.084 H 
ENDROOT
BRANCH   4  11
ATOM     11  C7  4AL d   1     -27.459  86.496 -11.489  0.00  0.00     0.103 C 
ATOM     12  H11 4AL d   1     -26.588  87.069 -11.138  0.00  0.00     0.082 H 
ATOM     13  H12 4AL d   1     -27.663  85.673 -10.788  0.00  0.00     0.082 H 
BRANCH  11  14
ATOM     14  N   4AL d   1     -27.091  85.917 -12.669  0.00  0.00    -0.075 N 
ATOM     15  H3  4AL d   1     -26.283  85.333 -12.519  0.00  0.00     0.274 HD
ATOM     16  H4  4AL d   1     -26.866  86.635 -13.340  0.00  0.00     0.274 HD
ATOM     17  H5  4AL d   1     -27.851  85.356 -13.019  0.00  0.00     0.274 HD
ENDBRANCH  11  14
ENDBRANCH   4  11
BRANCH   1  18
ATOM     18  C   4AL d   1     -31.833  89.833 -10.848  0.00  0.00     0.040 C 
ATOM     19  H1  4AL d   1     -32.779  89.297 -10.685  0.00  0.00     0.081 H 
ATOM     20  H2  4AL d   1     -31.618  90.471  -9.978  0.00  0.00     0.081 H 
BRANCH  18  21
ATOM     21  O   4AL d   1     -31.806  90.457 -11.929  0.00  0.00    -0.396 OA
ATOM     22  H6  4AL d   1     -32.483  91.124 -11.925  0.00  0.00     0.209 HD
ENDBRANCH  18  21
ENDBRANCH   1  18
TORSDOF 4
