REMARK  4 active torsions:
REMARK  status: ('A' for Active; 'I' for Inactive)
REMARK    1  A    between atoms: C1_1  and  O2_5 
REMARK    2  A    between atoms: C4_7  and  C1_1 
REMARK    3  A    between atoms: O2_5  and  C2_3 
REMARK    4  A    between atoms: C2_3  and  C3_6 
ROOT
ATOM      1  S1  2BS d   1      -0.881 -34.399  -8.752  0.00  0.00    -0.050 SA
ATOM      2  N2  2BS d   1      -0.976 -36.112 -10.752  0.00  0.00    -0.224 NA
ATOM      3  C4  2BS d   1      -0.765 -32.080 -11.990  0.00  0.00     0.041 A 
ATOM      4  C5  2BS d   1      -0.780 -32.453 -10.627  0.00  0.00    -0.048 A 
ATOM      5  C6  2BS d   1      -0.855 -33.805 -10.300  0.00  0.00     0.038 A 
ATOM      6  C7  2BS d   1      -0.962 -36.012  -9.387  0.00  0.00     0.165 A 
ATOM      7  C8  2BS d   1      -0.915 -34.882 -11.358  0.00  0.00     0.076 A 
ATOM      8  C9  2BS d   1      -0.900 -34.469 -12.718  0.00  0.00    -0.053 A 
ATOM      9  N02 2BS d   1      -1.003 -37.103  -8.583  0.00  0.00    -0.378 N 
ATOM     10  C10 2BS d   1      -0.826 -33.075 -13.026  0.00  0.00    -0.065 A 
ATOM     11  H   2BS d   1      -0.734 -31.695  -9.845  0.00  0.00     0.087 H 
ATOM     12  H   2BS d   1      -0.945 -35.208 -13.518  0.00  0.00     0.087 H 
ATOM     13  H   2BS d   1      -1.046 -38.036  -8.992  0.00  0.00     0.158 HD
ATOM     14  H   2BS d   1      -0.991 -36.990  -7.569  0.00  0.00     0.158 HD
ATOM     15  H   2BS d   1      -0.816 -32.760 -14.069  0.00  0.00     0.085 H 
ENDROOT
BRANCH   3  16
ATOM     16  C1  2BS d   1      -0.684 -30.619 -12.330  0.00  0.00     0.293 C 
ATOM     17  O01 2BS d   1      -0.276 -30.249 -13.428  0.00  0.00    -0.259 OA
BRANCH  16  18
ATOM     18  O2  2BS d   1      -1.111 -29.618 -11.335  0.00  0.00    -0.318 OA
BRANCH  18  19
ATOM     19  C2  2BS d   1      -0.170 -28.933 -10.513  0.00  0.00     0.026 C 
ATOM     20  H   2BS d   1       0.007 -27.932 -10.906  0.00  0.00     0.074 H 
ATOM     21  H   2BS d   1       0.776 -29.474 -10.502  0.00  0.00     0.074 H 
BRANCH  19  22
ATOM     22  C3  2BS d   1      -0.725 -28.846  -9.122  0.00  0.00    -0.056 C 
ATOM     23  H   2BS d   1      -1.668 -28.300  -9.142  0.00  0.00     0.030 H 
ATOM     24  H   2BS d   1      -0.894 -29.851  -8.736  0.00  0.00     0.030 H 
ATOM     25  H   2BS d   1      -0.015 -28.324  -8.481  0.00  0.00     0.030 H 
ENDBRANCH  19  22
ENDBRANCH  18  19
ENDBRANCH  16  18
ENDBRANCH   3  16
TORSDOF 4
