REMARK  3 active torsions:
REMARK  status: ('A' for Active; 'I' for Inactive)
REMARK    1  A    between atoms: N1_1  and  S2_2 
REMARK    2  A    between atoms: S2_2  and  C5_5 
REMARK    3  A    between atoms: C7_7  and  C11_11 
ROOT
ATOM      1  C11 DA4 d   1      14.994   7.220  13.790  0.00  0.00     0.023 C 
ATOM      2  C12 DA4 d   1      14.792   8.191  13.077  0.00  0.00    -0.186 C 
ATOM      3  H7  DA4 d   1      14.617   9.030  12.461  0.00  0.00     0.154 H 
ENDROOT
BRANCH   1   4
ATOM      4  C7  DA4 d   1      15.745   6.176  14.462  0.00  0.00    -0.016 A 
ATOM      5  C6  DA4 d   1      15.146   5.179  15.243  0.00  0.00    -0.049 A 
ATOM      6  C5  DA4 d   1      15.959   4.224  15.850  0.00  0.00     0.080 A 
ATOM      7  H3  DA4 d   1      14.070   5.151  15.373  0.00  0.00     0.087 H 
ATOM      8  C10 DA4 d   1      17.345   4.204  15.699  0.00  0.00    -0.060 A 
ATOM      9  C9  DA4 d   1      17.937   5.207  14.925  0.00  0.00    -0.081 A 
ATOM     10  H6  DA4 d   1      17.946   3.433  16.168  0.00  0.00     0.085 H 
ATOM     11  C8  DA4 d   1      17.135   6.176  14.305  0.00  0.00    -0.072 A 
ATOM     12  H5  DA4 d   1      19.014   5.235  14.805  0.00  0.00     0.083 H 
ATOM     13  H4  DA4 d   1      17.601   6.939  13.693  0.00  0.00     0.084 H 
BRANCH   6  14
ATOM     14  S2  DA4 d   1      15.282   2.928  16.867  0.00  0.00     0.256 S 
ATOM     15  O3  DA4 d   1      15.859   3.052  18.197  0.00  0.00    -0.201 OA
ATOM     16  O4  DA4 d   1      13.855   3.003  16.795  0.00  0.00    -0.201 OA
BRANCH  14  17
ATOM     17  N1  DA4 d   1      15.808   1.499  16.223  0.00  0.00    -0.324 N 
ATOM     18  H1  DA4 d   1      16.786   1.292  16.198  0.00  0.00     0.169 HD
ATOM     19  H2  DA4 d   1      15.148   0.842  15.859  0.00  0.00     0.169 HD
ENDBRANCH  14  17
ENDBRANCH   6  14
ENDBRANCH   1   4
TORSDOF 3
