REMARK  14 active torsions:
REMARK  status: ('A' for Active; 'I' for Inactive)
REMARK    1  A    between atoms: C1_1  and  C2_2 
REMARK    2  A    between atoms: C2_2  and  C4_4 
REMARK    3  A    between atoms: C4_4  and  C5_5 
REMARK    4  A    between atoms: C4_4  and  N9_9 
REMARK    5  A    between atoms: C5_5  and  C6_6 
REMARK       I    between atoms: N9_9  and  C10_10 
REMARK    6  A    between atoms: C10_10  and  C12_12 
REMARK    7  A    between atoms: N24_24  and  C25_25 
REMARK    8  A    between atoms: C25_25  and  C26_26 
REMARK    9  A    between atoms: C26_26  and  C27_27 
REMARK   10  A    between atoms: C26_26  and  N32_32 
REMARK   11  A    between atoms: C27_27  and  C28_28 
REMARK   12  A    between atoms: C28_28  and  C29_29 
REMARK       I    between atoms: N32_32  and  C33_33 
REMARK   13  A    between atoms: C33_33  and  C35_35 
REMARK   14  A    between atoms: C35_35  and  C36_36 
ROOT
ATOM      1  C12 B92 d   1      19.183  -4.887  11.826  0.00  0.00     0.131 C 
ATOM      2  C13 B92 d   1      18.645  -5.720  12.928  0.00  0.00    -0.066 C 
ATOM      3  C14 B92 d   1      19.391  -6.208  13.925  0.00  0.00    -0.056 C 
ATOM      4  C15 B92 d   1      18.807  -7.066  14.998  0.00  0.00    -0.043 C 
ATOM      5  C16 B92 d   1      19.322  -6.630  16.360  0.00  0.00    -0.061 C 
ATOM      6  C17 B92 d   1      20.822  -6.392  16.368  0.00  0.00    -0.063 C 
ATOM      7  C18 B92 d   1      21.181  -5.301  15.373  0.00  0.00    -0.040 C 
ATOM      8  C19 B92 d   1      20.857  -5.944  14.048  0.00  0.00     0.059 C 
ATOM      9  N20 B92 d   1      21.400  -5.388  12.829  0.00  0.00    -0.226 N 
ATOM     10  N21 B92 d   1      20.620  -5.000  11.765  0.00  0.00    -0.218 N 
ATOM     11  C22 B92 d   1      21.424  -4.601  10.736  0.00  0.00     0.348 A 
ATOM     12  O23 B92 d   1      21.055  -4.166   9.658  0.00  0.00    -0.245 OA
ATOM     13  N24 B92 d   1      22.708  -4.806  11.198  0.00  0.00    -0.247 N 
ATOM     14  C42 B92 d   1      22.719  -5.307  12.481  0.00  0.00     0.348 A 
ATOM     15  O43 B92 d   1      23.687  -5.603  13.171  0.00  0.00    -0.245 OA
ATOM     16  H   B92 d   1      18.646  -5.183  10.925  0.00  0.00     0.097 H 
ATOM     17  H   B92 d   1      17.579  -5.948  12.925  0.00  0.00     0.081 H 
ATOM     18  H   B92 d   1      19.097  -8.102  14.823  0.00  0.00     0.039 H 
ATOM     19  H   B92 d   1      17.721  -6.969  14.980  0.00  0.00     0.039 H 
ATOM     20  H   B92 d   1      19.105  -7.427  17.072  0.00  0.00     0.033 H 
ATOM     21  H   B92 d   1      18.832  -5.692  16.619  0.00  0.00     0.033 H 
ATOM     22  H   B92 d   1      21.333  -7.314  16.089  0.00  0.00     0.033 H 
ATOM     23  H   B92 d   1      21.130  -6.082  17.366  0.00  0.00     0.033 H 
ATOM     24  H   B92 d   1      22.220  -4.981  15.448  0.00  0.00     0.036 H 
ATOM     25  H   B92 d   1      20.634  -4.374  15.542  0.00  0.00     0.036 H 
ATOM     26  H   B92 d   1      21.427  -6.870  14.116  0.00  0.00     0.083 H 
ENDROOT
BRANCH  13  27
ATOM     27  C25 B92 d   1      23.907  -4.529  10.441  0.00  0.00     0.028 C 
ATOM     28  H   B92 d   1      24.570  -3.914  11.050  0.00  0.00     0.068 H 
ATOM     29  H   B92 d   1      23.628  -4.014   9.522  0.00  0.00     0.068 H 
BRANCH  27  30
ATOM     30  C26 B92 d   1      24.633  -5.814  10.078  0.00  0.00     0.029 C 
ATOM     31  H   B92 d   1      25.049  -6.271  10.976  0.00  0.00     0.075 H 
BRANCH  30  32
ATOM     32  C27 B92 d   1      25.793  -5.513   9.143  0.00  0.00    -0.036 C 
ATOM     33  H   B92 d   1      26.267  -4.587   9.469  0.00  0.00     0.036 H 
ATOM     34  H   B92 d   1      25.405  -5.429   8.128  0.00  0.00     0.036 H 
BRANCH  32  35
ATOM     35  C28 B92 d   1      26.832  -6.618   9.169  0.00  0.00     0.018 C 
ATOM     36  H   B92 d   1      26.336  -7.560   9.402  0.00  0.00     0.049 H 
ATOM     37  H   B92 d   1      27.582  -6.376   9.922  0.00  0.00     0.049 H 
BRANCH  35  38
ATOM     38  C29 B92 d   1      27.512  -6.748   7.834  0.00  0.00     0.172 C 
ATOM     39  O30 B92 d   1      27.343  -6.048   6.847  0.00  0.00    -0.648 OA
ATOM     40  O31 B92 d   1      28.379  -7.791   7.836  0.00  0.00    -0.648 OA
ENDBRANCH  35  38
ENDBRANCH  32  35
ENDBRANCH  30  32
BRANCH  30  41
ATOM     41  N32 B92 d   1      23.694  -6.753   9.493  0.00  0.00    -0.355 N 
ATOM     42  C33 B92 d   1      23.329  -7.912  10.144  0.00  0.00     0.222 C 
ATOM     43  O34 B92 d   1      23.489  -8.117  11.340  0.00  0.00    -0.273 OA
ATOM     44  H   B92 d   1      23.294  -6.550   8.577  0.00  0.00     0.162 HD
BRANCH  42  45
ATOM     45  C35 B92 d   1      22.682  -8.956   9.273  0.00  0.00     0.033 C 
ATOM     46  H   B92 d   1      21.603  -8.867   9.401  0.00  0.00     0.054 H 
ATOM     47  H   B92 d   1      23.077  -9.926   9.576  0.00  0.00     0.054 H 
BRANCH  45  48
ATOM     48  C36 B92 d   1      22.976  -8.786   7.822  0.00  0.00    -0.050 A 
ATOM     49  C37 B92 d   1      22.036  -8.208   7.002  0.00  0.00    -0.076 A 
ATOM     50  C38 B92 d   1      22.305  -8.036   5.661  0.00  0.00    -0.082 A 
ATOM     51  H   B92 d   1      21.079  -7.886   7.412  0.00  0.00     0.084 H 
ATOM     52  C39 B92 d   1      23.509  -8.446   5.136  0.00  0.00    -0.083 A 
ATOM     53  H   B92 d   1      21.560  -7.573   5.013  0.00  0.00     0.083 H 
ATOM     54  C40 B92 d   1      24.451  -9.035   5.954  0.00  0.00    -0.082 A 
ATOM     55  H   B92 d   1      23.718  -8.306   4.075  0.00  0.00     0.083 H 
ATOM     56  C41 B92 d   1      24.180  -9.201   7.296  0.00  0.00    -0.076 A 
ATOM     57  H   B92 d   1      25.404  -9.367   5.542  0.00  0.00     0.083 H 
ATOM     58  H   B92 d   1      24.923  -9.664   7.945  0.00  0.00     0.084 H 
ENDBRANCH  45  48
ENDBRANCH  42  45
ENDBRANCH  30  41
ENDBRANCH  27  30
ENDBRANCH  13  27
BRANCH   1  59
ATOM     59  C10 B92 d   1      19.103  -3.409  12.249  0.00  0.00     0.247 C 
ATOM     60  N9  B92 d   1      18.024  -2.701  11.784  0.00  0.00    -0.347 N 
ATOM     61  H   B92 d   1      17.298  -3.190  11.261  0.00  0.00     0.163 HD
ATOM     62  O11 B92 d   1      19.933  -2.835  12.942  0.00  0.00    -0.271 OA
BRANCH  60  63
ATOM     63  C4  B92 d   1      17.888  -1.277  12.016  0.00  0.00     0.078 C 
ATOM     64  H   B92 d   1      18.830  -0.869  12.381  0.00  0.00     0.085 H 
BRANCH  63  65
ATOM     65  C2  B92 d   1      16.759  -1.103  12.995  0.00  0.00     0.146 C 
ATOM     66  O3  B92 d   1      16.161  -0.043  13.138  0.00  0.00    -0.296 OA
BRANCH  65  67
ATOM     67  C1  B92 d   1      16.362  -2.279  13.823  0.00  0.00    -0.019 C 
ATOM     68  H   B92 d   1      16.485  -2.037  14.879  0.00  0.00     0.037 H 
ATOM     69  H   B92 d   1      15.319  -2.526  13.625  0.00  0.00     0.037 H 
ATOM     70  H   B92 d   1      16.993  -3.131  13.568  0.00  0.00     0.037 H 
ENDBRANCH  65  67
ENDBRANCH  63  65
BRANCH  63  71
ATOM     71  C5  B92 d   1      17.501  -0.561  10.735  0.00  0.00     0.041 C 
ATOM     72  H   B92 d   1      16.924   0.325  11.001  0.00  0.00     0.052 H 
ATOM     73  H   B92 d   1      16.927  -1.253  10.118  0.00  0.00     0.052 H 
BRANCH  71  74
ATOM     74  C6  B92 d   1      18.705  -0.119   9.950  0.00  0.00     0.174 C 
ATOM     75  O7  B92 d   1      18.717   0.134   8.752  0.00  0.00    -0.648 OA
ATOM     76  O8  B92 d   1      19.810   0.023  10.720  0.00  0.00    -0.648 OA
ENDBRANCH  71  74
ENDBRANCH  63  71
ENDBRANCH  60  63
ENDBRANCH   1  59
TORSDOF 14
