REMARK  12 active torsions:
REMARK  status: ('A' for Active; 'I' for Inactive)
REMARK    1  A    between atoms: C1_1  and  C2_2 
REMARK    2  A    between atoms: C2_2  and  C4_4 
REMARK    3  A    between atoms: C4_4  and  C5_5 
REMARK    4  A    between atoms: C4_4  and  N9_9 
REMARK    5  A    between atoms: C5_5  and  C6_6 
REMARK       I    between atoms: N9_9  and  C10_10 
REMARK    6  A    between atoms: C10_10  and  C12_12 
REMARK    7  A    between atoms: C14_14  and  C15_15 
REMARK    8  A    between atoms: C15_15  and  C16_16 
REMARK    9  A    between atoms: N27_27  and  C28_28 
REMARK   10  A    between atoms: C28_28  and  C29_29 
REMARK   11  A    between atoms: C29_29  and  N30_30 
REMARK       I    between atoms: N30_30  and  C31_31 
REMARK   12  A    between atoms: C31_31  and  C33_33 
ROOT
ATOM      1  C12 B93 d   1     -10.862  34.383  40.894  0.00  0.00     0.131 C 
ATOM      2  C13 B93 d   1     -12.308  34.750  40.812  0.00  0.00    -0.067 C 
ATOM      3  C14 B93 d   1     -12.988  35.362  41.789  0.00  0.00    -0.061 C 
ATOM      4  C22 B93 d   1     -12.334  35.727  43.083  0.00  0.00     0.040 C 
ATOM      5  N23 B93 d   1     -10.893  35.648  42.943  0.00  0.00    -0.231 N 
ATOM      6  N24 B93 d   1     -10.432  34.524  42.274  0.00  0.00    -0.218 N 
ATOM      7  C25 B93 d   1      -9.162  34.240  42.712  0.00  0.00     0.348 C 
ATOM      8  O26 B93 d   1      -8.342  33.502  42.187  0.00  0.00    -0.245 OA
ATOM      9  N27 B93 d   1      -8.974  35.042  43.809  0.00  0.00    -0.247 N 
ATOM     10  C42 B93 d   1     -10.033  35.896  43.990  0.00  0.00     0.347 C 
ATOM     11  O43 B93 d   1     -10.184  36.707  44.895  0.00  0.00    -0.245 OA
ATOM     12  H   B93 d   1     -10.703  33.362  40.547  0.00  0.00     0.097 H 
ATOM     13  H   B93 d   1     -12.845  34.503  39.896  0.00  0.00     0.081 H 
ATOM     14  H   B93 d   1     -12.660  35.035  43.860  0.00  0.00     0.074 H 
ATOM     15  H   B93 d   1     -12.615  36.745  43.355  0.00  0.00     0.074 H 
ENDROOT
BRANCH   9  16
ATOM     16  C28 B93 d   1      -7.668  35.253  44.396  0.00  0.00     0.023 C 
ATOM     17  H   B93 d   1      -7.525  36.321  44.563  0.00  0.00     0.067 H 
ATOM     18  H   B93 d   1      -6.910  34.864  43.717  0.00  0.00     0.067 H 
BRANCH  16  19
ATOM     19  C29 B93 d   1      -7.553  34.531  45.723  0.00  0.00     0.011 C 
ATOM     20  H   B93 d   1      -8.394  34.832  46.348  0.00  0.00     0.066 H 
ATOM     21  H   B93 d   1      -6.595  34.794  46.172  0.00  0.00     0.066 H 
BRANCH  19  22
ATOM     22  N30 B93 d   1      -7.599  33.093  45.565  0.00  0.00    -0.355 N 
ATOM     23  C31 B93 d   1      -7.691  32.269  46.672  0.00  0.00     0.251 C 
ATOM     24  O32 B93 d   1      -7.864  32.646  47.825  0.00  0.00    -0.268 OA
ATOM     25  H   B93 d   1      -7.563  32.685  44.631  0.00  0.00     0.162 HD
BRANCH  23  26
ATOM     26  C33 B93 d   1      -7.546  30.832  46.379  0.00  0.00     0.034 A 
ATOM     27  C34 B93 d   1      -7.975  30.354  45.160  0.00  0.00    -0.065 A 
ATOM     28  C35 B93 d   1      -7.869  29.024  44.809  0.00  0.00    -0.052 A 
ATOM     29  H   B93 d   1      -8.414  31.052  44.447  0.00  0.00     0.085 H 
ATOM     30  C36 B93 d   1      -7.303  28.223  45.774  0.00  0.00     0.084 A 
ATOM     31  H   B93 d   1      -8.206  28.639  43.846  0.00  0.00     0.087 H 
ATOM     32  N37 B93 d   1      -7.042  26.883  45.782  0.00  0.00    -0.242 NA
ATOM     33  C40 B93 d   1      -6.868  28.677  47.002  0.00  0.00     0.063 A 
ATOM     34  C38 B93 d   1      -6.470  26.570  46.979  0.00  0.00     0.065 A 
ATOM     35  N39 B93 d   1      -6.354  27.640  47.736  0.00  0.00    -0.349 N 
ATOM     36  H   B93 d   1      -6.152  25.569  47.270  0.00  0.00     0.143 H 
ATOM     37  H   B93 d   1      -5.962  27.688  48.676  0.00  0.00     0.167 HD
ATOM     38  C41 B93 d   1      -6.979  30.019  47.339  0.00  0.00    -0.040 A 
ATOM     39  H   B93 d   1      -6.640  30.406  48.300  0.00  0.00     0.088 H 
ENDBRANCH  23  26
ENDBRANCH  19  22
ENDBRANCH  16  19
ENDBRANCH   9  16
BRANCH   1  40
ATOM     40  C10 B93 d   1     -10.083  35.360  40.054  0.00  0.00     0.247 C 
ATOM     41  N9  B93 d   1     -10.081  34.993  38.727  0.00  0.00    -0.347 N 
ATOM     42  H   B93 d   1     -10.534  34.124  38.444  0.00  0.00     0.163 HD
ATOM     43  O11 B93 d   1      -9.528  36.351  40.511  0.00  0.00    -0.271 OA
BRANCH  41  44
ATOM     44  C4  B93 d   1      -9.443  35.827  37.726  0.00  0.00     0.078 C 
ATOM     45  H   B93 d   1      -8.842  36.604  38.200  0.00  0.00     0.085 H 
BRANCH  44  46
ATOM     46  C2  B93 d   1     -10.546  36.414  36.877  0.00  0.00     0.146 C 
ATOM     47  O3  B93 d   1     -10.337  36.786  35.732  0.00  0.00    -0.296 OA
BRANCH  46  48
ATOM     48  C1  B93 d   1     -11.917  36.542  37.459  0.00  0.00    -0.019 C 
ATOM     49  H   B93 d   1     -12.213  37.591  37.461  0.00  0.00     0.037 H 
ATOM     50  H   B93 d   1     -12.621  35.966  36.858  0.00  0.00     0.037 H 
ATOM     51  H   B93 d   1     -11.914  36.162  38.481  0.00  0.00     0.037 H 
ENDBRANCH  46  48
ENDBRANCH  44  46
BRANCH  44  52
ATOM     52  C5  B93 d   1      -8.536  34.985  36.846  0.00  0.00     0.041 C 
ATOM     53  H   B93 d   1      -8.438  35.439  35.860  0.00  0.00     0.052 H 
ATOM     54  H   B93 d   1      -8.956  33.988  36.714  0.00  0.00     0.052 H 
BRANCH  52  55
ATOM     55  C6  B93 d   1      -7.195  34.901  37.517  0.00  0.00     0.174 C 
ATOM     56  O7  B93 d   1      -6.757  35.699  38.329  0.00  0.00    -0.648 OA
ATOM     57  O8  B93 d   1      -6.503  33.822  37.107  0.00  0.00    -0.648 OA
ENDBRANCH  52  55
ENDBRANCH  44  52
ENDBRANCH  41  44
ENDBRANCH   1  40
BRANCH   3  58
ATOM     58  C15 B93 d   1     -14.444  35.658  41.607  0.00  0.00    -0.040 C 
ATOM     59  H   B93 d   1     -14.935  35.264  42.497  0.00  0.00     0.040 H 
ATOM     60  H   B93 d   1     -14.713  35.221  40.645  0.00  0.00     0.040 H 
BRANCH  58  61
ATOM     61  C16 B93 d   1     -14.861  37.111  41.523  0.00  0.00    -0.051 C 
ATOM     62  C17 B93 d   1     -14.059  37.903  40.507  0.00  0.00    -0.061 C 
ATOM     63  C18 B93 d   1     -14.527  39.344  40.489  0.00  0.00    -0.065 C 
ATOM     64  H   B93 d   1     -14.201  37.467  39.518  0.00  0.00     0.033 H 
ATOM     65  H   B93 d   1     -13.004  37.871  40.779  0.00  0.00     0.033 H 
ATOM     66  C19 B93 d   1     -16.002  39.407  40.127  0.00  0.00    -0.065 C 
ATOM     67  H   B93 d   1     -13.952  39.899  39.748  0.00  0.00     0.033 H 
ATOM     68  H   B93 d   1     -14.381  39.781  41.477  0.00  0.00     0.033 H 
ATOM     69  C20 B93 d   1     -16.827  38.596  41.106  0.00  0.00    -0.065 C 
ATOM     70  H   B93 d   1     -16.138  38.997  39.126  0.00  0.00     0.033 H 
ATOM     71  H   B93 d   1     -16.331  40.446  40.164  0.00  0.00     0.033 H 
ATOM     72  C21 B93 d   1     -16.336  37.165  41.161  0.00  0.00    -0.061 C 
ATOM     73  H   B93 d   1     -17.867  38.600  40.779  0.00  0.00     0.033 H 
ATOM     74  H   B93 d   1     -16.734  39.039  42.097  0.00  0.00     0.033 H 
ATOM     75  H   B93 d   1     -16.903  36.629  41.922  0.00  0.00     0.033 H 
ATOM     76  H   B93 d   1     -16.473  36.710  40.180  0.00  0.00     0.033 H 
ATOM     77  H   B93 d   1     -14.671  37.569  42.494  0.00  0.00     0.040 H 
ENDBRANCH  58  61
ENDBRANCH   3  58
TORSDOF 12
