REMARK  11 active torsions:
REMARK  status: ('A' for Active; 'I' for Inactive)
REMARK    1  A    between atoms: C1_1  and  C2_2 
REMARK    2  A    between atoms: C2_2  and  C4_4 
REMARK    3  A    between atoms: C4_4  and  C5_5 
REMARK    4  A    between atoms: C4_4  and  N9_9 
REMARK    5  A    between atoms: C5_5  and  C6_6 
REMARK       I    between atoms: N9_9  and  C10_10 
REMARK    6  A    between atoms: C10_10  and  C12_12 
REMARK    7  A    between atoms: C15_15  and  C16_16 
REMARK    8  A    between atoms: N33_21  and  C34_22 
REMARK    9  A    between atoms: C34_22  and  C35_23 
REMARK   10  A    between atoms: C35_23  and  C36_24 
REMARK   11  A    between atoms: C36_24  and  C37_25 
ROOT
ATOM      1  C12 B94 d   1     -12.237  35.105  41.592  0.00  0.00     0.130 C 
ATOM      2  C13 B94 d   1     -13.646  35.600  41.479  0.00  0.00    -0.072 C 
ATOM      3  C14 B94 d   1     -14.382  36.046  42.504  0.00  0.00    -0.081 C 
ATOM      4  C15 B94 d   1     -13.922  36.130  43.919  0.00  0.00     0.050 C 
ATOM      5  N29 B94 d   1     -12.473  36.000  43.945  0.00  0.00    -0.227 N 
ATOM      6  N30 B94 d   1     -11.892  35.085  42.992  0.00  0.00    -0.218 N 
ATOM      7  C31 B94 d   1     -10.720  34.562  43.540  0.00  0.00     0.348 A 
ATOM      8  O32 B94 d   1      -9.935  33.824  42.969  0.00  0.00    -0.245 OA
ATOM      9  N33 B94 d   1     -10.649  35.053  44.814  0.00  0.00    -0.249 N 
ATOM     10  C40 B94 d   1     -11.688  35.914  45.090  0.00  0.00     0.348 A 
ATOM     11  O41 B94 d   1     -11.907  36.489  46.151  0.00  0.00    -0.245 OA
ATOM     12  H   B94 d   1     -12.136  34.119  41.139  0.00  0.00     0.097 H 
ATOM     13  H   B94 d   1     -14.105  35.597  40.490  0.00  0.00     0.080 H 
ATOM     14  H   B94 d   1     -15.399  36.374  42.287  0.00  0.00     0.079 H 
ATOM     15  H   B94 d   1     -14.189  37.091  44.359  0.00  0.00     0.081 H 
ENDROOT
BRANCH   1  16
ATOM     16  C10 B94 d   1     -11.333  36.103  40.923  0.00  0.00     0.247 C 
ATOM     17  N9  B94 d   1     -11.195  35.821  39.581  0.00  0.00    -0.347 N 
ATOM     18  H   B94 d   1     -11.668  34.993  39.219  0.00  0.00     0.163 HD
ATOM     19  O11 B94 d   1     -10.809  37.034  41.521  0.00  0.00    -0.271 OA
BRANCH  17  20
ATOM     20  C4  B94 d   1     -10.422  36.622  38.645  0.00  0.00     0.078 C 
ATOM     21  H   B94 d   1      -9.779  37.334  39.163  0.00  0.00     0.085 H 
BRANCH  20  22
ATOM     22  C2  B94 d   1     -11.449  37.317  37.764  0.00  0.00     0.146 C 
ATOM     23  O3  B94 d   1     -11.202  37.761  36.649  0.00  0.00    -0.296 OA
BRANCH  22  24
ATOM     24  C1  B94 d   1     -12.851  37.449  38.283  0.00  0.00    -0.019 C 
ATOM     25  H   B94 d   1     -13.121  38.504  38.332  0.00  0.00     0.037 H 
ATOM     26  H   B94 d   1     -13.536  36.928  37.613  0.00  0.00     0.037 H 
ATOM     27  H   B94 d   1     -12.911  37.010  39.279  0.00  0.00     0.037 H 
ENDBRANCH  22  24
ENDBRANCH  20  22
BRANCH  20  28
ATOM     28  C5  B94 d   1      -9.508  35.743  37.803  0.00  0.00     0.041 C 
ATOM     29  H   B94 d   1      -9.402  36.155  36.799  0.00  0.00     0.052 H 
ATOM     30  H   B94 d   1      -9.927  34.742  37.705  0.00  0.00     0.052 H 
BRANCH  28  31
ATOM     31  C6  B94 d   1      -8.171  35.688  38.492  0.00  0.00     0.174 C 
ATOM     32  O7  B94 d   1      -7.784  36.495  39.325  0.00  0.00    -0.648 OA
ATOM     33  O8  B94 d   1      -7.434  34.642  38.071  0.00  0.00    -0.648 OA
ENDBRANCH  28  31
ENDBRANCH  20  28
ENDBRANCH  17  20
ENDBRANCH   1  16
BRANCH   4  34
ATOM     34  C16 B94 d   1     -14.600  35.049  44.732  0.00  0.00    -0.052 C 
ATOM     35  H   B94 d   1     -15.680  35.189  44.691  0.00  0.00     0.030 H 
ATOM     36  H   B94 d   1     -14.343  34.072  44.322  0.00  0.00     0.030 H 
ATOM     37  H   B94 d   1     -14.264  35.110  45.767  0.00  0.00     0.030 H 
ENDBRANCH   4  34
BRANCH   9  38
ATOM     38  C34 B94 d   1      -9.474  34.888  45.642  0.00  0.00     0.009 C 
ATOM     39  H   B94 d   1      -8.911  34.028  45.279  0.00  0.00     0.065 H 
ATOM     40  H   B94 d   1      -9.793  34.743  46.674  0.00  0.00     0.065 H 
BRANCH  38  41
ATOM     41  C35 B94 d   1      -8.583  36.112  45.579  0.00  0.00    -0.041 C 
ATOM     42  H   B94 d   1      -9.157  37.015  45.786  0.00  0.00     0.036 H 
ATOM     43  H   B94 d   1      -8.154  36.223  44.583  0.00  0.00     0.036 H 
BRANCH  41  44
ATOM     44  C36 B94 d   1      -7.494  35.926  46.610  0.00  0.00     0.017 C 
ATOM     45  H   B94 d   1      -6.845  35.112  46.287  0.00  0.00     0.049 H 
ATOM     46  H   B94 d   1      -7.959  35.703  47.570  0.00  0.00     0.049 H 
BRANCH  44  47
ATOM     47  C37 B94 d   1      -6.670  37.163  46.755  0.00  0.00     0.172 C 
ATOM     48  O38 B94 d   1      -6.347  37.932  45.863  0.00  0.00    -0.648 OA
ATOM     49  O39 B94 d   1      -6.306  37.310  48.055  0.00  0.00    -0.648 OA
ENDBRANCH  44  47
ENDBRANCH  41  44
ENDBRANCH  38  41
ENDBRANCH   9  38
TORSDOF 11
