REMARK  6 active torsions:
REMARK  status: ('A' for Active; 'I' for Inactive)
REMARK    1  A    between atoms: C2_12  and  C4_1 
REMARK    2  A    between atoms: C4_1  and  S5_13 
REMARK    3  A    between atoms: S5_13  and  C8_2 
REMARK    4  A    between atoms: C24_8  and  N27_27 
REMARK    5  A    between atoms: C2_12  and  O1_11 
REMARK    6  A    between atoms: C19_22  and  C2_12 
REMARK       I    between atoms: C19_22  and  N21_24 
ROOT
ATOM      1  C22 443 d   1      -1.473 -10.562 -13.187  0.00  0.00    -0.001 C 
ATOM      2  C24 443 d   1      -0.647 -10.916 -10.859  0.00  0.00     0.019 C 
ATOM      3  C26 443 d   1       0.945 -11.194 -12.773  0.00  0.00    -0.001 C 
ATOM      4  C19 443 d   1       0.304  -9.903 -14.767  0.00  0.00     0.249 C 
ATOM      5  O20 443 d   1      -0.535  -9.367 -15.473  0.00  0.00    -0.270 OA
ATOM      6  N21 443 d   1      -0.059 -10.520 -13.618  0.00  0.00    -0.350 N 
ATOM      7  C23 443 d   1      -1.550 -10.032 -11.737  0.00  0.00    -0.031 C 
ATOM      8  C25 443 d   1       0.812 -10.762 -11.310  0.00  0.00    -0.031 C 
ATOM      9  H5  443 d   1      -1.844 -11.597 -13.226  0.00  0.00     0.064 H 
ATOM     10  H6  443 d   1      -2.083  -9.929 -13.848  0.00  0.00     0.064 H 
ATOM     11  H7  443 d   1      -0.957 -11.961 -11.007  0.00  0.00     0.073 H 
ATOM     12  H8  443 d   1       1.951 -10.935 -13.134  0.00  0.00     0.064 H 
ATOM     13  H9  443 d   1       0.800 -12.282 -12.841  0.00  0.00     0.064 H 
ATOM     14  H18 443 d   1      -2.588 -10.083 -11.375  0.00  0.00     0.038 H 
ATOM     15  H19 443 d   1      -1.200  -8.990 -11.701  0.00  0.00     0.038 H 
ATOM     16  H20 443 d   1       1.458 -11.393 -10.682  0.00  0.00     0.038 H 
ATOM     17  H21 443 d   1       1.117  -9.710 -11.210  0.00  0.00     0.038 H 
ENDROOT
BRANCH   4  18
ATOM     18  C2  443 d   1       1.762  -9.846 -15.170  0.00  0.00     0.125 C 
ATOM     19  H13 443 d   1       2.181 -10.861 -15.241  0.00  0.00     0.099 H 
BRANCH  18  20
ATOM     20  C4  443 d   1       1.843  -9.150 -16.529  0.00  0.00     0.065 C 
ATOM     21  H1  443 d   1       1.575  -8.091 -16.398  0.00  0.00     0.061 H 
ATOM     22  H2  443 d   1       1.126  -9.628 -17.212  0.00  0.00     0.061 H 
BRANCH  20  23
ATOM     23  S5  443 d   1       3.491  -9.242 -17.264  0.00  0.00     0.178 S 
ATOM     24  O6  443 d   1       4.090 -10.514 -16.992  0.00  0.00    -0.223 OA
ATOM     25  O7  443 d   1       3.389  -8.744 -18.594  0.00  0.00    -0.223 OA
BRANCH  23  26
ATOM     26  C8  443 d   1       4.435  -8.065 -16.369  0.00  0.00     0.060 A 
ATOM     27  C9  443 d   1       5.391  -8.482 -15.434  0.00  0.00    -0.061 A 
ATOM     28  C10 443 d   1       6.108  -7.576 -14.723  0.00  0.00    -0.071 A 
ATOM     29  H14 443 d   1       5.560  -9.541 -15.277  0.00  0.00     0.085 H 
ATOM     30  C11 443 d   1       5.893  -6.202 -14.926  0.00  0.00    -0.024 A 
ATOM     31  H3  443 d   1       6.844  -7.911 -14.001  0.00  0.00     0.084 H 
ATOM     32  C17 443 d   1       4.924  -5.780 -15.878  0.00  0.00    -0.024 A 
ATOM     33  C12 443 d   1       6.614  -5.241 -14.201  0.00  0.00    -0.051 A 
ATOM     34  C16 443 d   1       4.717  -4.397 -16.077  0.00  0.00    -0.071 A 
ATOM     35  C18 443 d   1       4.201  -6.742 -16.603  0.00  0.00    -0.051 A 
ATOM     36  C15 443 d   1       5.438  -3.490 -15.352  0.00  0.00    -0.061 A 
ATOM     37  H16 443 d   1       3.988  -4.056 -16.803  0.00  0.00     0.084 H 
ATOM     38  C13 443 d   1       6.390  -3.908 -14.398  0.00  0.00     0.034 A 
ATOM     39  H4  443 d   1       5.276  -2.430 -15.513  0.00  0.00     0.086 H 
ATOM     40 CL14 443 d   1       7.287  -2.742 -13.471  0.00  0.00    -0.084 Cl
ATOM     41  H17 443 d   1       3.466  -6.436 -17.339  0.00  0.00     0.087 H 
ATOM     42  H15 443 d   1       7.356  -5.559 -13.478  0.00  0.00     0.087 H 
ENDBRANCH  23  26
ENDBRANCH  20  23
ENDBRANCH  18  20
BRANCH  18  43
ATOM     43  O1  443 d   1       2.478  -9.086 -14.174  0.00  0.00    -0.385 OA
ATOM     44  H12 443 d   1       2.095  -8.220 -14.102  0.00  0.00     0.210 HD
ENDBRANCH  18  43
ENDBRANCH   4  18
BRANCH   2  45
ATOM     45  N27 443 d   1      -0.719 -10.622  -9.415  0.00  0.00    -0.329 N 
ATOM     46  C28 443 d   1       0.002  -9.458  -8.866  0.00  0.00     0.001 C 
ATOM     47  C29 443 d   1      -0.643  -8.947  -7.573  0.00  0.00    -0.035 C 
ATOM     48  H10 443 d   1      -0.007  -8.649  -9.612  0.00  0.00     0.064 H 
ATOM     49  H11 443 d   1       1.041  -9.750  -8.654  0.00  0.00     0.064 H 
ATOM     50  C30 443 d   1      -0.838 -10.106  -6.588  0.00  0.00    -0.002 C 
ATOM     51  H22 443 d   1      -1.620  -8.499  -7.806  0.00  0.00     0.037 H 
ATOM     52  H23 443 d   1       0.009  -8.188  -7.117  0.00  0.00     0.037 H 
ATOM     53  N31 443 d   1      -1.489 -11.233  -7.258  0.00  0.00    -0.343 N 
ATOM     54  H24 443 d   1      -1.466  -9.769  -5.750  0.00  0.00     0.064 H 
ATOM     55  H25 443 d   1       0.142 -10.427  -6.206  0.00  0.00     0.064 H 
ATOM     56  C32 443 d   1      -1.406 -11.438  -8.586  0.00  0.00     0.318 C 
ATOM     57  H26 443 d   1      -2.018 -11.878  -6.706  0.00  0.00     0.164 HD
ATOM     58  O33 443 d   1      -1.981 -12.401  -9.053  0.00  0.00    -0.247 OA
ENDBRANCH   2  45
TORSDOF 6
