REMARK WARNING: 32 MAX_TORS EXCEEDED!!!
REMARK  82 active torsions:
REMARK  status: ('A' for Active; 'I' for Inactive)
REMARK    1  A    between atoms: N_1  and  CA_2 
REMARK    2  A    between atoms: CA_2  and  C_3 
REMARK    3  A    between atoms: CA_2  and  CB_5 
REMARK       I    between atoms: C_3  and  N_10 
REMARK    4  A    between atoms: CB_5  and  CG_6 
REMARK    5  A    between atoms: CG_6  and  CD_7 
REMARK    6  A    between atoms: CD_7  and  CE_8 
REMARK    7  A    between atoms: CE_8  and  NZ_9 
REMARK    8  A    between atoms: N_10  and  CA_11 
REMARK    9  A    between atoms: CA_11  and  C_12 
REMARK   10  A    between atoms: CA_11  and  CB_14 
REMARK       I    between atoms: C_12  and  N_21 
REMARK   11  A    between atoms: CB_14  and  CG_15 
REMARK   12  A    between atoms: CG_15  and  CD_16 
REMARK   13  A    between atoms: CD_16  and  NE_17 
REMARK       I    between atoms: NE_17  and  CZ_18 
REMARK       I    between atoms: CZ_18  and  NH1_19 
REMARK       I    between atoms: CZ_18  and  NH2_20 
REMARK   14  A    between atoms: CA_22  and  C_23 
REMARK       I    between atoms: C_23  and  N_28 
REMARK   15  A    between atoms: CA_29  and  C_30 
REMARK       I    between atoms: C_30  and  N_35 
REMARK   16  A    between atoms: N_35  and  CA_36 
REMARK   17  A    between atoms: CA_36  and  C_37 
REMARK   18  A    between atoms: CA_36  and  CB_39 
REMARK       I    between atoms: C_37  and  N_44 
REMARK   19  A    between atoms: CB_39  and  CG_40 
REMARK   20  A    between atoms: CG_40  and  CD_41 
REMARK   21  A    between atoms: CD_41  and  CE_42 
REMARK   22  A    between atoms: CE_42  and  NZ_43 
REMARK   23  A    between atoms: N_44  and  CA_45 
REMARK   24  A    between atoms: CA_45  and  C_46 
REMARK   25  A    between atoms: CA_45  and  CB_48 
REMARK       I    between atoms: C_46  and  N_52 
REMARK   26  A    between atoms: CB_48  and  CG_49 
REMARK   27  A    between atoms: CG_49  and  CD1_50 
REMARK   28  A    between atoms: CG_49  and  CD2_51 
REMARK   29  A    between atoms: N_52  and  CA_53 
REMARK   30  A    between atoms: CA_53  and  C_54 
REMARK       I    between atoms: C_54  and  N_56 
REMARK   31  A    between atoms: N_56  and  CA_57 
REMARK   32  A    between atoms: CA_57  and  C_58 
REMARK   33  A    between atoms: CA_57  and  CB_60 
REMARK       I    between atoms: C_58  and  N_65 
REMARK   34  A    between atoms: CB_60  and  CG_61 
REMARK   35  A    between atoms: CG_61  and  CD_62 
REMARK       I    between atoms: CD_62  and  NE2_64 
REMARK   36  A    between atoms: N_65  and  CA_66 
REMARK   37  A    between atoms: CA_66  and  C_67 
REMARK   38  A    between atoms: CA_66  and  CB_69 
REMARK       I    between atoms: C_67  and  N_73 
REMARK   39  A    between atoms: CB_69  and  CG1_70 
REMARK   40  A    between atoms: CB_69  and  CG2_71 
REMARK   41  A    between atoms: CG1_70  and  CD1_72 
REMARK   42  A    between atoms: N_73  and  CA_74 
REMARK   43  A    between atoms: CA_74  and  C_75 
REMARK       I    between atoms: C_75  and  N_77 
REMARK   44  A    between atoms: N_77  and  CA_78 
REMARK   45  A    between atoms: CA_78  and  C_79 
REMARK   46  A    between atoms: CA_78  and  CB_81 
REMARK       I    between atoms: C_79  and  N_88 
REMARK   47  A    between atoms: CB_81  and  CG_82 
REMARK   48  A    between atoms: CG_82  and  CD_83 
REMARK   49  A    between atoms: CD_83  and  NE_84 
REMARK       I    between atoms: NE_84  and  CZ_85 
REMARK       I    between atoms: CZ_85  and  NH1_86 
REMARK       I    between atoms: CZ_85  and  NH2_87 
REMARK   50  A    between atoms: N_88  and  CA_89 
REMARK   51  A    between atoms: CA_89  and  C_90 
REMARK   52  A    between atoms: CA_89  and  CB_92 
REMARK       I    between atoms: C_90  and  N_94 
REMARK   53  A    between atoms: CB_92  and  OG_93 
REMARK   54  A    between atoms: N_94  and  CA_95 
REMARK   55  A    between atoms: CA_95  and  C_96 
REMARK   56  A    between atoms: CA_95  and  CB_98 
REMARK       I    between atoms: C_96  and  N_103 
REMARK   57  A    between atoms: CB_98  and  CG_99 
REMARK   58  A    between atoms: CG_99  and  CD_100 
REMARK   59  A    between atoms: CD_100  and  CE_101 
REMARK   60  A    between atoms: CE_101  and  NZ_102 
REMARK   61  A    between atoms: N_103  and  CA_104 
REMARK   62  A    between atoms: CA_104  and  C_105 
REMARK   63  A    between atoms: CA_104  and  CB_107 
REMARK       I    between atoms: C_105  and  N_114 
REMARK   64  A    between atoms: CB_107  and  CG_108 
REMARK   65  A    between atoms: CG_108  and  CD_109 
REMARK   66  A    between atoms: CD_109  and  NE_110 
REMARK       I    between atoms: NE_110  and  CZ_111 
REMARK       I    between atoms: CZ_111  and  NH1_112 
REMARK       I    between atoms: CZ_111  and  NH2_113 
REMARK   67  A    between atoms: N_114  and  CA_115 
REMARK   68  A    between atoms: CA_115  and  C_116 
REMARK   69  A    between atoms: CA_115  and  CB_118 
REMARK       I    between atoms: C_116  and  N_121 
REMARK   70  A    between atoms: CB_118  and  CG1_119 
REMARK   71  A    between atoms: CB_118  and  CG2_120 
REMARK   72  A    between atoms: N_121  and  CA_122 
REMARK   73  A    between atoms: CA_122  and  C_123 
REMARK   74  A    between atoms: CA_122  and  CB_125 
REMARK       I    between atoms: C_123  and  N_128 
REMARK   75  A    between atoms: CB_125  and  CG1_126 
REMARK   76  A    between atoms: CB_125  and  CG2_127 
REMARK   77  A    between atoms: N_128  and  CA_129 
REMARK   78  A    between atoms: CA_129  and  C_130 
REMARK   79  A    between atoms: CA_129  and  CB_132 
REMARK   80  A    between atoms: CB_132  and  CG1_133 
REMARK   81  A    between atoms: CB_132  and  CG2_134 
REMARK   82  A    between atoms: CG1_133  and  CD1_135 
ROOT
ATOM      1  CA  NON d   1      38.995 -23.778  36.033  0.00  0.00     0.092 C 
ATOM      2  H79 NON d   1      38.479 -23.140  36.765  0.00  0.00     0.088 H 
ENDROOT
BRANCH   1   3
ATOM      3  N   NON d   1      38.008 -24.075  35.005  0.00  0.00    -0.346 N 
ATOM      4  C   NON d   1      37.138 -23.133  34.667  0.00  0.00     0.241 C 
ATOM      5  O   NON d   1      37.253 -21.969  35.052  0.00  0.00    -0.271 OA
ATOM      6  H78 NON d   1      37.986 -24.971  34.562  0.00  0.00     0.163 HD
BRANCH   4   7
ATOM      7  CA  NON d   1      35.969 -23.540  33.771  0.00  0.00     0.090 C 
ATOM      8  H71 NON d   1      35.655 -22.652  33.203  0.00  0.00     0.087 H 
BRANCH   7   9
ATOM      9  N   NON d   1      36.304 -24.580  32.810  0.00  0.00    -0.346 N 
ATOM     10  C   NON d   1      37.230 -24.399  31.882  0.00  0.00     0.236 C 
ATOM     11  O   NON d   1      37.832 -23.342  31.744  0.00  0.00    -0.272 OA
ATOM     12  H70 NON d   1      35.822 -25.455  32.852  0.00  0.00     0.163 HD
BRANCH  10  13
ATOM     13  CA  NON d   1      37.517 -25.586  30.982  0.00  0.00     0.069 C 
ATOM     14  H68 NON d   1      36.675 -25.718  30.287  0.00  0.00     0.078 H 
ATOM     15  H69 NON d   1      38.436 -25.387  30.411  0.00  0.00     0.078 H 
BRANCH  13  16
ATOM     16  N   NON d   1      37.693 -26.808  31.745  0.00  0.00    -0.351 N 
ATOM     17  C   NON d   1      38.727 -26.973  32.562  0.00  0.00     0.240 C 
ATOM     18  O   NON d   1      39.613 -26.131  32.673  0.00  0.00    -0.271 OA
ATOM     19  H67 NON d   1      37.020 -27.542  31.654  0.00  0.00     0.163 HD
BRANCH  17  20
ATOM     20  CA  NON d   1      38.777 -28.274  33.365  0.00  0.00     0.089 C 
ATOM     21  H57 NON d   1      39.267 -28.057  34.325  0.00  0.00     0.087 H 
BRANCH  20  22
ATOM     22  N   NON d   1      37.464 -28.813  33.647  0.00  0.00    -0.346 N 
ATOM     23  C   NON d   1      36.502 -28.076  34.177  0.00  0.00     0.241 C 
ATOM     24  O   NON d   1      36.609 -26.875  34.362  0.00  0.00    -0.271 OA
ATOM     25  H56 NON d   1      37.278 -29.772  33.435  0.00  0.00     0.163 HD
BRANCH  23  26
ATOM     26  CA  NON d   1      35.243 -28.815  34.582  0.00  0.00     0.089 C 
ATOM     27  H44 NON d   1      35.537 -29.829  34.890  0.00  0.00     0.087 H 
BRANCH  26  28
ATOM     28  N   NON d   1      34.647 -28.158  35.731  0.00  0.00    -0.346 N 
ATOM     29  C   NON d   1      35.266 -28.195  36.911  0.00  0.00     0.241 C 
ATOM     30  O   NON d   1      36.352 -28.750  37.096  0.00  0.00    -0.271 OA
ATOM     31  H43 NON d   1      33.774 -27.679  35.638  0.00  0.00     0.163 HD
BRANCH  29  32
ATOM     32  CA  NON d   1      34.589 -27.500  38.081  0.00  0.00     0.091 C 
ATOM     33  N   NON d   1      34.960 -28.129  39.355  0.00  0.00    -0.337 N 
ATOM     34  C   NON d   1      34.525 -29.350  39.683  0.00  0.00     0.243 C 
ATOM     35  CD  NON d   1      35.924 -27.302  40.089  0.00  0.00    -0.001 C 
ATOM     36  O   NON d   1      33.809 -30.029  38.947  0.00  0.00    -0.271 OA
ATOM     37  CG  NON d   1      35.602 -25.923  39.590  0.00  0.00    -0.048 C 
ATOM     38  H41 NON d   1      36.959 -27.583  39.844  0.00  0.00     0.064 H 
ATOM     39  H42 NON d   1      35.770 -27.379  41.175  0.00  0.00     0.064 H 
ATOM     40  CB  NON d   1      35.141 -26.067  38.208  0.00  0.00    -0.036 C 
ATOM     41  H39 NON d   1      34.811 -25.473  40.208  0.00  0.00     0.035 H 
ATOM     42  H40 NON d   1      36.500 -25.289  39.625  0.00  0.00     0.035 H 
ATOM     43  H37 NON d   1      34.350 -25.334  37.993  0.00  0.00     0.036 H 
ATOM     44  H38 NON d   1      35.978 -25.919  37.510  0.00  0.00     0.036 H 
ATOM     45  H36 NON d   1      33.498 -27.501  37.941  0.00  0.00     0.087 H 
BRANCH  34  46
ATOM     46  CA  NON d   1      34.949 -29.909  41.052  0.00  0.00     0.092 C 
ATOM     47  N   NON d   1      34.158 -31.047  41.564  0.00  0.00    -0.337 N 
ATOM     48  C   NON d   1      32.935 -30.953  42.093  0.00  0.00     0.243 C 
ATOM     49  CD  NON d   1      35.014 -32.166  41.996  0.00  0.00    -0.001 C 
ATOM     50  O   NON d   1      32.309 -29.891  42.201  0.00  0.00    -0.271 OA
ATOM     51  CG  NON d   1      36.391 -31.567  41.988  0.00  0.00    -0.048 C 
ATOM     52  H34 NON d   1      34.946 -33.009  41.292  0.00  0.00     0.064 H 
ATOM     53  H35 NON d   1      34.738 -32.507  43.005  0.00  0.00     0.064 H 
ATOM     54  CB  NON d   1      36.364 -30.488  40.961  0.00  0.00    -0.036 C 
ATOM     55  H32 NON d   1      36.631 -31.148  42.976  0.00  0.00     0.035 H 
ATOM     56  H33 NON d   1      37.138 -32.330  41.722  0.00  0.00     0.035 H 
ATOM     57  H30 NON d   1      37.115 -29.717  41.187  0.00  0.00     0.036 H 
ATOM     58  H31 NON d   1      36.552 -30.900  39.959  0.00  0.00     0.036 H 
ATOM     59  H29 NON d   1      34.914 -29.085  41.780  0.00  0.00     0.087 H 
BRANCH  48  60
ATOM     60  CA  NON d   1      32.298 -32.274  42.602  0.00  0.00     0.089 C 
ATOM     61  H17 NON d   1      33.016 -33.107  42.585  0.00  0.00     0.087 H 
BRANCH  60  62
ATOM     62  N   NON d   1      31.898 -31.940  43.973  0.00  0.00    -0.346 N 
ATOM     63  C   NON d   1      32.107 -32.776  44.985  0.00  0.00     0.248 C 
ATOM     64  O   NON d   1      31.781 -32.521  46.144  0.00  0.00    -0.271 OA
ATOM     65  H16 NON d   1      31.457 -31.061  44.151  0.00  0.00     0.163 HD
BRANCH  63  66
ATOM     66  CA  NON d   1      32.785 -34.097  44.637  0.00  0.00     0.176 C 
ATOM     67  H4  NON d   1      32.695 -34.770  45.502  0.00  0.00     0.099 H 
BRANCH  66  68
ATOM     68  N   NON d   1      32.142 -34.735  43.494  0.00  0.00    -0.067 N 
ATOM     69  H1  NON d   1      32.610 -35.604  43.287  0.00  0.00     0.275 HD
ATOM     70  H2  NON d   1      32.197 -34.125  42.694  0.00  0.00     0.275 HD
ATOM     71  H3  NON d   1      31.175 -34.918  43.711  0.00  0.00     0.275 HD
ENDBRANCH  66  68
BRANCH  66  72
ATOM     72  CB  NON d   1      34.272 -33.867  44.356  0.00  0.00    -0.030 C 
ATOM     73  H5  NON d   1      34.718 -33.378  45.234  0.00  0.00     0.036 H 
ATOM     74  H6  NON d   1      34.360 -33.204  43.483  0.00  0.00     0.036 H 
BRANCH  72  75
ATOM     75  CG  NON d   1      35.053 -35.140  44.070  0.00  0.00    -0.061 C 
ATOM     76  H7  NON d   1      34.620 -35.636  43.189  0.00  0.00     0.033 H 
ATOM     77  H8  NON d   1      34.980 -35.809  44.941  0.00  0.00     0.033 H 
BRANCH  75  78
ATOM     78  CD  NON d   1      36.518 -34.838  43.798  0.00  0.00    -0.043 C 
ATOM     79  H9  NON d   1      36.952 -34.344  44.680  0.00  0.00     0.035 H 
ATOM     80  H10 NON d   1      36.590 -34.168  42.929  0.00  0.00     0.035 H 
BRANCH  78  81
ATOM     81  CE  NON d   1      37.299 -36.110  43.509  0.00  0.00     0.080 C 
ATOM     82  H11 NON d   1      36.861 -36.604  42.629  0.00  0.00     0.075 H 
ATOM     83  H12 NON d   1      37.225 -36.778  44.380  0.00  0.00     0.075 H 
BRANCH  81  84
ATOM     84  NZ  NON d   1      38.736 -35.830  43.238  0.00  0.00    -0.079 N 
ATOM     85  H13 NON d   1      39.218 -36.696  43.052  0.00  0.00     0.274 HD
ATOM     86  H14 NON d   1      39.148 -35.382  44.041  0.00  0.00     0.274 HD
ATOM     87  H15 NON d   1      38.815 -35.223  42.437  0.00  0.00     0.274 HD
ENDBRANCH  81  84
ENDBRANCH  78  81
ENDBRANCH  75  78
ENDBRANCH  72  75
ENDBRANCH  66  72
ENDBRANCH  63  66
ENDBRANCH  60  62
BRANCH  60  88
ATOM     88  CB  NON d   1      31.069 -32.611  41.729  0.00  0.00    -0.036 C 
ATOM     89  H18 NON d   1      30.311 -31.831  41.892  0.00  0.00     0.036 H 
ATOM     90  H19 NON d   1      30.672 -33.583  42.059  0.00  0.00     0.036 H 
BRANCH  88  91
ATOM     91  CG  NON d   1      31.348 -32.697  40.218  0.00  0.00    -0.048 C 
ATOM     92  H20 NON d   1      32.130 -33.448  40.036  0.00  0.00     0.035 H 
ATOM     93  H21 NON d   1      31.690 -31.716  39.856  0.00  0.00     0.035 H 
BRANCH  91  94
ATOM     94  CD  NON d   1      30.079 -33.098  39.463  0.00  0.00     0.009 C 
ATOM     95  H22 NON d   1      30.344 -33.349  38.425  0.00  0.00     0.064 H 
ATOM     96  H23 NON d   1      29.377 -32.251  39.468  0.00  0.00     0.064 H 
BRANCH  94  97
ATOM     97  NE  NON d   1      29.435 -34.254  40.083  0.00  0.00    -0.227 N 
ATOM     98  CZ  NON d   1      28.188 -34.649  39.843  0.00  0.00     0.665 C 
ATOM     99  NH1 NON d   1      27.703 -35.714  40.468  0.00  0.00    -0.235 N 
ATOM    100  NH2 NON d   1      27.425 -33.985  38.986  0.00  0.00    -0.235 N 
ATOM    101  H25 NON d   1      26.738 -36.023  40.285  0.00  0.00     0.174 HD
ATOM    102  H26 NON d   1      28.292 -36.231  41.136  0.00  0.00     0.174 HD
ATOM    103  H27 NON d   1      27.798 -33.158  38.499  0.00  0.00     0.174 HD
ATOM    104  H28 NON d   1      26.460 -34.297  38.807  0.00  0.00     0.174 HD
ATOM    105  H24 NON d   1      29.988 -34.804  40.756  0.00  0.00     0.177 HD
ENDBRANCH  94  97
ENDBRANCH  91  94
ENDBRANCH  88  91
ENDBRANCH  60  88
ENDBRANCH  48  60
ENDBRANCH  34  46
ENDBRANCH  29  32
ENDBRANCH  26  28
BRANCH  26 106
ATOM    106  CB  NON d   1      34.250 -28.965  33.432  0.00  0.00    -0.038 C 
ATOM    107  H45 NON d   1      34.792 -29.331  32.547  0.00  0.00     0.036 H 
ATOM    108  H46 NON d   1      33.816 -27.978  33.214  0.00  0.00     0.036 H 
BRANCH 106 109
ATOM    109  CG  NON d   1      33.120 -29.932  33.741  0.00  0.00    -0.061 C 
ATOM    110  H47 NON d   1      32.256 -29.357  34.107  0.00  0.00     0.033 H 
ATOM    111  H48 NON d   1      33.457 -30.627  34.525  0.00  0.00     0.033 H 
BRANCH 109 112
ATOM    112  CD  NON d   1      32.686 -30.742  32.528  0.00  0.00    -0.043 C 
ATOM    113  H49 NON d   1      33.577 -31.155  32.031  0.00  0.00     0.035 H 
ATOM    114  H50 NON d   1      32.147 -30.086  31.829  0.00  0.00     0.035 H 
BRANCH 112 115
ATOM    115  CE  NON d   1      31.772 -31.885  32.947  0.00  0.00     0.080 C 
ATOM    116  H51 NON d   1      30.880 -31.460  33.431  0.00  0.00     0.075 H 
ATOM    117  H52 NON d   1      32.312 -32.519  33.666  0.00  0.00     0.075 H 
BRANCH 115 118
ATOM    118  NZ  NON d   1      31.332 -32.733  31.806  0.00  0.00    -0.079 N 
ATOM    119  H53 NON d   1      30.732 -33.469  32.146  0.00  0.00     0.274 HD
ATOM    120  H54 NON d   1      32.139 -33.138  31.357  0.00  0.00     0.274 HD
ATOM    121  H55 NON d   1      30.827 -32.167  31.142  0.00  0.00     0.274 HD
ENDBRANCH 115 118
ENDBRANCH 112 115
ENDBRANCH 109 112
ENDBRANCH 106 109
ENDBRANCH  26 106
ENDBRANCH  23  26
ENDBRANCH  20  22
BRANCH  20 122
ATOM    122  CB  NON d   1      39.602 -29.314  32.628  0.00  0.00    -0.035 C 
ATOM    123  H58 NON d   1      39.038 -29.622  31.735  0.00  0.00     0.037 H 
ATOM    124  H59 NON d   1      39.732 -30.178  33.296  0.00  0.00     0.037 H 
BRANCH 122 125
ATOM    125  CG  NON d   1      40.980 -28.863  32.176  0.00  0.00    -0.059 C 
ATOM    126  H60 NON d   1      40.906 -27.849  31.757  0.00  0.00     0.038 H 
BRANCH 125 127
ATOM    127  CD1 NON d   1      41.938 -28.840  33.345  0.00  0.00    -0.073 C 
ATOM    128  H61 NON d   1      42.929 -28.512  33.000  0.00  0.00     0.028 H 
ATOM    129  H62 NON d   1      42.015 -29.849  33.776  0.00  0.00     0.028 H 
ATOM    130  H63 NON d   1      41.566 -28.142  34.110  0.00  0.00     0.028 H 
ENDBRANCH 125 127
BRANCH 125 131
ATOM    131  CD2 NON d   1      41.484 -29.798  31.113  0.00  0.00    -0.073 C 
ATOM    132  H64 NON d   1      40.779 -29.806  30.268  0.00  0.00     0.028 H 
ATOM    133  H65 NON d   1      41.571 -30.813  31.528  0.00  0.00     0.028 H 
ATOM    134  H66 NON d   1      42.471 -29.459  30.764  0.00  0.00     0.028 H 
ENDBRANCH 125 131
ENDBRANCH 122 125
ENDBRANCH  20 122
ENDBRANCH  17  20
ENDBRANCH  13  16
ENDBRANCH  10  13
ENDBRANCH   7   9
BRANCH   7 135
ATOM    135  CB  NON d   1      34.808 -23.990  34.648  0.00  0.00    -0.030 C 
ATOM    136  H72 NON d   1      34.714 -23.283  35.486  0.00  0.00     0.037 H 
ATOM    137  H73 NON d   1      35.038 -24.992  35.038  0.00  0.00     0.037 H 
BRANCH 135 138
ATOM    138  CG  NON d   1      33.484 -24.054  33.934  0.00  0.00     0.011 C 
ATOM    139  H74 NON d   1      33.651 -24.442  32.918  0.00  0.00     0.047 H 
ATOM    140  H75 NON d   1      33.068 -23.038  33.875  0.00  0.00     0.047 H 
BRANCH 138 141
ATOM    141  CD  NON d   1      32.477 -24.950  34.635  0.00  0.00     0.215 C 
ATOM    142  OE1 NON d   1      32.800 -26.071  35.041  0.00  0.00    -0.274 OA
ATOM    143  NE2 NON d   1      31.243 -24.466  34.767  0.00  0.00    -0.370 N 
ATOM    144  H76 NON d   1      30.538 -25.011  35.220  0.00  0.00     0.159 HD
ATOM    145  H77 NON d   1      31.022 -23.557  34.413  0.00  0.00     0.159 HD
ENDBRANCH 138 141
ENDBRANCH 135 138
ENDBRANCH   7 135
ENDBRANCH   4   7
ENDBRANCH   1   3
BRANCH   1 146
ATOM    146  C   NON d   1      40.172 -22.951  35.508  0.00  0.00     0.241 C 
ATOM    147  O   NON d   1      40.712 -22.104  36.230  0.00  0.00    -0.271 OA
ATOM    148  N   NON d   1      40.560 -23.176  34.258  0.00  0.00    -0.351 N 
ATOM    149  H89 NON d   1      40.072 -23.847  33.700  0.00  0.00     0.163 HD
BRANCH 148 150
ATOM    150  CA  NON d   1      41.688 -22.455  33.696  0.00  0.00     0.069 C 
ATOM    151  H90 NON d   1      41.920 -21.597  34.344  0.00  0.00     0.078 H 
ATOM    152  H91 NON d   1      41.415 -22.094  32.694  0.00  0.00     0.078 H 
BRANCH 150 153
ATOM    153  C   NON d   1      42.919 -23.327  33.582  0.00  0.00     0.236 C 
ATOM    154  O   NON d   1      42.823 -24.536  33.710  0.00  0.00    -0.272 OA
ATOM    155  N   NON d   1      44.080 -22.719  33.366  0.00  0.00    -0.346 N 
ATOM    156  H92 NON d   1      44.129 -21.721  33.414  0.00  0.00     0.163 HD
BRANCH 155 157
ATOM    157  CA  NON d   1      45.289 -23.486  33.059  0.00  0.00     0.089 C 
ATOM    158  H93 NON d   1      45.003 -24.547  33.104  0.00  0.00     0.087 H 
BRANCH 157 159
ATOM    159  C   NON d   1      46.480 -23.317  34.021  0.00  0.00     0.241 C 
ATOM    160  O   NON d   1      47.259 -22.366  33.915  0.00  0.00    -0.271 OA
ATOM    161  N   NON d   1      46.596 -24.227  34.993  0.00  0.00    -0.344 N 
ATOM    162 5H10 NON d   1      45.819 -24.840  35.135  0.00  0.00     0.163 HD
BRANCH 161 163
ATOM    163  CA  NON d   1      47.772 -24.413  35.883  0.00  0.00     0.109 C 
ATOM    164 6H10 NON d   1      47.424 -25.110  36.660  0.00  0.00     0.090 H 
BRANCH 163 165
ATOM    165  C   NON d   1      48.374 -23.224  36.665  0.00  0.00     0.243 C 
ATOM    166  O   NON d   1      47.650 -22.371  37.179  0.00  0.00    -0.271 OA
ATOM    167  N   NON d   1      49.715 -23.181  36.725  0.00  0.00    -0.346 N 
ATOM    168 0H11 NON d   1      50.237 -23.941  36.338  0.00  0.00     0.163 HD
BRANCH 167 169
ATOM    169  CA  NON d   1      50.442 -22.070  37.332  0.00  0.00     0.089 C 
ATOM    170 1H11 NON d   1      50.310 -21.184  36.694  0.00  0.00     0.087 H 
BRANCH 169 171
ATOM    171  C   NON d   1      51.938 -22.371  37.433  0.00  0.00     0.241 C 
ATOM    172  O   NON d   1      52.746 -21.643  36.863  0.00  0.00    -0.271 OA
ATOM    173  N   NON d   1      52.289 -23.438  38.161  0.00  0.00    -0.346 N 
ATOM    174 3H12 NON d   1      51.566 -23.941  38.635  0.00  0.00     0.163 HD
BRANCH 173 175
ATOM    175  CA  NON d   1      53.672 -23.915  38.306  0.00  0.00     0.089 C 
ATOM    176 4H12 NON d   1      53.650 -25.005  38.452  0.00  0.00     0.087 H 
BRANCH 175 177
ATOM    177  C   NON d   1      54.192 -23.305  39.587  0.00  0.00     0.241 C 
ATOM    178  O   NON d   1      53.654 -22.309  40.048  0.00  0.00    -0.271 OA
ATOM    179  N   NON d   1      55.240 -23.912  40.146  0.00  0.00    -0.346 N 
ATOM    180 6H13 NON d   1      55.726 -24.602  39.609  0.00  0.00     0.163 HD
BRANCH 179 181
ATOM    181  CA  NON d   1      55.723 -23.625  41.509  0.00  0.00     0.092 C 
ATOM    182 7H13 NON d   1      55.610 -22.544  41.675  0.00  0.00     0.088 H 
BRANCH 181 183
ATOM    183  C   NON d   1      57.195 -24.004  41.661  0.00  0.00     0.241 C 
ATOM    184  O   NON d   1      57.591 -25.081  41.246  0.00  0.00    -0.271 OA
ATOM    185  N   NON d   1      58.027 -23.165  42.262  0.00  0.00    -0.346 N 
ATOM    186 5H14 NON d   1      57.746 -22.230  42.480  0.00  0.00     0.163 HD
BRANCH 185 187
ATOM    187  CA  NON d   1      59.379 -23.650  42.600  0.00  0.00     0.092 C 
ATOM    188 6H14 NON d   1      59.275 -24.740  42.707  0.00  0.00     0.088 H 
BRANCH 187 189
ATOM    189  C   NON d   1      59.919 -23.141  43.950  0.00  0.00     0.241 C 
ATOM    190  O   NON d   1      59.223 -22.431  44.690  0.00  0.00    -0.271 OA
ATOM    191  N   NON d   1      61.156 -23.523  44.269  0.00  0.00    -0.344 N 
ATOM    192 4H15 NON d   1      61.684 -24.062  43.612  0.00  0.00     0.163 HD
BRANCH 191 193
ATOM    193  CA  NON d   1      61.761 -23.175  45.552  0.00  0.00     0.099 C 
ATOM    194 5H15 NON d   1      61.560 -22.111  45.744  0.00  0.00     0.090 H 
BRANCH 193 195
ATOM    195  C   NON d   1      63.278 -23.372  45.507  0.00  0.00     0.197 C 
ATOM    196  O   NON d   1      63.953 -22.947  44.531  0.00  0.00    -0.646 OA
ATOM    197  O   NON d   1      63.858 -23.965  46.455  0.00  0.00    -0.646 OA
ENDBRANCH 193 195
BRANCH 193 198
ATOM    198  CB  NON d   1      61.137 -24.002  46.719  0.00  0.00    -0.029 C 
ATOM    199 6H15 NON d   1      60.230 -24.486  46.327  0.00  0.00     0.043 H 
BRANCH 198 200
ATOM    200  CG1 NON d   1      60.675 -23.070  47.864  0.00  0.00    -0.063 C 
ATOM    201 7H15 NON d   1      60.576 -22.053  47.456  0.00  0.00     0.033 H 
ATOM    202 8H15 NON d   1      61.451 -23.078  48.644  0.00  0.00     0.033 H 
BRANCH 200 203
ATOM    203  CD1 NON d   1      59.324 -23.456  48.527  0.00  0.00    -0.076 C 
ATOM    204 2H16 NON d   1      59.087 -22.735  49.324  0.00  0.00     0.027 H 
ATOM    205 3H16 NON d   1      59.402 -24.465  48.957  0.00  0.00     0.027 H 
ATOM    206 4H16 NON d   1      58.526 -23.441  47.770  0.00  0.00     0.027 H 
ENDBRANCH 200 203
ENDBRANCH 198 200
BRANCH 198 207
ATOM    207  CG2 NON d   1      62.094 -25.149  47.155  0.00  0.00    -0.070 C 
ATOM    208 9H15 NON d   1      62.365 -25.754  46.277  0.00  0.00     0.028 H 
ATOM    209 0H16 NON d   1      61.590 -25.785  47.897  0.00  0.00     0.028 H 
ATOM    210 1H16 NON d   1      63.004 -24.719  47.599  0.00  0.00     0.028 H 
ENDBRANCH 198 207
ENDBRANCH 193 198
ENDBRANCH 191 193
ENDBRANCH 187 189
BRANCH 187 211
ATOM    211  CB  NON d   1      60.442 -23.427  41.476  0.00  0.00    -0.033 C 
ATOM    212 7H14 NON d   1      60.834 -22.403  41.566  0.00  0.00     0.042 H 
BRANCH 211 213
ATOM    213  CG1 NON d   1      61.579 -24.408  41.650  0.00  0.00    -0.071 C 
ATOM    214 8H14 NON d   1      62.325 -24.249  40.858  0.00  0.00     0.028 H 
ATOM    215 9H14 NON d   1      61.190 -25.435  41.586  0.00  0.00     0.028 H 
ATOM    216 0H15 NON d   1      62.049 -24.254  42.633  0.00  0.00     0.028 H 
ENDBRANCH 211 213
BRANCH 211 217
ATOM    217  CG2 NON d   1      59.847 -23.597  40.091  0.00  0.00    -0.071 C 
ATOM    218 1H15 NON d   1      59.019 -22.886  39.958  0.00  0.00     0.028 H 
ATOM    219 2H15 NON d   1      59.470 -24.624  39.977  0.00  0.00     0.028 H 
ATOM    220 3H15 NON d   1      60.621 -23.404  39.333  0.00  0.00     0.028 H 
ENDBRANCH 211 217
ENDBRANCH 187 211
ENDBRANCH 185 187
ENDBRANCH 181 183
BRANCH 181 221
ATOM    221  CB  NON d   1      54.972 -24.374  42.643  0.00  0.00    -0.033 C 
ATOM    222 8H13 NON d   1      54.600 -25.325  42.233  0.00  0.00     0.042 H 
BRANCH 221 223
ATOM    223  CG1 NON d   1      55.903 -24.689  43.779  0.00  0.00    -0.071 C 
ATOM    224 9H13 NON d   1      55.351 -25.218  44.569  0.00  0.00     0.028 H 
ATOM    225 0H14 NON d   1      56.317 -23.754  44.184  0.00  0.00     0.028 H 
ATOM    226 1H14 NON d   1      56.723 -25.326  43.415  0.00  0.00     0.028 H 
ENDBRANCH 221 223
BRANCH 221 227
ATOM    227  CG2 NON d   1      53.776 -23.577  43.135  0.00  0.00    -0.071 C 
ATOM    228 2H14 NON d   1      53.108 -23.358  42.289  0.00  0.00     0.028 H 
ATOM    229 3H14 NON d   1      54.123 -22.634  43.583  0.00  0.00     0.028 H 
ATOM    230 4H14 NON d   1      53.231 -24.162  43.890  0.00  0.00     0.028 H 
ENDBRANCH 221 227
ENDBRANCH 181 221
ENDBRANCH 179 181
ENDBRANCH 175 177
BRANCH 175 231
ATOM    231  CB  NON d   1      54.477 -23.674  37.031  0.00  0.00    -0.036 C 
ATOM    232 5H12 NON d   1      54.445 -22.596  36.815  0.00  0.00     0.036 H 
ATOM    233 6H12 NON d   1      53.985 -24.226  36.217  0.00  0.00     0.036 H 
BRANCH 231 234
ATOM    234  CG  NON d   1      55.946 -24.098  37.056  0.00  0.00    -0.048 C 
ATOM    235 7H12 NON d   1      56.047 -25.054  37.590  0.00  0.00     0.035 H 
ATOM    236 8H12 NON d   1      56.546 -23.328  37.564  0.00  0.00     0.035 H 
BRANCH 234 237
ATOM    237  CD  NON d   1      56.436 -24.262  35.592  0.00  0.00     0.009 C 
ATOM    238 9H12 NON d   1      55.837 -23.593  34.956  0.00  0.00     0.064 H 
ATOM    239 0H13 NON d   1      56.264 -25.306  35.291  0.00  0.00     0.064 H 
BRANCH 237 240
ATOM    240  NE  NON d   1      57.857 -23.952  35.367  0.00  0.00    -0.227 N 
ATOM    241  CZ  NON d   1      58.484 -24.090  34.196  0.00  0.00     0.665 C 
ATOM    242  NH1 NON d   1      57.827 -24.539  33.132  0.00  0.00    -0.235 N 
ATOM    243  NH2 NON d   1      59.772 -23.784  34.085  0.00  0.00    -0.235 N 
ATOM    244 2H13 NON d   1      58.316 -24.643  32.231  0.00  0.00     0.174 HD
ATOM    245 3H13 NON d   1      56.829 -24.783  33.208  0.00  0.00     0.174 HD
ATOM    246 4H13 NON d   1      60.291 -23.435  34.904  0.00  0.00     0.174 HD
ATOM    247 5H13 NON d   1      60.252 -23.896  33.180  0.00  0.00     0.174 HD
ATOM    248 1H13 NON d   1      58.405 -23.605  36.167  0.00  0.00     0.177 HD
ENDBRANCH 237 240
ENDBRANCH 234 237
ENDBRANCH 231 234
ENDBRANCH 175 231
ENDBRANCH 173 175
ENDBRANCH 169 171
BRANCH 169 249
ATOM    249  CB  NON d   1      49.883 -21.757  38.717  0.00  0.00    -0.038 C 
ATOM    250 2H11 NON d   1      49.938 -22.669  39.329  0.00  0.00     0.036 H 
ATOM    251 3H11 NON d   1      48.832 -21.452  38.608  0.00  0.00     0.036 H 
BRANCH 249 252
ATOM    252  CG  NON d   1      50.627 -20.658  39.430  0.00  0.00    -0.061 C 
ATOM    253 4H11 NON d   1      50.632 -19.759  38.796  0.00  0.00     0.033 H 
ATOM    254 5H11 NON d   1      51.661 -20.985  39.611  0.00  0.00     0.033 H 
BRANCH 252 255
ATOM    255  CD  NON d   1      49.976 -20.320  40.760  0.00  0.00    -0.043 C 
ATOM    256 6H11 NON d   1      50.105 -21.167  41.450  0.00  0.00     0.035 H 
ATOM    257 7H11 NON d   1      48.903 -20.137  40.600  0.00  0.00     0.035 H 
BRANCH 255 258
ATOM    258  CE  NON d   1      50.610 -19.076  41.371  0.00  0.00     0.080 C 
ATOM    259 8H11 NON d   1      50.589 -18.270  40.623  0.00  0.00     0.075 H 
ATOM    260 9H11 NON d   1      51.654 -19.308  41.631  0.00  0.00     0.075 H 
BRANCH 258 261
ATOM    261  NZ  NON d   1      49.911 -18.600  42.600  0.00  0.00    -0.079 N 
ATOM    262 0H12 NON d   1      50.376 -17.779  42.954  0.00  0.00     0.274 HD
ATOM    263 1H12 NON d   1      49.930 -19.325  43.300  0.00  0.00     0.274 HD
ATOM    264 2H12 NON d   1      48.954 -18.374  42.376  0.00  0.00     0.274 HD
ENDBRANCH 258 261
ENDBRANCH 255 258
ENDBRANCH 252 255
ENDBRANCH 249 252
ENDBRANCH 169 249
ENDBRANCH 167 169
ENDBRANCH 163 165
BRANCH 163 265
ATOM    265  CB  NON d   1      48.892 -25.124  35.114  0.00  0.00     0.044 C 
ATOM    266 7H10 NON d   1      48.530 -26.107  34.780  0.00  0.00     0.077 H 
ATOM    267 8H10 NON d   1      49.756 -25.259  35.781  0.00  0.00     0.077 H 
BRANCH 265 268
ATOM    268  OG  NON d   1      49.293 -24.370  33.984  0.00  0.00    -0.398 OA
ATOM    269 9H10 NON d   1      48.551 -24.254  33.403  0.00  0.00     0.209 HD
ENDBRANCH 265 268
ENDBRANCH 163 265
ENDBRANCH 161 163
ENDBRANCH 157 159
BRANCH 157 270
ATOM    270  CB  NON d   1      45.735 -23.184  31.634  0.00  0.00    -0.036 C 
ATOM    271  H94 NON d   1      46.588 -23.834  31.392  0.00  0.00     0.036 H 
ATOM    272  H95 NON d   1      46.051 -22.131  31.585  0.00  0.00     0.036 H 
BRANCH 270 273
ATOM    273  CG  NON d   1      44.664 -23.406  30.607  0.00  0.00    -0.048 C 
ATOM    274  H96 NON d   1      43.693 -23.129  31.042  0.00  0.00     0.035 H 
ATOM    275  H97 NON d   1      44.652 -24.471  30.332  0.00  0.00     0.035 H 
BRANCH 273 276
ATOM    276  CD  NON d   1      44.893 -22.579  29.354  0.00  0.00     0.009 C 
ATOM    277  H98 NON d   1      44.642 -21.529  29.567  0.00  0.00     0.064 H 
ATOM    278  H99 NON d   1      44.242 -22.956  28.552  0.00  0.00     0.064 H 
BRANCH 276 279
ATOM    279  NE  NON d   1      46.279 -22.655  28.914  0.00  0.00    -0.227 N 
ATOM    280  CZ  NON d   1      46.685 -23.178  27.762  0.00  0.00     0.665 C 
ATOM    281  NH1 NON d   1      45.808 -23.671  26.897  0.00  0.00    -0.235 N 
ATOM    282  NH2 NON d   1      47.978 -23.193  27.469  0.00  0.00    -0.235 N 
ATOM    283 1H10 NON d   1      46.133 -24.074  26.007  0.00  0.00     0.174 HD
ATOM    284 2H10 NON d   1      44.802 -23.651  27.116  0.00  0.00     0.174 HD
ATOM    285 3H10 NON d   1      48.662 -22.811  28.138  0.00  0.00     0.174 HD
ATOM    286 4H10 NON d   1      48.298 -23.586  26.573  0.00  0.00     0.174 HD
ATOM    287 0H10 NON d   1      47.000 -22.274  29.544  0.00  0.00     0.177 HD
ENDBRANCH 276 279
ENDBRANCH 273 276
ENDBRANCH 270 273
ENDBRANCH 157 270
ENDBRANCH 155 157
ENDBRANCH 150 153
ENDBRANCH 148 150
ENDBRANCH   1 146
BRANCH   1 288
ATOM    288  CB  NON d   1      39.476 -25.048  36.832  0.00  0.00    -0.030 C 
ATOM    289  H80 NON d   1      40.242 -24.708  37.545  0.00  0.00     0.043 H 
BRANCH 288 290
ATOM    290  CG1 NON d   1      40.142 -26.072  35.913  0.00  0.00    -0.063 C 
ATOM    291  H81 NON d   1      40.902 -25.555  35.309  0.00  0.00     0.033 H 
ATOM    292  H82 NON d   1      39.373 -26.496  35.250  0.00  0.00     0.033 H 
BRANCH 290 293
ATOM    293  CD1 NON d   1      40.816 -27.214  36.660  0.00  0.00    -0.076 C 
ATOM    294  H86 NON d   1      41.271 -27.907  35.937  0.00  0.00     0.027 H 
ATOM    295  H87 NON d   1      40.068 -27.751  37.262  0.00  0.00     0.027 H 
ATOM    296  H88 NON d   1      41.597 -26.810  37.321  0.00  0.00     0.027 H 
ENDBRANCH 290 293
ENDBRANCH 288 290
BRANCH 288 297
ATOM    297  CG2 NON d   1      38.347 -25.675  37.655  0.00  0.00    -0.071 C 
ATOM    298  H83 NON d   1      37.895 -24.908  38.301  0.00  0.00     0.028 H 
ATOM    299  H84 NON d   1      38.754 -26.486  38.277  0.00  0.00     0.028 H 
ATOM    300  H85 NON d   1      37.581 -26.081  36.978  0.00  0.00     0.028 H 
ENDBRANCH 288 297
ENDBRANCH   1 288
TORSDOF 82
