REMARK  14 active torsions:
REMARK  status: ('A' for Active; 'I' for Inactive)
REMARK    1  A    between atoms: C1_1  and  O1_3 
REMARK    2  A    between atoms: C1_1  and  C2_5 
REMARK    3  A    between atoms: C1_1  and  C8_16 
REMARK    4  A    between atoms: C25_33  and  C1_1 
REMARK    5  A    between atoms: C10_18  and  N1_2 
REMARK       I    between atoms: N1_2  and  C11_19 
REMARK    6  A    between atoms: C14_22  and  N2_6 
REMARK    7  A    between atoms: N2_6  and  C28_36 
REMARK    8  A    between atoms: N3_9  and  C13_21 
REMARK       I    between atoms: C22_30  and  N3_9 
REMARK       I    between atoms: N4_12  and  C22_30 
REMARK    9  A    between atoms: C8_16  and  C9_17 
REMARK   10  A    between atoms: C9_17  and  C10_18 
REMARK   11  A    between atoms: C11_19  and  C12_20 
REMARK   12  A    between atoms: C13_21  and  C14_22 
REMARK   13  A    between atoms: C13_21  and  C15_23 
REMARK   14  A    between atoms: C15_23  and  C16_24 
ROOT
ATOM      1  O2  22X d   1      25.814 -10.984 -10.628  0.00  0.00    -0.247 OA
ATOM      2  N3  22X d   1      26.272  -8.766 -10.673  0.00  0.00    -0.337 N 
ATOM      3  N4  22X d   1      26.145  -9.998 -12.594  0.00  0.00    -0.334 N 
ATOM      4  C22 22X d   1      26.076  -9.943 -11.276  0.00  0.00     0.318 C 
ATOM      5  C23 22X d   1      27.523 -11.574 -13.427  0.00  0.00    -0.050 C 
ATOM      6  C24 22X d   1      28.246 -10.442 -14.259  0.00  0.00    -0.056 C 
ATOM      7  C25 22X d   1      28.043  -9.036 -13.595  0.00  0.00    -0.004 C 
ATOM      8  C26 22X d   1      26.508  -8.892 -13.510  0.00  0.00     0.006 C 
ATOM      9  C27 22X d   1      26.045 -11.221 -13.359  0.00  0.00    -0.001 C 
ATOM     10  H6  22X d   1      26.457  -7.962 -11.238  0.00  0.00     0.164 HD
ATOM     11  H35 22X d   1      27.945 -11.621 -12.412  0.00  0.00     0.035 H 
ATOM     12  H36 22X d   1      27.654 -12.547 -13.924  0.00  0.00     0.035 H 
ATOM     13  H37 22X d   1      27.829 -10.422 -15.277  0.00  0.00     0.033 H 
ATOM     14  H38 22X d   1      29.322 -10.664 -14.308  0.00  0.00     0.033 H 
ATOM     15  H39 22X d   1      28.476  -9.043 -12.584  0.00  0.00     0.047 H 
ATOM     16  H40 22X d   1      26.221  -7.916 -13.092  0.00  0.00     0.065 H 
ATOM     17  H41 22X d   1      26.039  -9.020 -14.497  0.00  0.00     0.065 H 
ATOM     18  H42 22X d   1      25.614 -11.050 -14.357  0.00  0.00     0.064 H 
ATOM     19  H43 22X d   1      25.460 -11.990 -12.834  0.00  0.00     0.064 H 
ENDROOT
BRANCH   2  20
ATOM     20  C13 22X d   1      26.227  -8.606  -9.210  0.00  0.00     0.037 C 
ATOM     21  H19 22X d   1      26.447  -9.576  -8.740  0.00  0.00     0.075 H 
BRANCH  20  22
ATOM     22  C14 22X d   1      24.795  -8.224  -8.795  0.00  0.00     0.100 C 
ATOM     23  H20 22X d   1      24.481  -7.356  -9.394  0.00  0.00     0.078 H 
ATOM     24  H21 22X d   1      24.134  -9.076  -9.009  0.00  0.00     0.078 H 
BRANCH  22  25
ATOM     25  N2  22X d   1      24.658  -7.877  -7.367  0.00  0.00    -0.077 N 
ATOM     26  H3  22X d   1      23.681  -7.710  -7.181  0.00  0.00     0.276 HD
ATOM     27  H4  22X d   1      25.180  -7.031  -7.203  0.00  0.00     0.276 HD
BRANCH  25  28
ATOM     28  C28 22X d   1      25.131  -8.890  -6.415  0.00  0.00     0.065 C 
ATOM     29  H44 22X d   1      24.981  -8.526  -5.388  0.00  0.00     0.067 H 
ATOM     30  H45 22X d   1      26.201  -9.080  -6.584  0.00  0.00     0.067 H 
ATOM     31  H46 22X d   1      24.565  -9.822  -6.560  0.00  0.00     0.067 H 
ENDBRANCH  25  28
ENDBRANCH  22  25
ENDBRANCH  20  22
BRANCH  20  32
ATOM     32  C15 22X d   1      27.365  -7.637  -8.808  0.00  0.00    -0.041 C 
ATOM     33  H22 22X d   1      27.367  -7.554  -7.711  0.00  0.00     0.036 H 
ATOM     34  H23 22X d   1      27.144  -6.654  -9.250  0.00  0.00     0.036 H 
BRANCH  32  35
ATOM     35  C16 22X d   1      28.768  -8.046  -9.250  0.00  0.00    -0.052 C 
ATOM     36  C17 22X d   1      29.751  -6.906  -9.076  0.00  0.00    -0.062 C 
ATOM     37  C18 22X d   1      31.127  -7.437  -9.448  0.00  0.00    -0.065 C 
ATOM     38  H25 22X d   1      29.749  -6.563  -8.031  0.00  0.00     0.033 H 
ATOM     39  H26 22X d   1      29.479  -6.070  -9.736  0.00  0.00     0.033 H 
ATOM     40  C19 22X d   1      31.574  -8.590  -8.534  0.00  0.00    -0.065 C 
ATOM     41  H27 22X d   1      31.856  -6.618  -9.366  0.00  0.00     0.033 H 
ATOM     42  H28 22X d   1      31.098  -7.800 -10.486  0.00  0.00     0.033 H 
ATOM     43  C21 22X d   1      30.634  -9.738  -8.866  0.00  0.00    -0.065 C 
ATOM     44  H29 22X d   1      31.478  -8.305  -7.476  0.00  0.00     0.033 H 
ATOM     45  H30 22X d   1      32.617  -8.870  -8.745  0.00  0.00     0.033 H 
ATOM     46  C20 22X d   1      29.247  -9.266  -8.425  0.00  0.00    -0.062 C 
ATOM     47  H33 22X d   1      30.925 -10.645  -8.316  0.00  0.00     0.033 H 
ATOM     48  H34 22X d   1      30.645  -9.945  -9.946  0.00  0.00     0.033 H 
ATOM     49  H31 22X d   1      28.531 -10.090  -8.559  0.00  0.00     0.033 H 
ATOM     50  H32 22X d   1      29.288  -8.984  -7.362  0.00  0.00     0.033 H 
ATOM     51  H24 22X d   1      28.734  -8.324 -10.314  0.00  0.00     0.040 H 
ENDBRANCH  32  35
ENDBRANCH  20  32
ENDBRANCH   2  20
BRANCH   7  52
ATOM     52  C1  22X d   1      28.693  -7.848 -14.390  0.00  0.00     0.090 C 
BRANCH  52  53
ATOM     53  O1  22X d   1      28.128  -7.855 -15.709  0.00  0.00    -0.385 OA
ATOM     54  H2  22X d   1      27.190  -7.714 -15.651  0.00  0.00     0.211 HD
ENDBRANCH  52  53
BRANCH  52  55
ATOM     55  C2  22X d   1      30.186  -8.080 -14.597  0.00  0.00    -0.022 A 
ATOM     56  C3  22X d   1      30.792  -7.819 -15.835  0.00  0.00    -0.074 A 
ATOM     57  C5  22X d   1      32.149  -8.040 -16.127  0.00  0.00    -0.081 A 
ATOM     58  H5  22X d   1      30.168  -7.417 -16.625  0.00  0.00     0.084 H 
ATOM     59  C7  22X d   1      32.972  -8.488 -15.089  0.00  0.00    -0.062 A 
ATOM     60  H8  22X d   1      32.544  -7.869 -17.122  0.00  0.00     0.083 H 
ATOM     61  C6  22X d   1      32.364  -8.687 -13.846  0.00  0.00     0.034 A 
ATOM     62  H9  22X d   1      34.029  -8.672 -15.241  0.00  0.00     0.086 H 
ATOM     63 CL1  22X d   1      33.401  -9.233 -12.504  0.00  0.00    -0.084 Cl
ATOM     64  C4  22X d   1      30.984  -8.522 -13.565  0.00  0.00    -0.053 A 
ATOM     65  H7  22X d   1      30.576  -8.734 -12.583  0.00  0.00     0.087 H 
ENDBRANCH  52  55
BRANCH  52  66
ATOM     66  C8  22X d   1      28.382  -6.566 -13.621  0.00  0.00    -0.030 C 
ATOM     67  H10 22X d   1      28.192  -6.858 -12.578  0.00  0.00     0.038 H 
ATOM     68  H11 22X d   1      27.463  -6.147 -14.058  0.00  0.00     0.038 H 
BRANCH  66  69
ATOM     69  C9  22X d   1      29.396  -5.451 -13.584  0.00  0.00    -0.047 C 
ATOM     70  H12 22X d   1      29.453  -5.012 -14.591  0.00  0.00     0.035 H 
ATOM     71  H13 22X d   1      30.370  -5.888 -13.319  0.00  0.00     0.035 H 
BRANCH  69  72
ATOM     72  C10 22X d   1      29.103  -4.323 -12.596  0.00  0.00    -0.005 C 
ATOM     73  H14 22X d   1      29.140  -4.704 -11.565  0.00  0.00     0.064 H 
ATOM     74  H15 22X d   1      29.840  -3.515 -12.715  0.00  0.00     0.064 H 
BRANCH  72  75
ATOM     75  N1  22X d   1      27.763  -3.830 -12.902  0.00  0.00    -0.361 N 
ATOM     76  C11 22X d   1      27.394  -2.593 -13.274  0.00  0.00     0.213 C 
ATOM     77  O3  22X d   1      28.217  -1.690 -13.490  0.00  0.00    -0.274 OA
ATOM     78  H1  22X d   1      27.024  -4.500 -12.825  0.00  0.00     0.162 HD
BRANCH  76  79
ATOM     79  C12 22X d   1      25.930  -2.408 -13.499  0.00  0.00    -0.003 C 
ATOM     80  H16 22X d   1      25.734  -1.368 -13.798  0.00  0.00     0.040 H 
ATOM     81  H17 22X d   1      25.385  -2.631 -12.570  0.00  0.00     0.040 H 
ATOM     82  H18 22X d   1      25.593  -3.088 -14.295  0.00  0.00     0.040 H 
ENDBRANCH  76  79
ENDBRANCH  72  75
ENDBRANCH  69  72
ENDBRANCH  66  69
ENDBRANCH  52  66
ENDBRANCH   7  52
TORSDOF 14
