REMARK  12 active torsions:
REMARK  status: ('A' for Active; 'I' for Inactive)
REMARK    1  A    between atoms: C2_2  and  N2_3 
REMARK    2  A    between atoms: N2_3  and  C21_14 
REMARK    3  A    between atoms: N5_7  and  C5_6 
REMARK    4  A    between atoms: N7_10  and  C71_28 
REMARK    5  A    between atoms: C24_17  and  O24_18 
REMARK    6  A    between atoms: O24_18  and  C27_21 
REMARK    7  A    between atoms: C27_21  and  C28_22 
REMARK    8  A    between atoms: C28_22  and  N28_23 
REMARK    9  A    between atoms: N28_23  and  C29_24 
REMARK   10  A    between atoms: N28_23  and  C31_26 
REMARK   11  A    between atoms: C29_24  and  C30_25 
REMARK   12  A    between atoms: C31_26  and  C32_27 
ROOT
ATOM      1  C21 LHL d   1      28.377  36.362  83.109  0.00  0.00     0.049 A 
ATOM      2  C22 LHL d   1      29.604  35.902  82.621  0.00  0.00    -0.054 A 
ATOM      3  C23 LHL d   1      30.769  36.543  82.987  0.00  0.00    -0.049 A 
ATOM      4  C24 LHL d   1      30.706  37.643  83.832  0.00  0.00     0.069 A 
ATOM      5  C25 LHL d   1      29.484  38.119  84.333  0.00  0.00    -0.049 A 
ATOM      6  C26 LHL d   1      28.300  37.472  83.965  0.00  0.00    -0.054 A 
ATOM      7  H8  LHL d   1      29.639  35.045  81.958  0.00  0.00     0.087 H 
ATOM      8  H9  LHL d   1      31.726  36.191  82.618  0.00  0.00     0.087 H 
ATOM      9  H10 LHL d   1      29.459  38.976  84.996  0.00  0.00     0.087 H 
ATOM     10  H11 LHL d   1      27.342  37.821  84.333  0.00  0.00     0.087 H 
ENDROOT
BRANCH   1  11
ATOM     11  N2  LHL d   1      27.193  35.642  82.675  0.00  0.00    -0.188 N 
ATOM     12  H1  LHL d   1      27.314  34.881  81.992  0.00  0.00     0.184 HD
BRANCH  11  13
ATOM     13  C2  LHL d   1      25.873  35.924  83.137  0.00  0.00     0.728 A 
ATOM     14  N1  LHL d   1      24.871  35.300  82.470  0.00  0.00    -0.074 NA
ATOM     15  C10 LHL d   1      23.625  35.526  82.863  0.00  0.00     0.032 A 
ATOM     16  C9  LHL d   1      23.357  36.345  83.929  0.00  0.00     0.025 A 
ATOM     17  H7  LHL d   1      22.805  35.056  82.333  0.00  0.00     0.116 H 
ATOM     18  C4  LHL d   1      24.420  36.964  84.560  0.00  0.00     0.162 A 
ATOM     19  C8  LHL d   1      21.942  36.592  84.371  0.00  0.00     0.033 C 
ATOM     20  N3  LHL d   1      25.686  36.767  84.181  0.00  0.00    -0.044 NA
ATOM     21  N5  LHL d   1      24.172  37.844  85.650  0.00  0.00    -0.287 N 
ATOM     22  C6  LHL d   1      22.902  37.945  86.264  0.00  0.00     0.331 C 
ATOM     23  O6  LHL d   1      22.720  38.695  87.233  0.00  0.00    -0.246 OA
ATOM     24  N7  LHL d   1      21.862  37.149  85.743  0.00  0.00    -0.292 N 
ATOM     25  H5  LHL d   1      21.474  37.303  83.674  0.00  0.00     0.072 H 
ATOM     26  H6  LHL d   1      21.393  35.639  84.345  0.00  0.00     0.072 H 
BRANCH  21  27
ATOM     27  C5  LHL d   1      25.274  38.648  86.187  0.00  0.00    -0.008 C 
ATOM     28  H2  LHL d   1      26.186  38.456  85.603  0.00  0.00     0.057 H 
ATOM     29  H3  LHL d   1      25.448  38.376  87.239  0.00  0.00     0.057 H 
ATOM     30  H4  LHL d   1      25.015  39.715  86.122  0.00  0.00     0.057 H 
ENDBRANCH  21  27
BRANCH  24  31
ATOM     31  C71 LHL d   1      20.571  37.154  86.414  0.00  0.00     0.082 A 
ATOM     32  C72 LHL d   1      19.666  38.201  86.174  0.00  0.00     0.062 A 
ATOM     33 CL72 LHL d   1      20.101  39.524  85.114  0.00  0.00    -0.082 Cl
ATOM     34  C73 LHL d   1      18.421  38.199  86.824  0.00  0.00    -0.060 A 
ATOM     35  C74 LHL d   1      18.099  37.165  87.707  0.00  0.00    -0.080 A 
ATOM     36  H27 LHL d   1      17.711  38.998  86.641  0.00  0.00     0.086 H 
ATOM     37  C75 LHL d   1      18.999  36.125  87.950  0.00  0.00    -0.060 A 
ATOM     38  H28 LHL d   1      17.139  37.170  88.210  0.00  0.00     0.083 H 
ATOM     39  C76 LHL d   1      20.240  36.116  87.303  0.00  0.00     0.062 A 
ATOM     40  H29 LHL d   1      18.737  35.328  88.637  0.00  0.00     0.086 H 
ATOM     41 CL76 LHL d   1      21.357  34.821  87.595  0.00  0.00    -0.082 Cl
ENDBRANCH  24  31
ENDBRANCH  11  13
ENDBRANCH   1  11
BRANCH   4  42
ATOM     42  O24 LHL d   1      31.897  38.275  84.172  0.00  0.00    -0.349 OA
BRANCH  42  43
ATOM     43  C27 LHL d   1      31.877  38.840  85.483  0.00  0.00     0.049 C 
ATOM     44  H12 LHL d   1      31.060  38.382  86.060  0.00  0.00     0.077 H 
ATOM     45  H13 LHL d   1      31.707  39.924  85.405  0.00  0.00     0.077 H 
BRANCH  43  46
ATOM     46  C28 LHL d   1      33.214  38.589  86.213  0.00  0.00     0.103 C 
ATOM     47  H14 LHL d   1      33.503  37.536  86.083  0.00  0.00     0.079 H 
ATOM     48  H15 LHL d   1      33.086  38.804  87.284  0.00  0.00     0.079 H 
BRANCH  46  49
ATOM     49  N28 LHL d   1      34.287  39.459  85.667  0.00  0.00    -0.070 N 
ATOM     50  H16 LHL d   1      33.867  40.330  85.383  0.00  0.00     0.279 HD
BRANCH  49  51
ATOM     51  C29 LHL d   1      34.918  38.842  84.479  0.00  0.00     0.080 C 
ATOM     52  H17 LHL d   1      34.139  38.591  83.744  0.00  0.00     0.075 H 
ATOM     53  H18 LHL d   1      35.444  37.925  84.783  0.00  0.00     0.075 H 
BRANCH  51  54
ATOM     54  C30 LHL d   1      35.922  39.815  83.842  0.00  0.00    -0.053 C 
ATOM     55  H19 LHL d   1      36.382  39.343  82.962  0.00  0.00     0.029 H 
ATOM     56  H20 LHL d   1      36.704  40.066  84.574  0.00  0.00     0.029 H 
ATOM     57  H21 LHL d   1      35.399  40.733  83.535  0.00  0.00     0.029 H 
ENDBRANCH  51  54
ENDBRANCH  49  51
BRANCH  49  58
ATOM     58  C31 LHL d   1      35.308  39.754  86.699  0.00  0.00     0.080 C 
ATOM     59  H22 LHL d   1      36.103  40.371  86.254  0.00  0.00     0.075 H 
ATOM     60  H23 LHL d   1      35.738  38.809  87.062  0.00  0.00     0.075 H 
BRANCH  58  61
ATOM     61  C32 LHL d   1      34.684  40.511  87.881  0.00  0.00    -0.053 C 
ATOM     62  H24 LHL d   1      35.459  40.719  88.633  0.00  0.00     0.029 H 
ATOM     63  H25 LHL d   1      33.891  39.897  88.332  0.00  0.00     0.029 H 
ATOM     64  H26 LHL d   1      34.256  41.459  87.524  0.00  0.00     0.029 H 
ENDBRANCH  58  61
ENDBRANCH  49  58
ENDBRANCH  46  49
ENDBRANCH  43  46
ENDBRANCH  42  43
ENDBRANCH   4  42
TORSDOF 12
