REMARK  8 active torsions:
REMARK  status: ('A' for Active; 'I' for Inactive)
REMARK    1  A    between atoms: N3_7  and  C14_18 
REMARK    2  A    between atoms: C16_20  and  N3_7 
REMARK    3  A    between atoms: N3_7  and  C20_24 
REMARK    4  A    between atoms: C6_10  and  C4_8 
REMARK    5  A    between atoms: C7_11  and  C6_10 
REMARK    6  A    between atoms: C8_12  and  C7_11 
REMARK    7  A    between atoms: C14_18  and  C10_14 
REMARK    8  A    between atoms: C15_19  and  C16_20 
ROOT
ATOM      1  C8  3TO d   1      22.789  10.531  20.612  0.00  0.00    -0.057 A 
ATOM      2  C9  3TO d   1      24.171  10.326  20.352  0.00  0.00    -0.069 A 
ATOM      3  C10 3TO d   1      24.896  11.256  19.554  0.00  0.00    -0.030 A 
ATOM      4  C11 3TO d   1      24.239  12.398  19.012  0.00  0.00    -0.075 A 
ATOM      5  C12 3TO d   1      22.855  12.608  19.269  0.00  0.00    -0.082 A 
ATOM      6  C13 3TO d   1      22.130  11.675  20.068  0.00  0.00    -0.077 A 
ATOM      7  H   3TO d   1      24.678   9.454  20.765  0.00  0.00     0.085 H 
ATOM      8  H   3TO d   1      24.795  13.110  18.402  0.00  0.00     0.084 H 
ATOM      9  H   3TO d   1      22.350  13.481  18.856  0.00  0.00     0.083 H 
ATOM     10  H   3TO d   1      21.070  11.836  20.264  0.00  0.00     0.084 H 
ENDROOT
BRANCH   3  11
ATOM     11  C14 3TO d   1      26.365  11.032  19.280  0.00  0.00     0.137 C 
ATOM     12  H   3TO d   1      26.477  10.068  18.785  0.00  0.00     0.087 H 
ATOM     13  H   3TO d   1      26.726  11.853  18.660  0.00  0.00     0.087 H 
BRANCH  11  14
ATOM     14  N3  3TO d   1      27.159  11.008  20.520  0.00  0.00     0.094 N 
BRANCH  14  15
ATOM     15  C16 3TO d   1      28.478  10.422  20.236  0.00  0.00     0.157 C 
ATOM     16  H   3TO d   1      29.135  11.198  19.843  0.00  0.00     0.090 H 
ATOM     17  H   3TO d   1      28.361   9.620  19.507  0.00  0.00     0.090 H 
BRANCH  15  18
ATOM     18  C15 3TO d   1      29.083   9.857  21.497  0.00  0.00     0.080 A 
ATOM     19  O1  3TO d   1      30.032  10.522  22.207  0.00  0.00    -0.325 OA
ATOM     20  C19 3TO d   1      30.308   9.679  23.259  0.00  0.00     0.019 A 
ATOM     21  C18 3TO d   1      29.582   8.555  23.218  0.00  0.00    -0.059 A 
ATOM     22  H   3TO d   1      31.037   9.902  24.039  0.00  0.00     0.123 H 
ATOM     23  C17 3TO d   1      28.762   8.675  22.039  0.00  0.00    -0.051 A 
ATOM     24  H   3TO d   1      29.606   7.726  23.925  0.00  0.00     0.086 H 
ATOM     25  H   3TO d   1      28.033   7.955  21.666  0.00  0.00     0.087 H 
ENDBRANCH  15  18
ENDBRANCH  14  15
BRANCH  14  26
ATOM     26  C20 3TO d   1      27.307  12.373  21.060  0.00  0.00     0.096 C 
ATOM     27  H   3TO d   1      27.812  13.000  20.325  0.00  0.00     0.071 H 
ATOM     28  H   3TO d   1      26.322  12.786  21.276  0.00  0.00     0.071 H 
ATOM     29  H   3TO d   1      27.896  12.338  21.976  0.00  0.00     0.071 H 
ENDBRANCH  14  26
ENDBRANCH  11  14
ENDBRANCH   3  11
BRANCH   1  30
ATOM     30  C7  3TO d   1      22.036   9.519  21.474  0.00  0.00    -0.037 C 
ATOM     31  H   3TO d   1      21.520   8.830  20.805  0.00  0.00     0.040 H 
ATOM     32  H   3TO d   1      22.763   9.021  22.115  0.00  0.00     0.040 H 
BRANCH  30  33
ATOM     33  C6  3TO d   1      20.965  10.185  22.394  0.00  0.00    -0.034 C 
ATOM     34  H   3TO d   1      20.404  10.904  21.796  0.00  0.00     0.040 H 
ATOM     35  H   3TO d   1      20.328   9.398  22.797  0.00  0.00     0.040 H 
BRANCH  33  36
ATOM     36  C4  3TO d   1      21.595  10.931  23.565  0.00  0.00    -0.012 A 
ATOM     37  C3  3TO d   1      22.299  10.251  24.605  0.00  0.00     0.127 A 
ATOM     38  N1  3TO d   1      22.853  11.002  25.647  0.00  0.00    -0.243 NA
ATOM     39  N2  3TO d   1      22.433   8.926  24.594  0.00  0.00    -0.384 N 
ATOM     40  C2  3TO d   1      22.752  12.350  25.718  0.00  0.00     0.004 A 
ATOM     41  C1  3TO d   1      22.064  13.065  24.709  0.00  0.00    -0.065 A 
ATOM     42  H   3TO d   1      23.201  12.886  26.554  0.00  0.00     0.114 H 
ATOM     43  C5  3TO d   1      21.489  12.343  23.637  0.00  0.00    -0.072 A 
ATOM     44  H   3TO d   1      21.979  14.151  24.757  0.00  0.00     0.085 H 
ATOM     45  H   3TO d   1      20.956  12.881  22.853  0.00  0.00     0.084 H 
ATOM     46  H   3TO d   1      22.940   8.458  25.346  0.00  0.00     0.157 HD
ATOM     47  H   3TO d   1      22.029   8.379  23.834  0.00  0.00     0.157 HD
ENDBRANCH  33  36
ENDBRANCH  30  33
ENDBRANCH   1  30
TORSDOF 8
