REMARK  4 active torsions:
REMARK  status: ('A' for Active; 'I' for Inactive)
REMARK    1  A    between atoms: C5_5  and  C6_6 
REMARK    2  A    between atoms: C6_6  and  N7_7 
REMARK       I    between atoms: N7_7  and  C8_8 
REMARK       I    between atoms: C8_8  and  N10_10 
REMARK    3  A    between atoms: C13_13  and  O16_16 
REMARK    4  A    between atoms: O16_16  and  C17_17 
ROOT
ATOM      1  N7  24D d   1      73.558  -8.637  65.125  0.00  0.00    -0.339 N 
ATOM      2  C8  24D d   1      74.688  -8.502  64.416  0.00  0.00     0.318 C 
ATOM      3  O9  24D d   1      75.584  -9.284  64.577  0.00  0.00    -0.247 OA
ATOM      4  N10 24D d   1      74.841  -7.527  63.520  0.00  0.00    -0.334 N 
ATOM      5  C11 24D d   1      76.105  -7.406  62.777  0.00  0.00     0.002 C 
ATOM      6  C12 24D d   1      75.792  -7.107  61.306  0.00  0.00    -0.025 C 
ATOM      7  C13 24D d   1      74.826  -5.914  61.187  0.00  0.00     0.051 C 
ATOM      8  C14 24D d   1      74.376  -5.370  62.547  0.00  0.00    -0.025 C 
ATOM      9  C15 24D d   1      73.769  -6.555  63.301  0.00  0.00     0.002 C 
ATOM     10  H   24D d   1      72.786  -7.981  65.008  0.00  0.00     0.164 HD
ATOM     11  H   24D d   1      76.666  -8.338  62.852  0.00  0.00     0.064 H 
ATOM     12  H   24D d   1      76.703  -6.597  63.197  0.00  0.00     0.064 H 
ATOM     13  H   24D d   1      75.325  -7.985  60.860  0.00  0.00     0.039 H 
ATOM     14  H   24D d   1      76.721  -6.861  60.791  0.00  0.00     0.039 H 
ATOM     15  H   24D d   1      73.934  -6.283  60.681  0.00  0.00     0.084 H 
ATOM     16  H   24D d   1      73.650  -4.566  62.428  0.00  0.00     0.039 H 
ATOM     17  H   24D d   1      75.215  -4.943  63.096  0.00  0.00     0.039 H 
ATOM     18  H   24D d   1      73.348  -6.229  64.252  0.00  0.00     0.064 H 
ATOM     19  H   24D d   1      72.959  -7.002  62.724  0.00  0.00     0.064 H 
ENDROOT
BRANCH   1  20
ATOM     20  C6  24D d   1      73.459  -9.749  66.071  0.00  0.00     0.022 C 
ATOM     21  H   24D d   1      72.406  -9.996  66.210  0.00  0.00     0.071 H 
ATOM     22  H   24D d   1      74.012 -10.598  65.670  0.00  0.00     0.071 H 
BRANCH  20  23
ATOM     23  C5  24D d   1      74.048  -9.379  67.410  0.00  0.00    -0.019 A 
ATOM     24  C4  24D d   1      74.684  -8.172  67.647  0.00  0.00    -0.072 A 
ATOM     25  C3  24D d   1      75.218  -7.883  68.899  0.00  0.00    -0.061 A 
ATOM     26  H   24D d   1      74.767  -7.440  66.844  0.00  0.00     0.084 H 
ATOM     27  C2  24D d   1      75.126  -8.805  69.935  0.00  0.00     0.035 A 
ATOM     28  H   24D d   1      75.712  -6.926  69.069  0.00  0.00     0.086 H 
ATOM     29 CL1  24D d   1      75.801  -8.422  71.504  0.00  0.00    -0.084 Cl
ATOM     30  C25 24D d   1      74.490 -10.020  69.691  0.00  0.00    -0.040 A 
ATOM     31  C23 24D d   1      73.956 -10.293  68.429  0.00  0.00     0.043 A 
ATOM     32  H   24D d   1      74.409 -10.760  70.487  0.00  0.00     0.088 H 
ATOM     33 CL24 24D d   1      73.147 -11.779  68.041  0.00  0.00    -0.084 Cl
ENDBRANCH  20  23
ENDBRANCH   1  20
BRANCH   7  34
ATOM     34  O16 24D d   1      75.426  -4.866  60.415  0.00  0.00    -0.314 OA
BRANCH  34  35
ATOM     35  C17 24D d   1      76.487  -4.148  60.860  0.00  0.00     0.268 A 
ATOM     36  N18 24D d   1      77.235  -4.594  61.857  0.00  0.00    -0.219 NA
ATOM     37  C19 24D d   1      78.270  -3.897  62.282  0.00  0.00     0.008 A 
ATOM     38  C20 24D d   1      78.554  -2.695  61.653  0.00  0.00    -0.049 A 
ATOM     39  H   24D d   1      78.886  -4.256  63.106  0.00  0.00     0.115 H 
ATOM     40  C21 24D d   1      77.757  -2.256  60.606  0.00  0.00     0.008 A 
ATOM     41  H   24D d   1      79.403  -2.095  61.981  0.00  0.00     0.087 H 
ATOM     42  N22 24D d   1      76.740  -3.009  60.237  0.00  0.00    -0.219 NA
ATOM     43  H   24D d   1      77.966  -1.313  60.102  0.00  0.00     0.115 H 
ENDBRANCH  34  35
ENDBRANCH   7  34
TORSDOF 4
