REMARK  1 active torsions:
REMARK  status: ('A' for Active; 'I' for Inactive)
REMARK    1  A    between atoms: CAF_4  and  O01_1 
ROOT
ATOM      1  CAD ES1 d   1      28.158  46.241  15.968  0.00  0.00    -0.033 A 
ATOM      2  CAE ES1 d   1      28.834  46.033  17.196  0.00  0.00     0.005 A 
ATOM      3  CAF ES1 d   1      27.654  45.159  15.267  0.00  0.00     0.079 A 
ATOM      4  CAG ES1 d   1      27.447  41.459  15.519  0.00  0.00    -0.082 A 
ATOM      5  NAH ES1 d   1      28.990  44.745  17.685  0.00  0.00    -0.260 NA
ATOM      6  CAI ES1 d   1      27.289  42.768  15.016  0.00  0.00    -0.068 A 
ATOM      7  CAJ ES1 d   1      28.644  42.344  17.479  0.00  0.00    -0.054 A 
ATOM      8  CAK ES1 d   1      28.123  41.247  16.748  0.00  0.00    -0.081 A 
ATOM      9  CAL ES1 d   1      27.810  43.866  15.757  0.00  0.00     0.026 A 
ATOM     10  CAM ES1 d   1      28.481  43.656  16.980  0.00  0.00     0.069 A 
ATOM     11  H   ES1 d   1      28.035  47.251  15.576  0.00  0.00     0.090 H 
ATOM     12  H   ES1 d   1      29.230  46.882  17.754  0.00  0.00     0.114 H 
ATOM     13  H   ES1 d   1      27.049  40.610  14.963  0.00  0.00     0.083 H 
ATOM     14  H   ES1 d   1      26.774  42.936  14.070  0.00  0.00     0.085 H 
ATOM     15  H   ES1 d   1      29.167  42.177  18.420  0.00  0.00     0.087 H 
ATOM     16  H   ES1 d   1      28.242  40.234  17.133  0.00  0.00     0.083 H 
ENDROOT
BRANCH   3  17
ATOM     17  O01 ES1 d   1      26.967  45.355  14.067  0.00  0.00    -0.360 OA
ATOM     18  H   ES1 d   1      26.689  44.506  13.717  0.00  0.00     0.217 HD
ENDBRANCH   3  17
TORSDOF 1
