REMARK  1 active torsions:
REMARK  status: ('A' for Active; 'I' for Inactive)
REMARK    1  A    between atoms: C6_5  and  N6_6 
ROOT
ATOM      1  N9  ADE d   1      28.259  45.343  16.179  0.00  0.00    -0.333 N 
ATOM      2  C8  ADE d   1      28.566  46.549  16.733  0.00  0.00     0.066 A 
ATOM      3  N7  ADE d   1      28.937  46.347  18.035  0.00  0.00    -0.236 NA
ATOM      4  C5  ADE d   1      28.868  45.027  18.285  0.00  0.00     0.149 A 
ATOM      5  C6  ADE d   1      29.129  44.284  19.442  0.00  0.00     0.155 A 
ATOM      6  N1  ADE d   1      28.971  42.939  19.411  0.00  0.00    -0.222 NA
ATOM      7  C2  ADE d   1      28.546  42.315  18.252  0.00  0.00     0.091 A 
ATOM      8  N3  ADE d   1      28.285  43.052  17.108  0.00  0.00    -0.222 NA
ATOM      9  C4  ADE d   1      28.448  44.403  17.131  0.00  0.00     0.162 A 
ATOM     10  H   ADE d   1      27.945  45.180  15.223  0.00  0.00     0.168 HD
ATOM     11  H   ADE d   1      28.523  47.513  16.225  0.00  0.00     0.143 H 
ATOM     12  H   ADE d   1      28.415  41.233  18.238  0.00  0.00     0.146 H 
ENDROOT
BRANCH   5  13
ATOM     13  N6  ADE d   1      29.544  44.943  20.683  0.00  0.00    -0.382 N 
ATOM     14  H   ADE d   1      29.646  45.957  20.712  0.00  0.00     0.157 HD
ATOM     15  H   ADE d   1      29.730  44.387  21.518  0.00  0.00     0.157 HD
ENDBRANCH   5  13
TORSDOF 1
