REMARK  1 active torsions:
REMARK  status: ('A' for Active; 'I' for Inactive)
REMARK    1  A    between atoms: N1_1  and  C2_2 
ROOT
ATOM      1  C2  1SQ d   1      28.519  43.390  18.145  0.00  0.00     0.132 A 
ATOM      2  N3  1SQ d   1      29.018  44.365  19.047  0.00  0.00    -0.243 NA
ATOM      3  C4  1SQ d   1      29.169  45.726  18.629  0.00  0.00     0.005 A 
ATOM      4  C5  1SQ d   1      28.827  46.098  17.289  0.00  0.00    -0.055 A 
ATOM      5  C6  1SQ d   1      28.318  45.103  16.379  0.00  0.00    -0.021 A 
ATOM      6  C7  1SQ d   1      27.962  45.456  15.035  0.00  0.00    -0.072 A 
ATOM      7  C8  1SQ d   1      27.448  44.430  14.103  0.00  0.00    -0.082 A 
ATOM      8  C9  1SQ d   1      27.292  43.078  14.520  0.00  0.00    -0.082 A 
ATOM      9  C10 1SQ d   1      27.637  42.729  15.848  0.00  0.00    -0.069 A 
ATOM     10  C11 1SQ d   1      28.162  43.770  16.788  0.00  0.00     0.020 A 
ATOM     11  H   1SQ d   1      29.542  46.475  19.327  0.00  0.00     0.114 H 
ATOM     12  H   1SQ d   1      28.951  47.129  16.959  0.00  0.00     0.087 H 
ATOM     13  H   1SQ d   1      28.071  46.487  14.699  0.00  0.00     0.084 H 
ATOM     14  H   1SQ d   1      27.185  44.712  13.084  0.00  0.00     0.083 H 
ATOM     15  H   1SQ d   1      26.914  42.325  13.829  0.00  0.00     0.083 H 
ATOM     16  H   1SQ d   1      27.520  41.700  16.187  0.00  0.00     0.085 H 
ENDROOT
BRANCH   1  17
ATOM     17  N1  1SQ d   1      28.352  42.007  18.562  0.00  0.00    -0.383 N 
ATOM     18  H   1SQ d   1      28.595  41.728  19.513  0.00  0.00     0.157 HD
ATOM     19  H   1SQ d   1      27.992  41.316  17.904  0.00  0.00     0.157 HD
ENDBRANCH   1  17
TORSDOF 1
