REMARK  4 active torsions:
REMARK  status: ('A' for Active; 'I' for Inactive)
REMARK    1  A    between atoms: C2_2  and  O2_9 
REMARK    2  A    between atoms: C3_3  and  O3_10 
REMARK    3  A    between atoms: C5_5  and  O1_8 
REMARK    4  A    between atoms: C6_6  and  O4_11 
ROOT
ATOM      1  C1  TR9 d   1     -16.594 -51.187-132.580  0.00  0.00     0.008 C 
ATOM      2  C2  TR9 d   1     -16.226 -49.735-132.237  0.00  0.00     0.070 C 
ATOM      3  C3  TR9 d   1     -15.064 -49.242-133.085  0.00  0.00     0.088 C 
ATOM      4  C4  TR9 d   1     -13.955 -50.213-133.400  0.00  0.00    -0.001 C 
ATOM      5  C5  TR9 d   1     -14.086 -51.624-132.838  0.00  0.00     0.102 C 
ATOM      6  C6  TR9 d   1     -15.322 -52.094-132.435  0.00  0.00     0.079 C 
ATOM      7  C7  TR9 d   1     -12.865 -49.814-134.155  0.00  0.00    -0.110 C 
ATOM      8  H   TR9 d   1     -16.962 -51.237-133.605  0.00  0.00     0.047 H 
ATOM      9  H   TR9 d   1     -17.370 -51.537-131.899  0.00  0.00     0.047 H 
ATOM     10  H   TR9 d   1     -15.894 -49.684-131.200  0.00  0.00     0.087 H 
ATOM     11  H   TR9 d   1     -14.902 -48.458-133.825  0.00  0.00     0.094 H 
ATOM     12  H   TR9 d   1     -12.061 -50.519-134.366  0.00  0.00     0.067 H 
ATOM     13  H   TR9 d   1     -12.811 -48.795-134.538  0.00  0.00     0.067 H 
ENDROOT
BRANCH   2  14
ATOM     14  O2  TR9 d   1     -17.366 -48.923-132.390  0.00  0.00    -0.392 OA
ATOM     15  H   TR9 d   1     -17.640 -48.928-133.310  0.00  0.00     0.210 HD
ENDBRANCH   2  14
BRANCH   3  16
ATOM     16  O3  TR9 d   1     -15.032 -47.957-133.529  0.00  0.00    -0.388 OA
ATOM     17  H   TR9 d   1     -15.819 -47.496-133.230  0.00  0.00     0.210 HD
ENDBRANCH   3  16
BRANCH   6  18
ATOM     18  O4  TR9 d   1     -15.418 -53.361-131.915  0.00  0.00    -0.362 OA
ATOM     19  H   TR9 d   1     -15.120 -53.998-132.569  0.00  0.00     0.217 HD
ENDBRANCH   6  18
BRANCH   5  20
ATOM     20  O1  TR9 d   1     -12.948 -52.399-132.736  0.00  0.00    -0.358 OA
ATOM     21  H   TR9 d   1     -13.058 -53.198-133.257  0.00  0.00     0.217 HD
ENDBRANCH   5  20
TORSDOF 4
