REMARK  8 active torsions:
REMARK  status: ('A' for Active; 'I' for Inactive)
REMARK    1  A    between atoms: C13_13  and  C14_14 
REMARK    2  A    between atoms: C15_15  and  C22_22 
REMARK    3  A    between atoms: N29_29  and  C16_16 
REMARK    4  A    between atoms: N32_32  and  C17_17 
REMARK    5  A    between atoms: C19_19  and  S41_41 
REMARK    6  A    between atoms: C24_24  and  C20_20 
REMARK    7  A    between atoms: C21_21  and  C26_26 
REMARK       I    between atoms: C24_24  and  N32_32 
REMARK    8  A    between atoms: S41_41  and  C25_25 
ROOT
ATOM      1  C24 LGJ d   1      35.356  29.642  16.419  0.00  0.00     0.275 C 
ATOM      2  N32 LGJ d   1      34.726  30.796  16.936  0.00  0.00    -0.319 N 
ATOM      3  O34 LGJ d   1      36.483  29.316  16.762  0.00  0.00    -0.266 OA
ATOM      4  H   LGJ d   1      33.799  31.024  16.577  0.00  0.00     0.169 HD
ENDROOT
BRANCH   1   5
ATOM      5  C20 LGJ d   1      34.611  28.815  15.444  0.00  0.00     0.129 A 
ATOM      6  C12 LGJ d   1      33.247  28.691  15.288  0.00  0.00    -0.015 A 
ATOM      7  C21 LGJ d   1      33.107  27.778  14.223  0.00  0.00     0.163 A 
ATOM      8  H   LGJ d   1      32.459  29.185  15.857  0.00  0.00     0.091 H 
ATOM      9  N27 LGJ d   1      34.278  27.345  13.742  0.00  0.00    -0.162 NA
ATOM     10  N29 LGJ d   1      35.171  27.979  14.503  0.00  0.00    -0.228 N 
BRANCH   7  11
ATOM     11  C26 LGJ d   1      31.861  27.277  13.604  0.00  0.00     0.436 C 
ATOM     12  F38 LGJ d   1      31.278  28.137  12.711  0.00  0.00    -0.165 F 
ATOM     13  F39 LGJ d   1      32.009  26.149  12.829  0.00  0.00    -0.165 F 
ATOM     14  F40 LGJ d   1      30.888  27.000  14.518  0.00  0.00    -0.165 F 
ENDBRANCH   7  11
BRANCH  10  15
ATOM     15  C16 LGJ d   1      36.525  27.763  14.219  0.00  0.00     0.060 A 
ATOM     16  C7  LGJ d   1      37.345  26.899  14.973  0.00  0.00    -0.055 A 
ATOM     17  C3  LGJ d   1      38.693  26.736  14.607  0.00  0.00    -0.080 A 
ATOM     18  H   LGJ d   1      36.938  26.363  15.831  0.00  0.00     0.087 H 
ATOM     19  C6  LGJ d   1      39.218  27.426  13.495  0.00  0.00    -0.069 A 
ATOM     20  H   LGJ d   1      39.336  26.073  15.186  0.00  0.00     0.083 H 
ATOM     21  C15 LGJ d   1      38.383  28.277  12.751  0.00  0.00     0.014 A 
ATOM     22  H   LGJ d   1      40.264  27.300  13.214  0.00  0.00     0.085 H 
ATOM     23  C11 LGJ d   1      37.042  28.431  13.110  0.00  0.00    -0.042 A 
ATOM     24  H   LGJ d   1      36.395  29.078  12.518  0.00  0.00     0.088 H 
BRANCH  21  25
ATOM     25  C22 LGJ d   1      38.878  28.966  11.572  0.00  0.00     0.162 A 
ATOM     26  N28 LGJ d   1      40.090  28.930  11.124  0.00  0.00    -0.151 NA
ATOM     27  N31 LGJ d   1      40.033  29.704   9.992  0.00  0.00    -0.227 N 
ATOM     28  C23 LGJ d   1      38.738  30.184   9.761  0.00  0.00     0.342 A 
ATOM     29  H   LGJ d   1      40.834  29.905   9.393  0.00  0.00     0.194 HD
ATOM     30  N30 LGJ d   1      38.005  29.677  10.809  0.00  0.00    -0.290 N 
ATOM     31  O33 LGJ d   1      38.358  30.898   8.832  0.00  0.00    -0.245 OA
ATOM     32  H   LGJ d   1      37.008  29.808  10.979  0.00  0.00     0.172 HD
ENDBRANCH  21  25
ENDBRANCH  10  15
ENDBRANCH   1   5
BRANCH   2  33
ATOM     33  C17 LGJ d   1      35.270  31.652  17.900  0.00  0.00     0.074 A 
ATOM     34  C8  LGJ d   1      35.895  31.136  19.056  0.00  0.00    -0.053 A 
ATOM     35  C5  LGJ d   1      36.451  32.037  19.990  0.00  0.00    -0.070 A 
ATOM     36  H   LGJ d   1      35.947  30.060  19.224  0.00  0.00     0.087 H 
ATOM     37  C13 LGJ d   1      36.382  33.431  19.773  0.00  0.00    -0.021 A 
ATOM     38  H   LGJ d   1      36.938  31.653  20.887  0.00  0.00     0.084 H 
ATOM     39  C10 LGJ d   1      35.775  33.924  18.616  0.00  0.00    -0.033 A 
ATOM     40  C18 LGJ d   1      35.220  33.036  17.695  0.00  0.00     0.143 A 
ATOM     41  H   LGJ d   1      35.735  34.998  18.434  0.00  0.00     0.089 H 
ATOM     42  F37 LGJ d   1      34.631  33.528  16.604  0.00  0.00    -0.204 F 
BRANCH  37  43
ATOM     43  C14 LGJ d   1      36.962  34.388  20.710  0.00  0.00    -0.004 A 
ATOM     44  C4  LGJ d   1      38.275  34.828  20.439  0.00  0.00    -0.071 A 
ATOM     45  C1  LGJ d   1      38.919  35.751  21.272  0.00  0.00    -0.082 A 
ATOM     46  H   LGJ d   1      38.798  34.442  19.564  0.00  0.00     0.084 H 
ATOM     47  C2  LGJ d   1      38.244  36.255  22.395  0.00  0.00    -0.082 A 
ATOM     48  H   LGJ d   1      39.936  36.075  21.050  0.00  0.00     0.083 H 
ATOM     49  C9  LGJ d   1      36.940  35.822  22.671  0.00  0.00    -0.061 A 
ATOM     50  H   LGJ d   1      38.731  36.979  23.048  0.00  0.00     0.083 H 
ATOM     51  C19 LGJ d   1      36.282  34.895  21.831  0.00  0.00     0.070 A 
ATOM     52  H   LGJ d   1      36.423  36.207  23.550  0.00  0.00     0.085 H 
BRANCH  51  53
ATOM     53  S41 LGJ d   1      34.630  34.410  22.256  0.00  0.00     0.172 S 
ATOM     54  O35 LGJ d   1      33.778  34.622  21.097  0.00  0.00    -0.223 OA
ATOM     55  O36 LGJ d   1      34.691  33.083  22.882  0.00  0.00    -0.223 OA
BRANCH  53  56
ATOM     56  C25 LGJ d   1      34.150  35.542  23.531  0.00  0.00     0.020 C 
ATOM     57  H   LGJ d   1      34.264  36.564  23.170  0.00  0.00     0.049 H 
ATOM     58  H   LGJ d   1      33.109  35.364  23.800  0.00  0.00     0.049 H 
ATOM     59  H   LGJ d   1      34.783  35.392  24.406  0.00  0.00     0.049 H 
ENDBRANCH  53  56
ENDBRANCH  51  53
ENDBRANCH  37  43
ENDBRANCH   2  33
TORSDOF 8
