REMARK  7 active torsions:
REMARK  status: ('A' for Active; 'I' for Inactive)
REMARK    1  A    between atoms: C13_13  and  C14_14 
REMARK    2  A    between atoms: C15_15  and  C22_22 
REMARK    3  A    between atoms: N31_31  and  C17_17 
REMARK    4  A    between atoms: N34_34  and  C18_18 
REMARK    5  A    between atoms: C19_19  and  S42_42 
REMARK    6  A    between atoms: C21_21  and  C28_28 
REMARK    7  A    between atoms: S42_42  and  C27_27 
ROOT
ATOM      1  C16 LGK d   1      33.180  28.769  15.169  0.00  0.00     0.013 A 
ATOM      2  C20 LGK d   1      34.542  28.826  15.332  0.00  0.00     0.135 A 
ATOM      3  C21 LGK d   1      32.993  27.812  14.163  0.00  0.00     0.169 A 
ATOM      4  C23 LGK d   1      35.232  29.673  16.275  0.00  0.00     0.277 C 
ATOM      5  C25 LGK d   1      32.269  29.612  15.980  0.00  0.00    -0.021 C 
ATOM      6  C26 LGK d   1      33.035  30.846  16.523  0.00  0.00     0.007 C 
ATOM      7  N29 LGK d   1      34.141  27.302  13.713  0.00  0.00    -0.162 NA
ATOM      8  N31 LGK d   1      35.064  27.906  14.466  0.00  0.00    -0.227 N 
ATOM      9  N34 LGK d   1      34.399  30.503  17.054  0.00  0.00    -0.312 N 
ATOM     10  O35 LGK d   1      36.441  29.668  16.369  0.00  0.00    -0.265 OA
ATOM     11  H   LGK d   1      31.889  29.027  16.818  0.00  0.00     0.042 H 
ATOM     12  H   LGK d   1      31.441  29.949  15.357  0.00  0.00     0.042 H 
ATOM     13  H   LGK d   1      32.453  31.263  17.345  0.00  0.00     0.065 H 
ATOM     14  H   LGK d   1      33.166  31.546  15.697  0.00  0.00     0.065 H 
ENDROOT
BRANCH   9  15
ATOM     15  C18 LGK d   1      35.016  31.401  17.998  0.00  0.00     0.037 A 
ATOM     16  C9  LGK d   1      35.639  30.932  19.163  0.00  0.00    -0.056 A 
ATOM     17  C5  LGK d   1      36.226  31.854  20.039  0.00  0.00    -0.070 A 
ATOM     18  H   LGK d   1      35.666  29.865  19.384  0.00  0.00     0.087 H 
ATOM     19  C13 LGK d   1      36.214  33.232  19.742  0.00  0.00    -0.024 A 
ATOM     20  H   LGK d   1      36.696  31.503  20.958  0.00  0.00     0.084 H 
ATOM     21  C6  LGK d   1      35.611  33.690  18.563  0.00  0.00    -0.070 A 
ATOM     22  C10 LGK d   1      35.019  32.772  17.688  0.00  0.00    -0.056 A 
ATOM     23  H   LGK d   1      35.603  34.755  18.329  0.00  0.00     0.084 H 
ATOM     24  H   LGK d   1      34.559  33.121  16.764  0.00  0.00     0.087 H 
BRANCH  19  25
ATOM     25  C14 LGK d   1      36.831  34.192  20.651  0.00  0.00    -0.004 A 
ATOM     26  C4  LGK d   1      38.149  34.593  20.389  0.00  0.00    -0.071 A 
ATOM     27  C1  LGK d   1      38.806  35.511  21.214  0.00  0.00    -0.082 A 
ATOM     28  H   LGK d   1      38.671  34.181  19.526  0.00  0.00     0.084 H 
ATOM     29  C2  LGK d   1      38.136  36.038  22.323  0.00  0.00    -0.082 A 
ATOM     30  H   LGK d   1      39.830  35.813  20.995  0.00  0.00     0.083 H 
ATOM     31  C11 LGK d   1      36.821  35.639  22.594  0.00  0.00    -0.061 A 
ATOM     32  H   LGK d   1      38.635  36.756  22.974  0.00  0.00     0.083 H 
ATOM     33  C19 LGK d   1      36.157  34.717  21.766  0.00  0.00     0.070 A 
ATOM     34  H   LGK d   1      36.304  36.050  23.461  0.00  0.00     0.085 H 
BRANCH  33  35
ATOM     35  S42 LGK d   1      34.490  34.300  22.203  0.00  0.00     0.172 S 
ATOM     36  O37 LGK d   1      34.114  35.186  23.300  0.00  0.00    -0.223 OA
ATOM     37  O38 LGK d   1      33.665  34.281  21.005  0.00  0.00    -0.223 OA
BRANCH  35  38
ATOM     38  C27 LGK d   1      34.526  32.654  22.868  0.00  0.00     0.020 C 
ATOM     39  H   LGK d   1      35.257  32.605  23.675  0.00  0.00     0.049 H 
ATOM     40  H   LGK d   1      33.539  32.398  23.254  0.00  0.00     0.049 H 
ATOM     41  H   LGK d   1      34.804  31.952  22.082  0.00  0.00     0.049 H 
ENDBRANCH  35  38
ENDBRANCH  33  35
ENDBRANCH  19  25
ENDBRANCH   9  15
BRANCH   8  42
ATOM     42  C17 LGK d   1      36.408  27.680  14.205  0.00  0.00     0.060 A 
ATOM     43  C8  LGK d   1      37.263  26.900  14.991  0.00  0.00    -0.055 A 
ATOM     44  C3  LGK d   1      38.625  26.787  14.613  0.00  0.00    -0.080 A 
ATOM     45  H   LGK d   1      36.889  26.388  15.878  0.00  0.00     0.087 H 
ATOM     46  C7  LGK d   1      39.121  27.468  13.479  0.00  0.00    -0.069 A 
ATOM     47  H   LGK d   1      39.298  26.167  15.205  0.00  0.00     0.083 H 
ATOM     48  C15 LGK d   1      38.235  28.242  12.702  0.00  0.00     0.014 A 
ATOM     49  H   LGK d   1      40.174  27.396  13.208  0.00  0.00     0.085 H 
ATOM     50  C12 LGK d   1      36.895  28.347  13.085  0.00  0.00    -0.042 A 
ATOM     51  H   LGK d   1      36.218  28.964  12.494  0.00  0.00     0.088 H 
BRANCH  48  52
ATOM     52  C22 LGK d   1      38.694  28.932  11.507  0.00  0.00     0.162 A 
ATOM     53  N30 LGK d   1      39.912  28.912  11.065  0.00  0.00    -0.151 NA
ATOM     54  N33 LGK d   1      39.864  29.679   9.930  0.00  0.00    -0.227 N 
ATOM     55  C24 LGK d   1      38.571  30.152   9.687  0.00  0.00     0.342 A 
ATOM     56  H   LGK d   1      40.670  29.879   9.338  0.00  0.00     0.194 HD
ATOM     57  N32 LGK d   1      37.818  29.641  10.733  0.00  0.00    -0.290 N 
ATOM     58  O36 LGK d   1      38.222  30.866   8.749  0.00  0.00    -0.245 OA
ATOM     59  H   LGK d   1      36.819  29.768  10.892  0.00  0.00     0.172 HD
ENDBRANCH  48  52
ENDBRANCH   8  42
BRANCH   3  60
ATOM     60  C28 LGK d   1      31.739  27.357  13.552  0.00  0.00     0.436 C 
ATOM     61  F39 LGK d   1      30.751  27.041  14.453  0.00  0.00    -0.164 F 
ATOM     62  F40 LGK d   1      31.187  28.278  12.690  0.00  0.00    -0.164 F 
ATOM     63  F41 LGK d   1      31.896  26.273  12.727  0.00  0.00    -0.164 F 
ENDBRANCH   3  60
TORSDOF 7
