REMARK  7 active torsions:
REMARK  status: ('A' for Active; 'I' for Inactive)
REMARK    1  A    between atoms: C14_14  and  C13_13 
REMARK    2  A    between atoms: C15_15  and  C22_22 
REMARK    3  A    between atoms: C31_31  and  C17_17 
REMARK    4  A    between atoms: N35_35  and  C18_18 
REMARK    5  A    between atoms: C19_19  and  N38_38 
REMARK    6  A    between atoms: C21_21  and  C32_32 
REMARK    7  A    between atoms: C31_31  and  N39_39 
ROOT
ATOM      1  C5  LGL d   1      37.538  31.877  19.860  0.00  0.00    -0.070 A 
ATOM      2  C6  LGL d   1      36.801  33.762  18.492  0.00  0.00    -0.070 A 
ATOM      3  C10 LGL d   1      36.867  30.995  19.004  0.00  0.00    -0.056 A 
ATOM      4  C11 LGL d   1      36.127  32.881  17.640  0.00  0.00    -0.056 A 
ATOM      5  C13 LGL d   1      37.503  33.266  19.602  0.00  0.00    -0.025 A 
ATOM      6  C19 LGL d   1      36.145  31.501  17.898  0.00  0.00     0.037 A 
ATOM      7  H   LGL d   1      38.085  31.494  20.721  0.00  0.00     0.084 H 
ATOM      8  H   LGL d   1      36.781  34.834  18.294  0.00  0.00     0.084 H 
ATOM      9  H   LGL d   1      36.901  29.921  19.189  0.00  0.00     0.087 H 
ATOM     10  H   LGL d   1      35.587  33.266  16.775  0.00  0.00     0.087 H 
ENDROOT
BRANCH   6  11
ATOM     11  N38 LGL d   1      35.470  30.621  16.966  0.00  0.00    -0.312 N 
ATOM     12  C23 LGL d   1      36.286  29.755  16.181  0.00  0.00     0.277 C 
ATOM     13  C20 LGL d   1      35.554  28.919  15.248  0.00  0.00     0.135 A 
ATOM     14  O40 LGL d   1      37.508  29.712  16.264  0.00  0.00    -0.265 OA
ATOM     15  C16 LGL d   1      34.187  28.898  15.087  0.00  0.00     0.013 A 
ATOM     16  N35 LGL d   1      36.034  27.984  14.391  0.00  0.00    -0.227 N 
ATOM     17  C21 LGL d   1      33.972  27.933  14.083  0.00  0.00     0.169 A 
ATOM     18  C25 LGL d   1      33.312  29.778  15.888  0.00  0.00    -0.021 C 
ATOM     19  N33 LGL d   1      35.107  27.386  13.644  0.00  0.00    -0.162 NA
ATOM     20  C28 LGL d   1      34.117  30.983  16.444  0.00  0.00     0.007 C 
ATOM     21  H   LGL d   1      32.905  29.208  16.723  0.00  0.00     0.042 H 
ATOM     22  H   LGL d   1      32.508  30.151  15.254  0.00  0.00     0.042 H 
ATOM     23  H   LGL d   1      33.548  31.395  17.278  0.00  0.00     0.065 H 
ATOM     24  H   LGL d   1      34.264  31.681  15.620  0.00  0.00     0.065 H 
BRANCH  17  25
ATOM     25  C32 LGL d   1      32.713  27.503  13.456  0.00  0.00     0.436 C 
ATOM     26  F42 LGL d   1      32.851  26.451  12.567  0.00  0.00    -0.164 F 
ATOM     27  F43 LGL d   1      31.712  27.172  14.357  0.00  0.00    -0.164 F 
ATOM     28  F44 LGL d   1      32.214  28.479  12.622  0.00  0.00    -0.164 F 
ENDBRANCH  17  25
BRANCH  16  29
ATOM     29  C18 LGL d   1      37.359  27.692  14.143  0.00  0.00     0.060 A 
ATOM     30  C9  LGL d   1      38.124  26.842  14.957  0.00  0.00    -0.055 A 
ATOM     31  C3  LGL d   1      39.464  26.623  14.625  0.00  0.00    -0.080 A 
ATOM     32  H   LGL d   1      37.682  26.362  15.830  0.00  0.00     0.087 H 
ATOM     33  C7  LGL d   1      40.028  27.256  13.496  0.00  0.00    -0.069 A 
ATOM     34  H   LGL d   1      40.075  25.962  15.239  0.00  0.00     0.083 H 
ATOM     35  C15 LGL d   1      39.244  28.109  12.703  0.00  0.00     0.014 A 
ATOM     36  H   LGL d   1      41.073  27.082  13.240  0.00  0.00     0.085 H 
ATOM     37  C12 LGL d   1      37.916  28.331  13.031  0.00  0.00    -0.042 A 
ATOM     38  H   LGL d   1      37.308  29.002  12.424  0.00  0.00     0.088 H 
BRANCH  35  39
ATOM     39  C22 LGL d   1      39.788  28.771  11.537  0.00  0.00     0.162 A 
ATOM     40  N34 LGL d   1      41.021  28.739  11.137  0.00  0.00    -0.151 NA
ATOM     41  N37 LGL d   1      41.002  29.517  10.004  0.00  0.00    -0.227 N 
ATOM     42  C24 LGL d   1      39.714  30.015   9.743  0.00  0.00     0.342 A 
ATOM     43  H   LGL d   1      41.820  29.709   9.425  0.00  0.00     0.194 HD
ATOM     44  N36 LGL d   1      38.941  29.506  10.761  0.00  0.00    -0.290 N 
ATOM     45  O41 LGL d   1      39.356  30.737   8.825  0.00  0.00    -0.245 OA
ATOM     46  H   LGL d   1      37.941  29.649  10.905  0.00  0.00     0.172 HD
ENDBRANCH  35  39
ENDBRANCH  16  29
ENDBRANCH   6  11
BRANCH   5  47
ATOM     47  C14 LGL d   1      38.168  34.213  20.477  0.00  0.00    -0.018 A 
ATOM     48  C4  LGL d   1      39.193  35.009  19.954  0.00  0.00    -0.072 A 
ATOM     49  C1  LGL d   1      39.850  35.938  20.774  0.00  0.00    -0.082 A 
ATOM     50  H   LGL d   1      39.481  34.907  18.908  0.00  0.00     0.084 H 
ATOM     51  C2  LGL d   1      39.474  36.084  22.115  0.00  0.00    -0.082 A 
ATOM     52  H   LGL d   1      40.656  36.548  20.366  0.00  0.00     0.083 H 
ATOM     53  C8  LGL d   1      38.440  35.299  22.636  0.00  0.00    -0.074 A 
ATOM     54  H   LGL d   1      39.985  36.807  22.751  0.00  0.00     0.083 H 
ATOM     55  C17 LGL d   1      37.781  34.369  21.821  0.00  0.00    -0.019 A 
ATOM     56  H   LGL d   1      38.146  35.411  23.680  0.00  0.00     0.084 H 
BRANCH  55  57
ATOM     57  C31 LGL d   1      36.686  33.547  22.436  0.00  0.00     0.138 C 
ATOM     58  H   LGL d   1      37.051  33.187  23.398  0.00  0.00     0.087 H 
ATOM     59  H   LGL d   1      36.443  32.751  21.732  0.00  0.00     0.087 H 
BRANCH  57  60
ATOM     60  N39 LGL d   1      35.452  34.299  22.690  0.00  0.00     0.092 N 
ATOM     61  C29 LGL d   1      34.761  34.631  21.439  0.00  0.00     0.114 C 
ATOM     62  C26 LGL d   1      33.385  35.038  21.944  0.00  0.00    -0.038 C 
ATOM     63  H   LGL d   1      35.259  35.410  20.861  0.00  0.00     0.079 H 
ATOM     64  H   LGL d   1      34.735  33.807  20.725  0.00  0.00     0.079 H 
ATOM     65  C27 LGL d   1      33.151  34.147  23.162  0.00  0.00    -0.038 C 
ATOM     66  H   LGL d   1      33.337  36.097  22.195  0.00  0.00     0.035 H 
ATOM     67  H   LGL d   1      32.614  34.906  21.185  0.00  0.00     0.035 H 
ATOM     68  C30 LGL d   1      34.496  33.482  23.448  0.00  0.00     0.114 C 
ATOM     69  H   LGL d   1      32.373  33.408  22.972  0.00  0.00     0.035 H 
ATOM     70  H   LGL d   1      32.802  34.725  24.018  0.00  0.00     0.035 H 
ATOM     71  H   LGL d   1      34.515  32.434  23.150  0.00  0.00     0.079 H 
ATOM     72  H   LGL d   1      34.727  33.449  24.513  0.00  0.00     0.079 H 
ENDBRANCH  57  60
ENDBRANCH  55  57
ENDBRANCH   5  47
TORSDOF 7
