REMARK  7 active torsions:
REMARK  status: ('A' for Active; 'I' for Inactive)
REMARK    1  A    between atoms: C14_14  and  C13_13 
REMARK    2  A    between atoms: C15_15  and  C22_22 
REMARK    3  A    between atoms: C32_32  and  C17_17 
REMARK    4  A    between atoms: N35_35  and  C18_18 
REMARK    5  A    between atoms: C19_19  and  N38_38 
REMARK    6  A    between atoms: C21_21  and  C31_31 
REMARK    7  A    between atoms: C32_32  and  N39_39 
ROOT
ATOM      1  C5  LGM d   1      35.922  33.646  18.592  0.00  0.00    -0.070 A 
ATOM      2  C6  LGM d   1      36.480  31.773  20.063  0.00  0.00    -0.070 A 
ATOM      3  C10 LGM d   1      35.303  32.757  17.702  0.00  0.00    -0.056 A 
ATOM      4  C11 LGM d   1      35.858  30.885  19.175  0.00  0.00    -0.056 A 
ATOM      5  C13 LGM d   1      36.514  33.153  19.776  0.00  0.00    -0.025 A 
ATOM      6  C19 LGM d   1      35.262  31.381  18.001  0.00  0.00     0.037 A 
ATOM      7  H   LGM d   1      35.946  34.713  18.371  0.00  0.00     0.084 H 
ATOM      8  H   LGM d   1      36.938  31.396  20.977  0.00  0.00     0.084 H 
ATOM      9  H   LGM d   1      34.855  33.130  16.781  0.00  0.00     0.087 H 
ATOM     10  H   LGM d   1      35.836  29.817  19.392  0.00  0.00     0.087 H 
ENDROOT
BRANCH   6  11
ATOM     11  N38 LGM d   1      34.625  30.480  17.073  0.00  0.00    -0.312 N 
ATOM     12  C23 LGM d   1      35.445  29.638  16.276  0.00  0.00     0.277 C 
ATOM     13  C20 LGM d   1      34.736  28.768  15.360  0.00  0.00     0.135 A 
ATOM     14  O40 LGM d   1      36.657  29.656  16.324  0.00  0.00    -0.265 OA
ATOM     15  C16 LGM d   1      33.367  28.698  15.242  0.00  0.00     0.004 A 
ATOM     16  N35 LGM d   1      35.236  27.845  14.476  0.00  0.00    -0.228 N 
ATOM     17  C21 LGM d   1      33.145  27.727  14.245  0.00  0.00     0.060 A 
ATOM     18  C25 LGM d   1      32.480  29.539  16.079  0.00  0.00    -0.021 C 
ATOM     19  N33 LGM d   1      34.289  27.209  13.766  0.00  0.00    -0.171 NA
ATOM     20  C28 LGM d   1      33.233  30.789  16.607  0.00  0.00     0.007 C 
ATOM     21  H   LGM d   1      32.141  28.949  16.931  0.00  0.00     0.042 H 
ATOM     22  H   LGM d   1      31.637  29.869  15.472  0.00  0.00     0.042 H 
ATOM     23  H   LGM d   1      32.676  31.177  17.459  0.00  0.00     0.065 H 
ATOM     24  H   LGM d   1      33.308  31.503  15.787  0.00  0.00     0.065 H 
BRANCH  17  25
ATOM     25  C31 LGM d   1      31.862  27.248  13.709  0.00  0.00    -0.033 C 
ATOM     26  H   LGM d   1      31.822  27.443  12.637  0.00  0.00     0.035 H 
ATOM     27  H   LGM d   1      31.772  26.177  13.888  0.00  0.00     0.035 H 
ATOM     28  H   LGM d   1      31.044  27.771  14.206  0.00  0.00     0.035 H 
ENDBRANCH  17  25
BRANCH  16  29
ATOM     29  C18 LGM d   1      36.576  27.608  14.181  0.00  0.00     0.060 A 
ATOM     30  C9  LGM d   1      37.400  26.759  14.929  0.00  0.00    -0.055 A 
ATOM     31  C3  LGM d   1      38.738  26.598  14.564  0.00  0.00    -0.080 A 
ATOM     32  H   LGM d   1      36.999  26.227  15.792  0.00  0.00     0.087 H 
ATOM     33  C7  LGM d   1      39.260  27.291  13.458  0.00  0.00    -0.069 A 
ATOM     34  H   LGM d   1      39.381  25.932  15.139  0.00  0.00     0.083 H 
ATOM     35  C15 LGM d   1      38.430  28.154  12.720  0.00  0.00     0.014 A 
ATOM     36  H   LGM d   1      40.304  27.160  13.173  0.00  0.00     0.085 H 
ATOM     37  C12 LGM d   1      37.091  28.300  13.087  0.00  0.00    -0.042 A 
ATOM     38  H   LGM d   1      36.443  28.961  12.512  0.00  0.00     0.088 H 
BRANCH  35  39
ATOM     39  C22 LGM d   1      38.928  28.856  11.557  0.00  0.00     0.162 A 
ATOM     40  N34 LGM d   1      40.134  28.803  11.088  0.00  0.00    -0.151 NA
ATOM     41  N37 LGM d   1      40.095  29.605   9.978  0.00  0.00    -0.227 N 
ATOM     42  C24 LGM d   1      38.813  30.133   9.791  0.00  0.00     0.342 A 
ATOM     43  H   LGM d   1      40.893  29.792   9.370  0.00  0.00     0.194 HD
ATOM     44  N36 LGM d   1      38.075  29.621  10.838  0.00  0.00    -0.290 N 
ATOM     45  O41 LGM d   1      38.438  30.883   8.895  0.00  0.00    -0.245 OA
ATOM     46  H   LGM d   1      37.087  29.786  11.031  0.00  0.00     0.172 HD
ENDBRANCH  35  39
ENDBRANCH  16  29
ENDBRANCH   6  11
BRANCH   5  47
ATOM     47  C14 LGM d   1      37.157  34.085  20.696  0.00  0.00    -0.018 A 
ATOM     48  C4  LGM d   1      38.227  34.854  20.225  0.00  0.00    -0.072 A 
ATOM     49  C1  LGM d   1      38.874  35.759  21.071  0.00  0.00    -0.082 A 
ATOM     50  H   LGM d   1      38.558  34.746  19.192  0.00  0.00     0.084 H 
ATOM     51  C2  LGM d   1      38.439  35.911  22.391  0.00  0.00    -0.082 A 
ATOM     52  H   LGM d   1      39.716  36.345  20.703  0.00  0.00     0.083 H 
ATOM     53  C8  LGM d   1      37.376  35.140  22.873  0.00  0.00    -0.074 A 
ATOM     54  H   LGM d   1      38.929  36.632  23.046  0.00  0.00     0.083 H 
ATOM     55  C17 LGM d   1      36.728  34.232  22.027  0.00  0.00    -0.019 A 
ATOM     56  H   LGM d   1      37.052  35.246  23.908  0.00  0.00     0.084 H 
BRANCH  55  57
ATOM     57  C32 LGM d   1      35.587  33.438  22.596  0.00  0.00     0.138 C 
ATOM     58  H   LGM d   1      35.979  32.832  23.413  0.00  0.00     0.087 H 
ATOM     59  H   LGM d   1      35.163  32.841  21.788  0.00  0.00     0.087 H 
BRANCH  57  60
ATOM     60  N39 LGM d   1      34.514  34.282  23.140  0.00  0.00     0.092 N 
ATOM     61  C29 LGM d   1      33.910  35.142  22.112  0.00  0.00     0.114 C 
ATOM     62  C26 LGM d   1      32.707  34.353  21.637  0.00  0.00    -0.038 C 
ATOM     63  H   LGM d   1      33.635  36.122  22.502  0.00  0.00     0.079 H 
ATOM     64  H   LGM d   1      34.603  35.367  21.302  0.00  0.00     0.079 H 
ATOM     65  C27 LGM d   1      32.226  33.623  22.884  0.00  0.00    -0.038 C 
ATOM     66  H   LGM d   1      31.935  34.994  21.211  0.00  0.00     0.035 H 
ATOM     67  H   LGM d   1      32.958  33.666  20.828  0.00  0.00     0.035 H 
ATOM     68  C30 LGM d   1      33.457  33.471  23.770  0.00  0.00     0.114 C 
ATOM     69  H   LGM d   1      31.791  32.655  22.636  0.00  0.00     0.035 H 
ATOM     70  H   LGM d   1      31.436  34.178  23.391  0.00  0.00     0.035 H 
ATOM     71  H   LGM d   1      33.757  32.426  23.852  0.00  0.00     0.079 H 
ATOM     72  H   LGM d   1      33.255  33.807  24.787  0.00  0.00     0.079 H 
ENDBRANCH  57  60
ENDBRANCH  55  57
ENDBRANCH   5  47
TORSDOF 7
