REMARK  0 active torsions:
REMARK  status: ('A' for Active; 'I' for Inactive)
ROOT
ATOM      1 BR01 ES3 d   1      26.740  42.574  16.110  0.00  0.00    -0.030 Br
ATOM      2  C02 ES3 d   1      27.498  44.239  16.755  0.00  0.00     0.098 A 
ATOM      3  C03 ES3 d   1      28.228  44.404  17.925  0.00  0.00     0.036 A 
ATOM      4  N04 ES3 d   1      28.599  45.694  18.007  0.00  0.00    -0.253 NA
ATOM      5  C05 ES3 d   1      28.117  46.329  16.892  0.00  0.00     0.064 A 
ATOM      6  N06 ES3 d   1      27.440  45.422  16.121  0.00  0.00    -0.344 N 
ATOM      7  H   ES3 d   1      28.460  43.624  18.650  0.00  0.00     0.119 H 
ATOM      8  H   ES3 d   1      28.251  47.385  16.657  0.00  0.00     0.143 H 
ATOM      9  H   ES3 d   1      26.978  45.610  15.231  0.00  0.00     0.167 HD
ENDROOT
TORSDOF 0
