REMARK  0 active torsions:
REMARK  status: ('A' for Active; 'I' for Inactive)
ROOT
ATOM      1  C10 ES4 d   1      27.649  44.410  16.377  0.00  0.00     0.144 A 
ATOM      2 CL01 ES4 d   1      26.491  42.705  14.556  0.00  0.00    -0.060 Cl
ATOM      3  C02 ES4 d   1      27.318  43.100  16.091  0.00  0.00     0.160 A 
ATOM      4  N03 ES4 d   1      27.615  42.118  16.976  0.00  0.00    -0.227 NA
ATOM      5  C04 ES4 d   1      28.249  42.421  18.160  0.00  0.00     0.090 A 
ATOM      6  N05 ES4 d   1      28.580  43.729  18.442  0.00  0.00    -0.222 NA
ATOM      7  C06 ES4 d   1      28.281  44.714  17.555  0.00  0.00     0.162 A 
ATOM      8  N07 ES4 d   1      28.488  46.046  17.588  0.00  0.00    -0.334 N 
ATOM      9  C08 ES4 d   1      27.984  46.570  16.433  0.00  0.00     0.066 A 
ATOM     10  N09 ES4 d   1      27.463  45.552  15.693  0.00  0.00    -0.237 NA
ATOM     11  H   ES4 d   1      28.488  41.630  18.871  0.00  0.00     0.146 H 
ATOM     12  H   ES4 d   1      28.939  46.567  18.340  0.00  0.00     0.168 HD
ATOM     13  H   ES4 d   1      27.996  47.623  16.151  0.00  0.00     0.143 H 
ENDROOT
TORSDOF 0
