REMARK  1 active torsions:
REMARK  status: ('A' for Active; 'I' for Inactive)
REMARK    1  A    between atoms: C02_3  and  N01_2 
ROOT
ATOM      1  C10 ES5 d   1      27.958  43.418  16.894  0.00  0.00    -0.005 A 
ATOM      2  C02 ES5 d   1      29.159  44.632  18.660  0.00  0.00     0.026 A 
ATOM      3  C03 ES5 d   1      28.832  45.858  18.027  0.00  0.00    -0.056 A 
ATOM      4  C04 ES5 d   1      28.076  45.867  16.833  0.00  0.00    -0.052 A 
ATOM      5  C05 ES5 d   1      27.634  44.644  16.267  0.00  0.00     0.066 A 
ATOM      6  N06 ES5 d   1      26.888  44.653  15.104  0.00  0.00    -0.260 NA
ATOM      7  C07 ES5 d   1      26.462  43.461  14.547  0.00  0.00     0.003 A 
ATOM      8  C08 ES5 d   1      26.784  42.229  15.165  0.00  0.00    -0.065 A 
ATOM      9  C09 ES5 d   1      27.528  42.222  16.332  0.00  0.00    -0.069 A 
ATOM     10  C11 ES5 d   1      28.725  43.407  18.091  0.00  0.00    -0.046 A 
ATOM     11  H   ES5 d   1      29.166  46.799  18.464  0.00  0.00     0.087 H 
ATOM     12  H   ES5 d   1      27.833  46.812  16.348  0.00  0.00     0.087 H 
ATOM     13  H   ES5 d   1      25.876  43.470  13.628  0.00  0.00     0.114 H 
ATOM     14  H   ES5 d   1      26.448  41.291  14.724  0.00  0.00     0.085 H 
ATOM     15  H   ES5 d   1      27.777  41.276  16.812  0.00  0.00     0.085 H 
ATOM     16  H   ES5 d   1      28.979  42.461  18.570  0.00  0.00     0.088 H 
ENDROOT
BRANCH   2  17
ATOM     17  N01 ES5 d   1      29.931  44.643  19.900  0.00  0.00    -0.399 N 
ATOM     18  H   ES5 d   1      30.163  43.765  20.364  0.00  0.00     0.156 HD
ATOM     19  H   ES5 d   1      30.239  45.529  20.301  0.00  0.00     0.156 HD
ENDBRANCH   2  17
TORSDOF 1
