REMARK  1 active torsions:
REMARK  status: ('A' for Active; 'I' for Inactive)
REMARK    1  A    between atoms: CAH_9  and  NAA_10 
ROOT
ATOM      1  NAF AX7 d   1      28.253  46.141  15.883  0.00  0.00    -0.190 N 
ATOM      2  CAI AX7 d   1      27.839  44.877  15.206  0.00  0.00     0.076 A 
ATOM      3  CAD AX7 d   1      27.458  44.605  13.853  0.00  0.00    -0.054 A 
ATOM      4  CAB AX7 d   1      27.094  43.262  13.464  0.00  0.00    -0.081 A 
ATOM      5  CAC AX7 d   1      27.121  42.190  14.439  0.00  0.00    -0.081 A 
ATOM      6  CAE AX7 d   1      27.504  42.469  15.800  0.00  0.00    -0.054 A 
ATOM      7  CAJ AX7 d   1      27.861  43.801  16.189  0.00  0.00     0.076 A 
ATOM      8  NAG AX7 d   1      28.307  44.392  17.522  0.00  0.00    -0.190 N 
ATOM      9  CAH AX7 d   1      28.542  45.830  17.321  0.00  0.00     0.676 A 
ATOM     10  H   AX7 d   1      28.327  47.058  15.443  0.00  0.00     0.184 HD
ATOM     11  H   AX7 d   1      27.443  45.410  13.118  0.00  0.00     0.087 H 
ATOM     12  H   AX7 d   1      26.799  43.055  12.435  0.00  0.00     0.083 H 
ATOM     13  H   AX7 d   1      26.852  41.176  14.144  0.00  0.00     0.083 H 
ATOM     14  H   AX7 d   1      27.522  41.665  16.535  0.00  0.00     0.087 H 
ATOM     15  H   AX7 d   1      28.422  43.881  18.397  0.00  0.00     0.184 HD
ENDROOT
BRANCH   9  16
ATOM     16  NAA AX7 d   1      28.978  46.774  18.342  0.00  0.00    -0.234 N 
ATOM     17  H   AX7 d   1      29.147  46.452  19.295  0.00  0.00     0.174 HD
ATOM     18  H   AX7 d   1      29.114  47.756  18.104  0.00  0.00     0.174 HD
ENDBRANCH   9  16
TORSDOF 1
