REMARK  2 active torsions:
REMARK  status: ('A' for Active; 'I' for Inactive)
REMARK    1  A    between atoms: C10_1  and  N11_11 
REMARK    2  A    between atoms: N02_3  and  C01_2 
ROOT
ATOM      1  C10 ES7 d   1      28.246  45.476  17.313  0.00  0.00     0.701 A 
ATOM      2  N02 ES7 d   1      27.839  44.153  17.469  0.00  0.00    -0.184 N 
ATOM      3  C03 ES7 d   1      27.519  43.660  16.208  0.00  0.00     0.080 A 
ATOM      4  C04 ES7 d   1      27.048  42.359  15.766  0.00  0.00    -0.054 A 
ATOM      5  C05 ES7 d   1      26.796  42.114  14.361  0.00  0.00    -0.081 A 
ATOM      6  C06 ES7 d   1      27.018  43.166  13.402  0.00  0.00    -0.081 A 
ATOM      7  C07 ES7 d   1      27.493  44.462  13.835  0.00  0.00    -0.052 A 
ATOM      8  C08 ES7 d   1      27.739  44.708  15.252  0.00  0.00     0.103 A 
ATOM      9  N09 ES7 d   1      28.173  45.810  15.918  0.00  0.00    -0.063 NA
ATOM     10  H   ES7 d   1      26.884  41.565  16.494  0.00  0.00     0.087 H 
ATOM     11  H   ES7 d   1      26.440  41.138  14.031  0.00  0.00     0.083 H 
ATOM     12  H   ES7 d   1      26.827  42.984  12.344  0.00  0.00     0.083 H 
ATOM     13  H   ES7 d   1      27.667  45.252  13.105  0.00  0.00     0.087 H 
ENDROOT
BRANCH   2  14
ATOM     14  C01 ES7 d   1      27.738  43.401  18.737  0.00  0.00     0.003 C 
ATOM     15  H   ES7 d   1      26.705  43.090  18.892  0.00  0.00     0.058 H 
ATOM     16  H   ES7 d   1      28.381  42.522  18.689  0.00  0.00     0.058 H 
ATOM     17  H   ES7 d   1      28.054  44.039  19.562  0.00  0.00     0.058 H 
ENDBRANCH   2  14
BRANCH   1  18
ATOM     18  N11 ES7 d   1      28.655  46.365  18.369  0.00  0.00    -0.233 N 
ATOM     19  H   ES7 d   1      28.925  47.325  18.152  0.00  0.00     0.174 HD
ATOM     20  H   ES7 d   1      28.675  46.035  19.334  0.00  0.00     0.174 HD
ENDBRANCH   1  18
TORSDOF 2
