REMARK  0 active torsions:
REMARK  status: ('A' for Active; 'I' for Inactive)
ROOT
ATOM      1  C10 ES9 d   1      28.161  42.933  16.910  0.00  0.00    -0.034 A 
ATOM      2 CL01 ES9 d   1      27.319  41.344  14.801  0.00  0.00    -0.084 Cl
ATOM      3  C02 ES9 d   1      27.627  42.913  15.605  0.00  0.00     0.036 A 
ATOM      4  C03 ES9 d   1      27.341  44.118  14.935  0.00  0.00    -0.060 A 
ATOM      5  C04 ES9 d   1      27.589  45.352  15.563  0.00  0.00    -0.051 A 
ATOM      6  C05 ES9 d   1      28.131  45.368  16.872  0.00  0.00     0.085 A 
ATOM      7  N06 ES9 d   1      28.456  46.381  17.693  0.00  0.00    -0.242 NA
ATOM      8  C07 ES9 d   1      28.941  45.854  18.874  0.00  0.00     0.065 A 
ATOM      9  N08 ES9 d   1      28.911  44.481  18.764  0.00  0.00    -0.349 N 
ATOM     10  C09 ES9 d   1      28.413  44.176  17.543  0.00  0.00     0.063 A 
ATOM     11  H   ES9 d   1      28.378  41.999  17.428  0.00  0.00     0.089 H 
ATOM     12  H   ES9 d   1      26.926  44.094  13.927  0.00  0.00     0.086 H 
ATOM     13  H   ES9 d   1      27.366  46.286  15.048  0.00  0.00     0.087 H 
ATOM     14  H   ES9 d   1      29.286  46.422  19.738  0.00  0.00     0.143 H 
ATOM     15  H   ES9 d   1      29.210  43.814  19.475  0.00  0.00     0.167 HD
ENDROOT
TORSDOF 0
