REMARK  2 active torsions:
REMARK  status: ('A' for Active; 'I' for Inactive)
REMARK    1  A    between atoms: C1_1  and  O17_11 
REMARK    2  A    between atoms: C11_8  and  N14_10 
ROOT
ATOM      1  C1  172 d   1      27.481  42.883  15.240  0.00  0.00     0.068 A 
ATOM      2  C2  172 d   1      27.981  42.672  16.523  0.00  0.00    -0.022 A 
ATOM      3  C3  172 d   1      28.409  43.740  17.293  0.00  0.00     0.081 A 
ATOM      4  C4  172 d   1      28.348  45.042  16.801  0.00  0.00     0.103 A 
ATOM      5  C5  172 d   1      27.845  45.261  15.517  0.00  0.00    -0.050 A 
ATOM      6  C6  172 d   1      27.409  44.178  14.731  0.00  0.00    -0.049 A 
ATOM      7  N10 172 d   1      28.919  43.780  18.525  0.00  0.00    -0.188 N 
ATOM      8  C11 172 d   1      29.177  45.056  18.835  0.00  0.00     0.699 A 
ATOM      9  N12 172 d   1      28.828  45.835  17.780  0.00  0.00    -0.063 NA
ATOM     10  H   172 d   1      28.036  41.660  16.923  0.00  0.00     0.091 H 
ATOM     11  H   172 d   1      27.790  46.275  15.122  0.00  0.00     0.087 H 
ATOM     12  H   172 d   1      27.017  44.352  13.729  0.00  0.00     0.087 H 
ATOM     13  H   172 d   1      29.084  42.974  19.128  0.00  0.00     0.184 HD
ENDROOT
BRANCH   8  14
ATOM     14  N14 172 d   1      29.642  45.437  20.029  0.00  0.00    -0.233 N 
ATOM     15  H   172 d   1      29.773  46.428  20.233  0.00  0.00     0.174 HD
ATOM     16  H   172 d   1      29.866  44.737  20.736  0.00  0.00     0.174 HD
ENDBRANCH   8  14
BRANCH   1  17
ATOM     17  O17 172 d   1      26.997  41.802  14.575  0.00  0.00    -0.361 OA
ATOM     18  H   172 d   1      27.147  41.012  15.099  0.00  0.00     0.217 HD
ENDBRANCH   1  17
TORSDOF 2
