REMARK  1 active torsions:
REMARK  status: ('A' for Active; 'I' for Inactive)
REMARK    1  A    between atoms: CAI_9  and  NAA_11 
ROOT
ATOM      1 CLA  VGD d   1      26.749  40.451  14.388  0.00  0.00    -0.084 Cl
ATOM      2  CAH VGD d   1      27.172  42.102  14.875  0.00  0.00     0.036 A 
ATOM      3  CAC VGD d   1      27.181  43.115  13.935  0.00  0.00    -0.060 A 
ATOM      4  CAD VGD d   1      27.512  44.418  14.302  0.00  0.00    -0.051 A 
ATOM      5  CAK VGD d   1      27.836  44.691  15.630  0.00  0.00     0.103 A 
ATOM      6  CAJ VGD d   1      27.835  43.671  16.576  0.00  0.00     0.080 A 
ATOM      7  CAE VGD d   1      27.502  42.362  16.194  0.00  0.00    -0.033 A 
ATOM      8  NAG VGD d   1      28.203  45.858  16.288  0.00  0.00    -0.063 NA
ATOM      9  CAI VGD d   1      28.424  45.579  17.613  0.00  0.00     0.699 A 
ATOM     10  NAF VGD d   1      28.201  44.240  17.804  0.00  0.00    -0.188 N 
ATOM     11  H   VGD d   1      26.927  42.893  12.898  0.00  0.00     0.086 H 
ATOM     12  H   VGD d   1      27.517  45.215  13.559  0.00  0.00     0.087 H 
ATOM     13  H   VGD d   1      27.503  41.557  16.929  0.00  0.00     0.089 H 
ATOM     14  H   VGD d   1      28.287  43.742  18.690  0.00  0.00     0.184 HD
ENDROOT
BRANCH   9  15
ATOM     15  NAA VGD d   1      28.822  46.534  18.599  0.00  0.00    -0.233 N 
ATOM     16  H   VGD d   1      28.963  47.510  18.337  0.00  0.00     0.174 HD
ATOM     17  H   VGD d   1      28.965  46.240  19.565  0.00  0.00     0.174 HD
ENDBRANCH   9  15
TORSDOF 1
