REMARK  1 active torsions:
REMARK  status: ('A' for Active; 'I' for Inactive)
REMARK    1  A    between atoms: CAI_9  and  NAA_1 
ROOT
ATOM      1  FAB ET2 d   1      27.399  41.079  14.274  0.00  0.00    -0.206 F 
ATOM      2  CAC ET2 d   1      27.713  43.380  13.771  0.00  0.00    -0.043 A 
ATOM      3  CAD ET2 d   1      27.998  44.672  14.186  0.00  0.00    -0.051 A 
ATOM      4  CAE ET2 d   1      27.941  42.589  16.030  0.00  0.00    -0.015 A 
ATOM      5  NAF ET2 d   1      28.513  44.398  17.628  0.00  0.00    -0.063 NA
ATOM      6  NAG ET2 d   1      28.558  46.028  16.188  0.00  0.00    -0.188 N 
ATOM      7  CAH ET2 d   1      27.679  42.337  14.687  0.00  0.00     0.118 A 
ATOM      8  CAI ET2 d   1      28.710  45.708  17.479  0.00  0.00     0.699 A 
ATOM      9  CAJ ET2 d   1      28.231  43.881  16.438  0.00  0.00     0.106 A 
ATOM     10  CAK ET2 d   1      28.256  44.922  15.523  0.00  0.00     0.078 A 
ATOM     11  H   ET2 d   1      27.514  43.182  12.718  0.00  0.00     0.088 H 
ATOM     12  H   ET2 d   1      28.019  45.487  13.463  0.00  0.00     0.087 H 
ATOM     13  H   ET2 d   1      27.918  41.776  16.756  0.00  0.00     0.091 H 
ATOM     14  H   ET2 d   1      28.657  46.960  15.786  0.00  0.00     0.184 HD
ENDROOT
BRANCH   8  15
ATOM     15  NAA ET2 d   1      29.000  46.551  18.467  0.00  0.00    -0.233 N 
ATOM     16  H   ET2 d   1      29.086  46.206  19.423  0.00  0.00     0.174 HD
ATOM     17  H   ET2 d   1      29.136  47.542  18.268  0.00  0.00     0.174 HD
ENDBRANCH   8  15
TORSDOF 1
