REMARK  10 active torsions:
REMARK  status: ('A' for Active; 'I' for Inactive)
REMARK    1  A    between atoms: P_2  and  C19_4 
REMARK    2  A    between atoms: P_2  and  C17_14 
REMARK    3  A    between atoms: C19_4  and  C18_5 
REMARK    4  A    between atoms: C19_4  and  N_13 
REMARK    5  A    between atoms: C18_5  and  C15_6 
REMARK    6  A    between atoms: C15_6  and  C16_7 
REMARK    7  A    between atoms: C17_14  and  C8_15 
REMARK    8  A    between atoms: C8_15  and  C9_16 
REMARK    9  A    between atoms: C8_15  and  C7_19 
REMARK   10  A    between atoms: C7_19  and  C1_20 
ROOT
ATOM      1  O3  BEY d   1      86.649  72.647  28.452  0.00  0.00    -0.666 OA
ATOM      2  P   BEY d   1      86.352  73.398  29.724  0.00  0.00     0.138 P 
ATOM      3  O4  BEY d   1      86.779  74.851  29.808  0.00  0.00    -0.666 OA
ENDROOT
BRANCH   2   4
ATOM      4  C19 BEY d   1      84.543  73.340  29.733  0.00  0.00     0.173 C 
ATOM      5  H   BEY d   1      84.091  72.898  28.845  0.00  0.00     0.100 H 
BRANCH   4   6
ATOM      6  C18 BEY d   1      84.148  72.475  30.929  0.00  0.00    -0.026 C 
ATOM      7  H   BEY d   1      84.804  72.750  31.755  0.00  0.00     0.037 H 
ATOM      8  H   BEY d   1      84.234  71.435  30.615  0.00  0.00     0.037 H 
BRANCH   6   9
ATOM      9  C15 BEY d   1      82.731  72.680  31.401  0.00  0.00    -0.039 C 
ATOM     10  H   BEY d   1      82.198  73.305  30.685  0.00  0.00     0.040 H 
ATOM     11  H   BEY d   1      82.741  73.167  32.376  0.00  0.00     0.040 H 
BRANCH   9  12
ATOM     12  C16 BEY d   1      82.038  71.348  31.515  0.00  0.00    -0.058 A 
ATOM     13  C10 BEY d   1      82.506  70.245  30.784  0.00  0.00    -0.077 A 
ATOM     14  C11 BEY d   1      81.847  69.026  30.877  0.00  0.00    -0.082 A 
ATOM     15  H   BEY d   1      83.384  70.345  30.145  0.00  0.00     0.084 H 
ATOM     16  C12 BEY d   1      80.730  68.940  31.706  0.00  0.00    -0.083 A 
ATOM     17  H   BEY d   1      82.195  68.159  30.316  0.00  0.00     0.083 H 
ATOM     18  C14 BEY d   1      80.264  70.034  32.450  0.00  0.00    -0.082 A 
ATOM     19  H   BEY d   1      80.200  67.990  31.779  0.00  0.00     0.083 H 
ATOM     20  C13 BEY d   1      80.919  71.251  32.353  0.00  0.00    -0.077 A 
ATOM     21  H   BEY d   1      79.394  69.928  33.099  0.00  0.00     0.083 H 
ATOM     22  H   BEY d   1      80.571  72.116  32.917  0.00  0.00     0.084 H 
ENDBRANCH   9  12
ENDBRANCH   6   9
ENDBRANCH   4   6
BRANCH   4  23
ATOM     23  N   BEY d   1      84.082  74.708  29.807  0.00  0.00    -0.066 N 
ATOM     24  H   BEY d   1      84.386  75.214  28.975  0.00  0.00     0.275 HD
ATOM     25  H   BEY d   1      83.063  74.720  29.860  0.00  0.00     0.275 HD
ATOM     26  H   BEY d   1      84.472  75.153  30.638  0.00  0.00     0.275 HD
ENDBRANCH   4  23
ENDBRANCH   2   4
BRANCH   2  27
ATOM     27  C17 BEY d   1      87.144  72.563  31.105  0.00  0.00     0.022 C 
ATOM     28  H   BEY d   1      86.390  72.168  31.786  0.00  0.00     0.050 H 
ATOM     29  H   BEY d   1      87.769  73.264  31.658  0.00  0.00     0.050 H 
BRANCH  27  30
ATOM     30  C8  BEY d   1      87.986  71.439  30.556  0.00  0.00     0.043 C 
ATOM     31  H   BEY d   1      88.290  71.604  29.522  0.00  0.00     0.058 H 
BRANCH  30  32
ATOM     32  C9  BEY d   1      87.148  70.201  30.645  0.00  0.00     0.177 C 
ATOM     33  O2  BEY d   1      86.976  69.514  29.614  0.00  0.00    -0.648 OA
ATOM     34  O1  BEY d   1      86.641  69.909  31.749  0.00  0.00    -0.648 OA
ENDBRANCH  30  32
BRANCH  30  35
ATOM     35  C7  BEY d   1      89.254  71.326  31.396  0.00  0.00    -0.028 C 
ATOM     36  H   BEY d   1      89.039  70.666  32.236  0.00  0.00     0.041 H 
ATOM     37  H   BEY d   1      89.537  72.331  31.708  0.00  0.00     0.041 H 
BRANCH  35  38
ATOM     38  C1  BEY d   1      90.422  70.732  30.626  0.00  0.00    -0.057 A 
ATOM     39  C2  BEY d   1      90.249  70.149  29.366  0.00  0.00    -0.077 A 
ATOM     40  C3  BEY d   1      91.345  69.611  28.707  0.00  0.00    -0.082 A 
ATOM     41  H   BEY d   1      89.261  70.118  28.906  0.00  0.00     0.084 H 
ATOM     42  C4  BEY d   1      92.608  69.657  29.296  0.00  0.00    -0.083 A 
ATOM     43  H   BEY d   1      91.219  69.151  27.727  0.00  0.00     0.083 H 
ATOM     44  C6  BEY d   1      92.783  70.232  30.549  0.00  0.00    -0.082 A 
ATOM     45  H   BEY d   1      93.466  69.238  28.769  0.00  0.00     0.083 H 
ATOM     46  C5  BEY d   1      91.688  70.772  31.213  0.00  0.00    -0.077 A 
ATOM     47  H   BEY d   1      93.772  70.259  31.008  0.00  0.00     0.083 H 
ATOM     48  H   BEY d   1      91.818  71.228  32.194  0.00  0.00     0.084 H 
ENDBRANCH  35  38
ENDBRANCH  30  35
ENDBRANCH  27  30
ENDBRANCH   2  27
TORSDOF 10
