REMARK  21 active torsions:
REMARK  status: ('A' for Active; 'I' for Inactive)
REMARK    1  A    between atoms: N1_1  and  C2_2 
REMARK       I    between atoms: C11_11  and  N1_1 
REMARK    2  A    between atoms: C2_2  and  C3_3 
REMARK    3  A    between atoms: C2_2  and  C5_5 
REMARK    4  A    between atoms: C3_3  and  O4_4 
REMARK    5  A    between atoms: C5_5  and  C6_6 
REMARK    6  A    between atoms: C6_6  and  C7_7 
REMARK    7  A    between atoms: C6_6  and  C8_8 
REMARK    8  A    between atoms: N9_9  and  C10_10 
REMARK       I    between atoms: C20_20  and  N9_9 
REMARK    9  A    between atoms: C10_10  and  C11_11 
REMARK   10  A    between atoms: C10_10  and  C13_13 
REMARK   11  A    between atoms: C13_13  and  C14_14 
REMARK   12  A    between atoms: C14_14  and  C15_15 
REMARK       I    between atoms: C15_15  and  N17_17 
REMARK   13  A    between atoms: N18_18  and  C19_19 
REMARK       I    between atoms: C38_31  and  N18_18 
REMARK   14  A    between atoms: C19_19  and  C20_20 
REMARK   15  A    between atoms: C19_19  and  C22_22 
REMARK   16  A    between atoms: C22_22  and  C23_23 
REMARK       I    between atoms: C23_23  and  N25_25 
REMARK   17  A    between atoms: C27_27  and  C26_26 
REMARK   18  A    between atoms: C26_26  and  C29_28 
REMARK   19  A    between atoms: C36_29  and  C27_27 
REMARK   20  A    between atoms: C27_27  and  O37_30 
REMARK   21  A    between atoms: C36_29  and  C38_31 
ROOT
ATOM      1  C10 FEB d   1      43.724  23.690  51.627  0.00  0.00     0.090 C 
ATOM      2  H   FEB d   1      43.767  23.585  50.543  0.00  0.00     0.087 H 
ENDROOT
BRANCH   1   3
ATOM      3  N9  FEB d   1      44.560  22.726  52.313  0.00  0.00    -0.346 N 
ATOM      4  C20 FEB d   1      45.499  21.965  51.775  0.00  0.00     0.241 C 
ATOM      5  O21 FEB d   1      45.812  21.957  50.558  0.00  0.00    -0.271 OA
ATOM      6  H   FEB d   1      44.409  22.623  53.316  0.00  0.00     0.163 HD
BRANCH   4   7
ATOM      7  C19 FEB d   1      46.158  21.075  52.869  0.00  0.00     0.097 C 
ATOM      8  H   FEB d   1      45.459  21.021  53.704  0.00  0.00     0.088 H 
BRANCH   7   9
ATOM      9  N18 FEB d   1      46.472  19.725  52.273  0.00  0.00    -0.347 N 
ATOM     10  C38 FEB d   1      45.553  18.866  51.773  0.00  0.00     0.220 C 
ATOM     11  O49 FEB d   1      44.302  19.087  51.750  0.00  0.00    -0.274 OA
ATOM     12  H   FEB d   1      47.450  19.438  52.245  0.00  0.00     0.163 HD
BRANCH  10  13
ATOM     13  C36 FEB d   1      46.163  17.561  51.244  0.00  0.00     0.033 C 
ATOM     14  H   FEB d   1      46.794  17.846  50.402  0.00  0.00     0.051 H 
ATOM     15  H   FEB d   1      46.658  17.096  52.096  0.00  0.00     0.051 H 
BRANCH  13  16
ATOM     16  C27 FEB d   1      45.175  16.496  50.693  0.00  0.00     0.043 C 
ATOM     17  H   FEB d   1      44.637  16.947  49.859  0.00  0.00     0.083 H 
BRANCH  16  18
ATOM     18  C26 FEB d   1      45.860  15.217  50.155  0.00  0.00    -0.044 C 
ATOM     19  H   FEB d   1      46.352  14.772  51.020  0.00  0.00     0.036 H 
ATOM     20  H   FEB d   1      46.476  15.553  49.321  0.00  0.00     0.036 H 
BRANCH  18  21
ATOM     21  C29 FEB d   1      44.966  14.085  49.569  0.00  0.00    -0.074 C 
ATOM     22  H   FEB d   1      44.279  13.731  50.338  0.00  0.00     0.027 H 
ATOM     23  H   FEB d   1      44.398  14.473  48.724  0.00  0.00     0.027 H 
ATOM     24  H   FEB d   1      45.597  13.261  49.236  0.00  0.00     0.027 H 
ENDBRANCH  18  21
ENDBRANCH  16  18
BRANCH  16  25
ATOM     25  O37 FEB d   1      44.351  16.103  51.780  0.00  0.00    -0.395 OA
ATOM     26  H   FEB d   1      44.898  15.734  52.477  0.00  0.00     0.210 HD
ENDBRANCH  16  25
ENDBRANCH  13  16
ENDBRANCH  10  13
ENDBRANCH   7   9
BRANCH   7  27
ATOM     27  C22 FEB d   1      47.530  21.663  53.359  0.00  0.00     0.036 C 
ATOM     28  H   FEB d   1      47.315  22.659  53.745  0.00  0.00     0.051 H 
ATOM     29  H   FEB d   1      48.205  21.616  52.505  0.00  0.00     0.051 H 
BRANCH  27  30
ATOM     30  C23 FEB d   1      48.226  20.895  54.504  0.00  0.00     0.217 C 
ATOM     31  O24 FEB d   1      47.716  19.904  55.026  0.00  0.00    -0.274 OA
ATOM     32  N25 FEB d   1      49.382  21.304  54.943  0.00  0.00    -0.370 N 
ATOM     33  H   FEB d   1      49.844  20.805  55.703  0.00  0.00     0.159 HD
ATOM     34  H   FEB d   1      49.825  22.123  54.526  0.00  0.00     0.159 HD
ENDBRANCH  27  30
ENDBRANCH   7  27
ENDBRANCH   4   7
ENDBRANCH   1   3
BRANCH   1  35
ATOM     35  C11 FEB d   1      44.220  25.064  52.003  0.00  0.00     0.240 C 
ATOM     36  N1  FEB d   1      44.179  25.949  50.997  0.00  0.00    -0.353 N 
ATOM     37  H   FEB d   1      43.830  25.633  50.092  0.00  0.00     0.163 HD
ATOM     38  O12 FEB d   1      44.636  25.310  53.189  0.00  0.00    -0.271 OA
BRANCH  36  39
ATOM     39  C2  FEB d   1      44.606  27.341  51.123  0.00  0.00     0.033 C 
ATOM     40  H   FEB d   1      45.115  27.452  52.081  0.00  0.00     0.075 H 
BRANCH  39  41
ATOM     41  C3  FEB d   1      43.350  28.223  51.030  0.00  0.00     0.035 C 
ATOM     42  H   FEB d   1      43.651  29.269  51.084  0.00  0.00     0.077 H 
ATOM     43  H   FEB d   1      42.681  27.969  51.852  0.00  0.00     0.077 H 
BRANCH  41  44
ATOM     44  O4  FEB d   1      42.655  28.000  49.775  0.00  0.00    -0.399 OA
ATOM     45  H   FEB d   1      41.876  28.559  49.738  0.00  0.00     0.209 HD
ENDBRANCH  41  44
ENDBRANCH  39  41
BRANCH  39  46
ATOM     46  C5  FEB d   1      45.645  27.783  50.033  0.00  0.00    -0.042 C 
ATOM     47  H   FEB d   1      45.925  28.805  50.288  0.00  0.00     0.036 H 
ATOM     48  H   FEB d   1      45.152  27.627  49.074  0.00  0.00     0.036 H 
BRANCH  46  49
ATOM     49  C6  FEB d   1      46.965  26.994  49.958  0.00  0.00    -0.059 C 
ATOM     50  H   FEB d   1      46.741  25.951  49.736  0.00  0.00     0.038 H 
BRANCH  49  51
ATOM     51  C7  FEB d   1      47.838  27.629  48.843  0.00  0.00    -0.073 C 
ATOM     52  H   FEB d   1      48.072  28.660  49.109  0.00  0.00     0.028 H 
ATOM     53  H   FEB d   1      48.762  27.061  48.739  0.00  0.00     0.028 H 
ATOM     54  H   FEB d   1      47.291  27.611  47.901  0.00  0.00     0.028 H 
ENDBRANCH  49  51
BRANCH  49  55
ATOM     55  C8  FEB d   1      47.739  27.014  51.314  0.00  0.00    -0.073 C 
ATOM     56  H   FEB d   1      48.663  26.445  51.212  0.00  0.00     0.028 H 
ATOM     57  H   FEB d   1      47.973  28.044  51.582  0.00  0.00     0.028 H 
ATOM     58  H   FEB d   1      47.119  26.567  52.091  0.00  0.00     0.028 H 
ENDBRANCH  49  55
ENDBRANCH  46  49
ENDBRANCH  39  46
ENDBRANCH  36  39
ENDBRANCH   1  35
BRANCH   1  59
ATOM     59  C13 FEB d   1      42.261  23.462  52.072  0.00  0.00    -0.030 C 
ATOM     60  H   FEB d   1      41.676  24.258  51.610  0.00  0.00     0.037 H 
ATOM     61  H   FEB d   1      42.276  23.442  53.162  0.00  0.00     0.037 H 
BRANCH  59  62
ATOM     62  C14 FEB d   1      41.603  22.127  51.624  0.00  0.00     0.011 C 
ATOM     63  H   FEB d   1      40.540  22.187  51.859  0.00  0.00     0.047 H 
ATOM     64  H   FEB d   1      42.113  21.316  52.145  0.00  0.00     0.047 H 
BRANCH  62  65
ATOM     65  C15 FEB d   1      41.732  21.864  50.110  0.00  0.00     0.215 C 
ATOM     66  O16 FEB d   1      41.090  22.534  49.290  0.00  0.00    -0.274 OA
ATOM     67  N17 FEB d   1      42.563  20.912  49.688  0.00  0.00    -0.370 N 
ATOM     68  H   FEB d   1      42.670  20.735  48.689  0.00  0.00     0.159 HD
ATOM     69  H   FEB d   1      43.092  20.360  50.364  0.00  0.00     0.159 HD
ENDBRANCH  62  65
ENDBRANCH  59  62
ENDBRANCH   1  59
TORSDOF 21
