REMARK  4 active torsions:
REMARK  status: ('A' for Active; 'I' for Inactive)
REMARK    1  A    between atoms: C06_6  and  C08_8 
REMARK       I    between atoms: C08_8  and  N10_10 
REMARK    2  A    between atoms: N10_10  and  C11_11 
REMARK    3  A    between atoms: C14_14  and  C23_23 
REMARK    4  A    between atoms: C16_16  and  C17_17 
ROOT
ATOM      1  N01 KRJ d   1       7.768  24.779   4.476  0.00  0.00    -0.190 NA
ATOM      2  C02 KRJ d   1       8.175  25.181   5.483  0.00  0.00     0.121 C 
ATOM      3  C03 KRJ d   1       8.664  25.685   6.723  0.00  0.00     0.154 A 
ATOM      4  C04 KRJ d   1       9.685  25.197   7.511  0.00  0.00     0.017 A 
ATOM      5  N05 KRJ d   1       9.752  26.048   8.601  0.00  0.00    -0.343 N 
ATOM      6  C06 KRJ d   1       8.816  26.984   8.453  0.00  0.00     0.198 A 
ATOM      7  N07 KRJ d   1       8.115  26.819   7.334  0.00  0.00    -0.213 NA
ATOM      8  H1  KRJ d   1      10.308  24.325   7.317  0.00  0.00     0.116 H 
ATOM      9  H2  KRJ d   1      10.411  25.971   9.389  0.00  0.00     0.167 HD
ENDROOT
BRANCH   6  10
ATOM     10  C08 KRJ d   1       8.633  28.006   9.517  0.00  0.00     0.292 C 
ATOM     11  O09 KRJ d   1       9.209  27.879  10.601  0.00  0.00    -0.264 OA
ATOM     12  N10 KRJ d   1       7.833  29.014   9.155  0.00  0.00    -0.320 N 
ATOM     13  H3  KRJ d   1       7.519  29.002   8.206  0.00  0.00     0.169 HD
BRANCH  12  14
ATOM     14  C11 KRJ d   1       7.374  30.096   9.944  0.00  0.00     0.045 A 
ATOM     15  C12 KRJ d   1       7.578  30.039  11.334  0.00  0.00    -0.056 A 
ATOM     16  C13 KRJ d   1       7.103  31.048  12.163  0.00  0.00    -0.074 A 
ATOM     17  H4  KRJ d   1       8.112  29.199  11.764  0.00  0.00     0.087 H 
ATOM     18  C14 KRJ d   1       6.409  32.157  11.649  0.00  0.00    -0.053 A 
ATOM     19  H5  KRJ d   1       7.272  30.978  13.232  0.00  0.00     0.084 H 
ATOM     20  C15 KRJ d   1       6.193  32.233  10.243  0.00  0.00    -0.064 A 
ATOM     21  C16 KRJ d   1       6.661  31.195   9.381  0.00  0.00    -0.003 A 
ATOM     22  H6  KRJ d   1       5.670  33.085   9.824  0.00  0.00     0.085 H 
BRANCH  18  23
ATOM     23  C23 KRJ d   1       5.964  33.170  12.724  0.00  0.00    -0.026 C 
ATOM     24  C24 KRJ d   1       4.462  33.015  13.103  0.00  0.00    -0.035 C 
ATOM     25  C25 KRJ d   1       3.738  34.324  13.451  0.00  0.00     0.082 C 
ATOM     26  H17 KRJ d   1       4.398  32.348  13.976  0.00  0.00     0.036 H 
ATOM     27  H18 KRJ d   1       3.942  32.554  12.251  0.00  0.00     0.036 H 
ATOM     28  N26 KRJ d   1       4.673  35.155  14.195  0.00  0.00    -0.075 N 
ATOM     29  H19 KRJ d   1       2.852  34.111  14.067  0.00  0.00     0.075 H 
ATOM     30  H20 KRJ d   1       3.429  34.839  12.530  0.00  0.00     0.075 H 
ATOM     31  C27 KRJ d   1       5.546  35.739  13.188  0.00  0.00     0.082 C 
ATOM     32  H21 KRJ d   1       5.205  34.596  14.843  0.00  0.00     0.277 HD
ATOM     33  H22 KRJ d   1       4.182  35.877  14.699  0.00  0.00     0.277 HD
ATOM     34  C28 KRJ d   1       6.454  34.640  12.590  0.00  0.00    -0.035 C 
ATOM     35  H23 KRJ d   1       6.170  36.518  13.651  0.00  0.00     0.075 H 
ATOM     36  H24 KRJ d   1       4.936  36.185  12.389  0.00  0.00     0.075 H 
ATOM     37  H25 KRJ d   1       6.572  34.854  11.518  0.00  0.00     0.036 H 
ATOM     38  H26 KRJ d   1       7.432  34.711  13.088  0.00  0.00     0.036 H 
ATOM     39  H16 KRJ d   1       6.494  32.824  13.623  0.00  0.00     0.047 H 
ENDBRANCH  18  23
BRANCH  21  40
ATOM     40  C17 KRJ d   1       6.446  31.299   7.914  0.00  0.00    -0.049 C 
ATOM     41  C18 KRJ d   1       5.706  30.375   7.256  0.00  0.00    -0.096 C 
ATOM     42  C19 KRJ d   1       5.500  30.335   5.747  0.00  0.00    -0.049 C 
ATOM     43  H7  KRJ d   1       5.221  29.602   7.851  0.00  0.00     0.077 H 
ATOM     44  C20 KRJ d   1       6.653  31.007   4.987  0.00  0.00    -0.062 C 
ATOM     45  H8  KRJ d   1       4.563  30.857   5.503  0.00  0.00     0.038 H 
ATOM     46  H9  KRJ d   1       5.429  29.285   5.427  0.00  0.00     0.038 H 
ATOM     47  C21 KRJ d   1       6.974  32.366   5.618  0.00  0.00    -0.061 C 
ATOM     48  H10 KRJ d   1       6.361  31.153   3.937  0.00  0.00     0.033 H 
ATOM     49  H11 KRJ d   1       7.544  30.364   5.034  0.00  0.00     0.033 H 
ATOM     50  C22 KRJ d   1       7.345  32.236   7.111  0.00  0.00    -0.040 C 
ATOM     51  H12 KRJ d   1       6.092  33.017   5.526  0.00  0.00     0.033 H 
ATOM     52  H13 KRJ d   1       7.821  32.817   5.080  0.00  0.00     0.033 H 
ATOM     53  H14 KRJ d   1       8.377  31.860   7.176  0.00  0.00     0.040 H 
ATOM     54  H15 KRJ d   1       7.290  33.236   7.566  0.00  0.00     0.040 H 
ENDBRANCH  21  40
ENDBRANCH  12  14
ENDBRANCH   6  10
TORSDOF 4
