REMARK  5 active torsions:
REMARK  status: ('A' for Active; 'I' for Inactive)
REMARK    1  A    between atoms: C01_1  and  N02_2 
REMARK    2  A    between atoms: N05_5  and  C08_8 
REMARK    3  A    between atoms: C11_11  and  N12_12 
REMARK       I    between atoms: N12_12  and  C13_13 
REMARK    4  A    between atoms: C13_13  and  C15_15 
REMARK    5  A    between atoms: C22_22  and  N24_24 
ROOT
ATOM      1  C15 KRL d   1      14.552 -18.733  -8.030  0.00  0.00     0.144 A 
ATOM      2  C16 KRL d   1      14.894 -20.065  -7.873  0.00  0.00    -0.041 A 
ATOM      3  C17 KRL d   1      15.648 -20.151  -6.646  0.00  0.00    -0.037 A 
ATOM      4  C18 KRL d   1      15.696 -18.862  -6.151  0.00  0.00     0.156 A 
ATOM      5  C19 KRL d   1      16.248 -18.208  -5.022  0.00  0.00     0.125 C 
ATOM      6  N20 KRL d   1      16.685 -17.652  -4.104  0.00  0.00    -0.189 NA
ATOM      7  O21 KRL d   1      15.029 -17.991  -6.983  0.00  0.00    -0.294 OA
ATOM      8  H16 KRL d   1      14.643 -20.886  -8.543  0.00  0.00     0.088 H 
ATOM      9  H17 KRL d   1      16.087 -21.044  -6.203  0.00  0.00     0.089 H 
ENDROOT
BRANCH   1  10
ATOM     10  C13 KRL d   1      13.755 -18.027  -9.108  0.00  0.00     0.280 C 
ATOM     11  N12 KRL d   1      13.237 -16.734  -8.905  0.00  0.00    -0.319 N 
ATOM     12  H15 KRL d   1      13.409 -16.380  -7.986  0.00  0.00     0.169 HD
ATOM     13  O14 KRL d   1      13.583 -18.695 -10.125  0.00  0.00    -0.265 OA
BRANCH  11  14
ATOM     14  C11 KRL d   1      12.506 -15.805  -9.749  0.00  0.00     0.061 A 
ATOM     15  C10 KRL d   1      12.289 -15.930 -11.136  0.00  0.00    -0.053 A 
ATOM     16  C09 KRL d   1      11.619 -14.962 -11.914  0.00  0.00    -0.055 A 
ATOM     17  H14 KRL d   1      12.658 -16.820 -11.633  0.00  0.00     0.087 H 
ATOM     18  C08 KRL d   1      11.089 -13.767 -11.406  0.00  0.00     0.032 A 
ATOM     19  H13 KRL d   1      11.507 -15.155 -12.975  0.00  0.00     0.087 H 
ATOM     20  C23 KRL d   1      11.316 -13.634 -10.004  0.00  0.00    -0.030 A 
ATOM     21  C22 KRL d   1      11.993 -14.589  -9.189  0.00  0.00     0.059 A 
ATOM     22  H18 KRL d   1      10.945 -12.738  -9.520  0.00  0.00     0.090 H 
BRANCH  18  23
ATOM     23  N05 KRL d   1      10.440 -12.683 -12.240  0.00  0.00    -0.378 N 
ATOM     24  C04 KRL d   1       9.015 -12.324 -12.042  0.00  0.00     0.018 C 
ATOM     25  C03 KRL d   1       8.289 -11.225 -12.910  0.00  0.00     0.098 C 
ATOM     26  H7  KRL d   1       8.443 -13.253 -12.185  0.00  0.00     0.066 H 
ATOM     27  H8  KRL d   1       8.925 -11.995 -10.996  0.00  0.00     0.066 H 
ATOM     28  N02 KRL d   1       8.968 -10.669 -14.088  0.00  0.00    -0.072 N 
ATOM     29  H5  KRL d   1       7.346 -11.668 -13.263  0.00  0.00     0.078 H 
ATOM     30  H6  KRL d   1       8.069 -10.381 -12.239  0.00  0.00     0.078 H 
ATOM     31  C07 KRL d   1      10.399 -10.920 -14.273  0.00  0.00     0.098 C 
ATOM     32  H4  KRL d   1       9.091  -9.752 -13.687  0.00  0.00     0.279 HD
ATOM     33  C06 KRL d   1      11.118 -12.005 -13.381  0.00  0.00     0.018 C 
ATOM     34  H11 KRL d   1      10.917  -9.966 -14.096  0.00  0.00     0.078 H 
ATOM     35  H12 KRL d   1      10.538 -11.224 -15.321  0.00  0.00     0.078 H 
ATOM     36  H9  KRL d   1      11.433 -12.805 -14.068  0.00  0.00     0.066 H 
ATOM     37  H10 KRL d   1      12.007 -11.513 -12.959  0.00  0.00     0.066 H 
BRANCH  28  38
ATOM     38  C01 KRL d   1       8.166 -10.187 -15.259  0.00  0.00     0.066 C 
ATOM     39  H1  KRL d   1       7.118 -10.049 -14.954  0.00  0.00     0.068 H 
ATOM     40  H2  KRL d   1       8.217 -10.930 -16.069  0.00  0.00     0.068 H 
ATOM     41  H3  KRL d   1       8.574  -9.229 -15.614  0.00  0.00     0.068 H 
ENDBRANCH  28  38
ENDBRANCH  18  23
BRANCH  21  42
ATOM     42  N24 KRL d   1      12.183 -14.465  -7.729  0.00  0.00    -0.379 N 
ATOM     43  C25 KRL d   1      13.210 -13.453  -7.384  0.00  0.00    -0.005 C 
ATOM     44  C26 KRL d   1      13.506 -13.216  -5.891  0.00  0.00    -0.050 C 
ATOM     45  H19 KRL d   1      12.883 -12.493  -7.811  0.00  0.00     0.064 H 
ATOM     46  H20 KRL d   1      14.151 -13.764  -7.861  0.00  0.00     0.064 H 
ATOM     47  C27 KRL d   1      12.601 -13.984  -4.944  0.00  0.00    -0.062 C 
ATOM     48  H21 KRL d   1      13.390 -12.142  -5.683  0.00  0.00     0.035 H 
ATOM     49  H22 KRL d   1      14.545 -13.517  -5.694  0.00  0.00     0.035 H 
ATOM     50  C28 KRL d   1      12.545 -15.433  -5.382  0.00  0.00    -0.050 C 
ATOM     51  H23 KRL d   1      11.590 -13.552  -4.969  0.00  0.00     0.033 H 
ATOM     52  H24 KRL d   1      13.001 -13.923  -3.921  0.00  0.00     0.033 H 
ATOM     53  C29 KRL d   1      11.770 -15.478  -6.714  0.00  0.00    -0.005 C 
ATOM     54  H25 KRL d   1      12.025 -16.036  -4.623  0.00  0.00     0.035 H 
ATOM     55  H26 KRL d   1      13.563 -15.823  -5.526  0.00  0.00     0.035 H 
ATOM     56  H27 KRL d   1      11.910 -16.476  -7.154  0.00  0.00     0.064 H 
ATOM     57  H28 KRL d   1      10.704 -15.321  -6.492  0.00  0.00     0.064 H 
ENDBRANCH  21  42
ENDBRANCH  11  14
ENDBRANCH   1  10
TORSDOF 5
