REMARK  5 active torsions:
REMARK  status: ('A' for Active; 'I' for Inactive)
REMARK    1  A    between atoms: C3_3  and  C48_30 
REMARK    2  A    between atoms: C7_6  and  C10_8 
REMARK    3  A    between atoms: C13_11  and  C24_18 
REMARK    4  A    between atoms: N27_20  and  C31_23 
REMARK    5  A    between atoms: C48_30  and  N51_31 
ROOT
ATOM      1  C10 DQX d   1      13.018  12.131   2.440  0.00  0.00     0.005 A 
ATOM      2  C11 DQX d   1      13.267  10.745   2.463  0.00  0.00     0.097 A 
ATOM      3  N12 DQX d   1      14.342  10.219   3.129  0.00  0.00    -0.243 NA
ATOM      4  C13 DQX d   1      14.555   8.878   3.139  0.00  0.00     0.088 A 
ATOM      5  C14 DQX d   1      13.667   8.044   2.452  0.00  0.00     0.032 A 
ATOM      6  N16 DQX d   1      12.614   8.549   1.781  0.00  0.00    -0.256 NA
ATOM      7  C17 DQX d   1      12.388   9.882   1.777  0.00  0.00     0.086 A 
ATOM      8  C18 DQX d   1      11.277  10.383   1.078  0.00  0.00    -0.053 A 
ATOM      9  C20 DQX d   1      11.040  11.762   1.053  0.00  0.00    -0.080 A 
ATOM     10  C22 DQX d   1      11.902  12.634   1.740  0.00  0.00    -0.070 A 
ATOM     11  H   DQX d   1      13.830   6.966   2.460  0.00  0.00     0.118 H 
ATOM     12  H   DQX d   1      10.604   9.702   0.558  0.00  0.00     0.087 H 
ATOM     13  H   DQX d   1      10.188  12.159   0.501  0.00  0.00     0.083 H 
ATOM     14  H   DQX d   1      11.707  13.706   1.732  0.00  0.00     0.084 H 
ENDROOT
BRANCH   1  15
ATOM     15  C7  DQX d   1      13.913  13.121   3.103  0.00  0.00    -0.018 A 
ATOM     16  C5  DQX d   1      14.313  14.214   2.322  0.00  0.00    -0.034 A 
ATOM     17  C4  DQX d   1      15.163  15.195   2.840  0.00  0.00     0.128 A 
ATOM     18  H   DQX d   1      13.956  14.300   1.296  0.00  0.00     0.089 H 
ATOM     19  C3  DQX d   1      15.617  15.090   4.166  0.00  0.00     0.036 A 
ATOM     20  F47 DQX d   1      15.521  16.217   2.050  0.00  0.00    -0.205 F 
ATOM     21  C2  DQX d   1      15.224  13.982   4.943  0.00  0.00     0.128 A 
ATOM     22  F1  DQX d   1      15.624  13.838   6.208  0.00  0.00    -0.205 F 
ATOM     23  C8  DQX d   1      14.376  12.999   4.418  0.00  0.00    -0.034 A 
ATOM     24  H   DQX d   1      14.079  12.146   5.028  0.00  0.00     0.089 H 
BRANCH  19  25
ATOM     25  C48 DQX d   1      16.527  16.184   4.754  0.00  0.00     0.020 C 
ATOM     26  H   DQX d   1      17.136  16.610   3.957  0.00  0.00     0.071 H 
ATOM     27  H   DQX d   1      17.168  15.745   5.519  0.00  0.00     0.071 H 
BRANCH  25  28
ATOM     28  N51 DQX d   1      15.689  17.274   5.375  0.00  0.00    -0.404 N 
ATOM     29  C52 DQX d   1      14.995  16.869   6.639  0.00  0.00     0.010 C 
ATOM     30  C55 DQX d   1      14.147  18.009   7.263  0.00  0.00     0.034 C 
ATOM     31  H   DQX d   1      15.762  16.593   7.363  0.00  0.00     0.066 H 
ATOM     32  H   DQX d   1      14.319  16.049   6.396  0.00  0.00     0.066 H 
ATOM     33  O58 DQX d   1      13.291  18.597   6.263  0.00  0.00    -0.388 OA
ATOM     34  H   DQX d   1      14.814  18.776   7.657  0.00  0.00     0.076 H 
ATOM     35  H   DQX d   1      13.531  17.599   8.063  0.00  0.00     0.076 H 
ATOM     36  C59 DQX d   1      14.057  19.195   5.200  0.00  0.00     0.034 C 
ATOM     37  C62 DQX d   1      14.838  18.084   4.445  0.00  0.00     0.010 C 
ATOM     38  H   DQX d   1      14.759  19.917   5.617  0.00  0.00     0.076 H 
ATOM     39  H   DQX d   1      13.386  19.705   4.508  0.00  0.00     0.076 H 
ATOM     40  H   DQX d   1      14.116  17.418   3.972  0.00  0.00     0.066 H 
ATOM     41  H   DQX d   1      15.489  18.560   3.711  0.00  0.00     0.066 H 
ENDBRANCH  25  28
ENDBRANCH  19  25
ENDBRANCH   1  15
BRANCH   4  42
ATOM     42  C24 DQX d   1      15.741   8.327   3.910  0.00  0.00     0.030 A 
ATOM     43  C25 DQX d   1      16.119   7.042   4.157  0.00  0.00     0.013 A 
ATOM     44  N27 DQX d   1      17.216   7.098   4.871  0.00  0.00    -0.276 N 
ATOM     45  H   DQX d   1      15.607   6.139   3.824  0.00  0.00     0.115 H 
ATOM     46  N28 DQX d   1      17.549   8.388   5.107  0.00  0.00    -0.184 NA
ATOM     47  C29 DQX d   1      16.723   9.188   4.569  0.00  0.00     0.035 A 
ATOM     48  H   DQX d   1      16.741  10.278   4.593  0.00  0.00     0.118 H 
BRANCH  44  49
ATOM     49  C31 DQX d   1      18.040   6.036   5.436  0.00  0.00     0.037 C 
ATOM     50  C33 DQX d   1      17.312   5.392   6.655  0.00  0.00    -0.022 C 
ATOM     51  C36 DQX d   1      18.147   4.250   7.288  0.00  0.00     0.084 C 
ATOM     52  H   DQX d   1      16.368   4.973   6.307  0.00  0.00     0.038 H 
ATOM     53  H   DQX d   1      17.160   6.164   7.410  0.00  0.00     0.038 H 
ATOM     54  N39 DQX d   1      18.518   3.299   6.219  0.00  0.00    -0.075 N 
ATOM     55  H   DQX d   1      17.563   3.741   8.055  0.00  0.00     0.075 H 
ATOM     56  H   DQX d   1      19.044   4.657   7.754  0.00  0.00     0.075 H 
ATOM     57  C41 DQX d   1      19.380   3.883   5.153  0.00  0.00     0.084 C 
ATOM     58  H   DQX d   1      17.652   2.995   5.773  0.00  0.00     0.277 HD
ATOM     59  H   DQX d   1      19.050   2.547   6.657  0.00  0.00     0.277 HD
ATOM     60  C44 DQX d   1      18.579   5.000   4.412  0.00  0.00    -0.022 C 
ATOM     61  H   DQX d   1      19.670   3.106   4.446  0.00  0.00     0.075 H 
ATOM     62  H   DQX d   1      20.280   4.308   5.598  0.00  0.00     0.075 H 
ATOM     63  H   DQX d   1      19.238   5.504   3.705  0.00  0.00     0.038 H 
ATOM     64  H   DQX d   1      17.740   4.548   3.883  0.00  0.00     0.038 H 
ATOM     65  H   DQX d   1      18.957   6.507   5.791  0.00  0.00     0.076 H 
ENDBRANCH  44  49
ENDBRANCH   4  42
TORSDOF 5
