REMARK  12 active torsions:
REMARK  status: ('A' for Active; 'I' for Inactive)
REMARK    1  A    between atoms: C1'_1  and  C2'_2 
REMARK       I    between atoms: N1'_10  and  C1'_1 
REMARK    2  A    between atoms: C5'_5  and  O5'_6 
REMARK    3  A    between atoms: C3_13  and  N1'_10 
REMARK    4  A    between atoms: C4_14  and  OAC_18 
REMARK    5  A    between atoms: OAC_18  and  C1B_19 
REMARK    6  A    between atoms: C1B_19  and  C2B_21 
REMARK    7  A    between atoms: C4B_23  and  O4'_24 
REMARK    8  A    between atoms: C5B_25  and  C8'_29 
REMARK    9  A    between atoms: C6B_26  and  O6'_27 
REMARK   10  A    between atoms: C8'_29  and  C9'_31 
REMARK   11  A    between atoms: CXU_32  and  OXU_33 
REMARK   12  A    between atoms: CXY_37  and  CX8_38 
ROOT
ATOM      1  N1  BA1 d   1      35.433  -7.228  49.189  0.00  0.00    -0.073 N 
ATOM      2  C2  BA1 d   1      34.737  -5.967  49.330  0.00  0.00     0.102 C 
ATOM      3  C3  BA1 d   1      34.575  -5.616  50.804  0.00  0.00     0.061 C 
ATOM      4  C4  BA1 d   1      33.591  -6.464  51.613  0.00  0.00     0.069 C 
ATOM      5  C5  BA1 d   1      33.028  -7.709  50.919  0.00  0.00    -0.037 C 
ATOM      6  C6  BA1 d   1      34.094  -8.745  50.566  0.00  0.00    -0.040 C 
ATOM      7  C7  BA1 d   1      34.701  -8.477  49.196  0.00  0.00     0.082 C 
ATOM      8  H7  BA1 d   1      36.096  -7.278  49.947  0.00  0.00     0.277 HD
ATOM      9  H8  BA1 d   1      35.928  -7.188  48.312  0.00  0.00     0.277 HD
ATOM     10  H9  BA1 d   1      33.744  -6.046  48.864  0.00  0.00     0.079 H 
ATOM     11  H10 BA1 d   1      35.314  -5.176  48.830  0.00  0.00     0.079 H 
ATOM     12  H11 BA1 d   1      35.561  -5.720  51.280  0.00  0.00     0.079 H 
ATOM     13  H12 BA1 d   1      32.741  -5.832  51.910  0.00  0.00     0.087 H 
ATOM     14  H13 BA1 d   1      32.528  -7.394  49.991  0.00  0.00     0.036 H 
ATOM     15  H14 BA1 d   1      32.294  -8.180  51.590  0.00  0.00     0.036 H 
ATOM     16  H15 BA1 d   1      33.634  -9.744  50.564  0.00  0.00     0.035 H 
ATOM     17  H16 BA1 d   1      34.891  -8.710  51.323  0.00  0.00     0.035 H 
ATOM     18  H17 BA1 d   1      35.387  -9.298  48.940  0.00  0.00     0.075 H 
ATOM     19  H18 BA1 d   1      33.895  -8.426  48.449  0.00  0.00     0.075 H 
ENDROOT
BRANCH   4  20
ATOM     20  OAC BA1 d   1      34.331  -6.864  52.761  0.00  0.00    -0.310 OA
BRANCH  20  21
ATOM     21  C1B BA1 d   1      33.679  -6.871  54.060  0.00  0.00     0.293 C 
ATOM     22  OBC BA1 d   1      32.524  -6.516  54.219  0.00  0.00    -0.259 OA
BRANCH  21  23
ATOM     23  C2B BA1 d   1      34.513  -7.391  55.184  0.00  0.00     0.044 A 
ATOM     24  C3B BA1 d   1      34.007  -7.459  56.484  0.00  0.00    -0.034 A 
ATOM     25  C4B BA1 d   1      34.791  -7.958  57.518  0.00  0.00     0.083 A 
ATOM     26  H19 BA1 d   1      32.998  -7.121  56.688  0.00  0.00     0.089 H 
ATOM     27  C5B BA1 d   1      36.169  -8.419  57.221  0.00  0.00     0.081 A 
ATOM     28  C6B BA1 d   1      36.652  -8.329  55.819  0.00  0.00     0.083 A 
ATOM     29  C7B BA1 d   1      35.803  -7.817  54.860  0.00  0.00    -0.034 A 
ATOM     30  H22 BA1 d   1      36.144  -7.744  53.834  0.00  0.00     0.089 H 
BRANCH  25  31
ATOM     31  O4' BA1 d   1      34.303  -8.024  58.785  0.00  0.00    -0.360 OA
ATOM     32  H20 BA1 d   1      34.966  -8.387  59.360  0.00  0.00     0.217 HD
ENDBRANCH  25  31
BRANCH  27  33
ATOM     33  C8' BA1 d   1      37.025  -8.981  58.311  0.00  0.00     0.201 C 
ATOM     34  O8' BA1 d   1      36.606  -9.057  59.451  0.00  0.00    -0.286 OA
BRANCH  33  35
ATOM     35  C9' BA1 d   1      38.387  -9.483  57.955  0.00  0.00     0.065 A 
ATOM     36  CXU BA1 d   1      39.533  -8.565  58.107  0.00  0.00     0.081 A 
ATOM     37  CX4 BA1 d   1      40.801  -9.016  57.764  0.00  0.00    -0.050 A 
ATOM     38  CXE BA1 d   1      41.002 -10.311  57.272  0.00  0.00    -0.079 A 
ATOM     39  H24 BA1 d   1      41.651  -8.353  57.879  0.00  0.00     0.087 H 
ATOM     40  CXO BA1 d   1      39.949 -11.214  57.103  0.00  0.00    -0.065 A 
ATOM     41  H25 BA1 d   1      42.007 -10.624  57.014  0.00  0.00     0.083 H 
ATOM     42  CXY BA1 d   1      38.637 -10.854  57.420  0.00  0.00     0.057 A 
ATOM     43  H26 BA1 d   1      40.153 -12.208  56.721  0.00  0.00     0.085 H 
BRANCH  36  44
ATOM     44  OXU BA1 d   1      39.333  -7.307  58.588  0.00  0.00    -0.360 OA
ATOM     45  H23 BA1 d   1      40.164  -6.847  58.624  0.00  0.00     0.217 HD
ENDBRANCH  36  44
BRANCH  42  46
ATOM     46  CX8 BA1 d   1      37.518 -11.837  57.225  0.00  0.00     0.210 C 
ATOM     47  OX8 BA1 d   1      37.769 -12.976  56.778  0.00  0.00    -0.644 OA
ATOM     48  OXI BA1 d   1      36.351 -11.502  57.511  0.00  0.00    -0.644 OA
ENDBRANCH  42  46
ENDBRANCH  33  35
ENDBRANCH  27  33
BRANCH  28  49
ATOM     49  O6' BA1 d   1      37.894  -8.728  55.439  0.00  0.00    -0.360 OA
ATOM     50  H21 BA1 d   1      37.999  -8.586  54.506  0.00  0.00     0.217 HD
ENDBRANCH  28  49
ENDBRANCH  21  23
ENDBRANCH  20  21
ENDBRANCH   4  20
BRANCH   3  51
ATOM     51  N1' BA1 d   1      34.160  -4.232  50.867  0.00  0.00    -0.348 N 
ATOM     52  C1' BA1 d   1      34.990  -3.264  51.252  0.00  0.00     0.252 C 
ATOM     53  O1' BA1 d   1      36.135  -3.539  51.565  0.00  0.00    -0.268 OA
ATOM     54  H6  BA1 d   1      33.222  -3.995  50.614  0.00  0.00     0.163 HD
BRANCH  52  55
ATOM     55  C2' BA1 d   1      34.538  -1.823  51.304  0.00  0.00     0.032 A 
ATOM     56  C3' BA1 d   1      35.435  -0.836  51.709  0.00  0.00    -0.065 A 
ATOM     57  C4' BA1 d   1      35.047   0.500  51.761  0.00  0.00    -0.050 A 
ATOM     58  H1  BA1 d   1      36.446  -1.112  51.987  0.00  0.00     0.085 H 
ATOM     59  C5' BA1 d   1      33.756   0.863  51.406  0.00  0.00     0.065 A 
ATOM     60  H2  BA1 d   1      35.754   1.257  52.079  0.00  0.00     0.087 H 
ATOM     61  C6' BA1 d   1      32.854  -0.109  50.998  0.00  0.00    -0.050 A 
ATOM     62  C7' BA1 d   1      33.241  -1.443  50.947  0.00  0.00    -0.065 A 
ATOM     63  H4  BA1 d   1      31.845   0.172  50.718  0.00  0.00     0.087 H 
ATOM     64  H5  BA1 d   1      32.530  -2.196  50.627  0.00  0.00     0.085 H 
BRANCH  59  65
ATOM     65  O5' BA1 d   1      33.373   2.162  51.454  0.00  0.00    -0.361 OA
ATOM     66  H3  BA1 d   1      33.922   2.675  50.872  0.00  0.00     0.217 HD
ENDBRANCH  59  65
ENDBRANCH  52  55
ENDBRANCH   3  51
TORSDOF 12
