REMARK  12 active torsions:
REMARK  status: ('A' for Active; 'I' for Inactive)
REMARK    1  A    between atoms: C1'_1  and  C2'_2 
REMARK       I    between atoms: N1'_10  and  C1'_1 
REMARK    2  A    between atoms: C5'_5  and  O5'_6 
REMARK    3  A    between atoms: C3_13  and  N1'_10 
REMARK    4  A    between atoms: C4_14  and  OAC_18 
REMARK    5  A    between atoms: OAC_18  and  C1B_19 
REMARK    6  A    between atoms: C1B_19  and  C2B_21 
REMARK    7  A    between atoms: C4B_23  and  O4'_24 
REMARK    8  A    between atoms: C5B_25  and  C8'_29 
REMARK    9  A    between atoms: C6B_26  and  O6'_27 
REMARK   10  A    between atoms: C8'_29  and  C9'_31 
REMARK   11  A    between atoms: CXU_32  and  OXU_33 
REMARK   12  A    between atoms: CXY_37  and  CX8_38 
ROOT
ATOM      1  N1  BA1 d   1      36.133  -7.452  49.185  0.00  0.00    -0.073 N 
ATOM      2  C2  BA1 d   1      35.539  -6.132  49.241  0.00  0.00     0.102 C 
ATOM      3  C3  BA1 d   1      35.228  -5.746  50.684  0.00  0.00     0.061 C 
ATOM      4  C4  BA1 d   1      34.171  -6.595  51.411  0.00  0.00     0.069 C 
ATOM      5  C5  BA1 d   1      33.536  -7.749  50.624  0.00  0.00    -0.037 C 
ATOM      6  C6  BA1 d   1      34.500  -8.897  50.319  0.00  0.00    -0.040 C 
ATOM      7  C7  BA1 d   1      35.301  -8.632  49.051  0.00  0.00     0.082 C 
ATOM      8  H   BA1 d   1      36.580  -7.564  50.095  0.00  0.00     0.277 HD
ATOM      9  H   BA1 d   1      36.689  -7.440  48.330  0.00  0.00     0.277 HD
ATOM     10  H   BA1 d   1      34.612  -6.137  48.668  0.00  0.00     0.079 H 
ATOM     11  H   BA1 d   1      36.242  -5.410  48.825  0.00  0.00     0.079 H 
ATOM     12  H   BA1 d   1      36.150  -5.926  51.238  0.00  0.00     0.079 H 
ATOM     13  H   BA1 d   1      33.337  -5.926  51.623  0.00  0.00     0.087 H 
ATOM     14  H   BA1 d   1      33.202  -7.344  49.669  0.00  0.00     0.036 H 
ATOM     15  H   BA1 d   1      32.732  -8.156  51.238  0.00  0.00     0.036 H 
ATOM     16  H   BA1 d   1      33.918  -9.807  50.176  0.00  0.00     0.035 H 
ATOM     17  H   BA1 d   1      35.196  -8.994  51.153  0.00  0.00     0.035 H 
ATOM     18  H   BA1 d   1      35.947  -9.490  48.865  0.00  0.00     0.075 H 
ATOM     19  H   BA1 d   1      34.603  -8.471  48.229  0.00  0.00     0.075 H 
ENDROOT
BRANCH   4  20
ATOM     20  OAC BA1 d   1      34.825  -7.146  52.547  0.00  0.00    -0.310 OA
BRANCH  20  21
ATOM     21  C1B BA1 d   1      34.188  -7.048  53.851  0.00  0.00     0.293 C 
ATOM     22  OBC BA1 d   1      33.063  -6.597  54.003  0.00  0.00    -0.259 OA
BRANCH  21  23
ATOM     23  C2B BA1 d   1      35.004  -7.569  54.989  0.00  0.00     0.044 A 
ATOM     24  C3B BA1 d   1      34.545  -7.537  56.310  0.00  0.00    -0.034 A 
ATOM     25  C4B BA1 d   1      35.337  -8.041  57.342  0.00  0.00     0.083 A 
ATOM     26  H   BA1 d   1      33.565  -7.117  56.534  0.00  0.00     0.089 H 
ATOM     27  C5B BA1 d   1      36.672  -8.610  57.019  0.00  0.00     0.081 A 
ATOM     28  C6B BA1 d   1      37.101  -8.616  55.595  0.00  0.00     0.083 A 
ATOM     29  C7B BA1 d   1      36.248  -8.096  54.645  0.00  0.00    -0.034 A 
ATOM     30  H   BA1 d   1      36.554  -8.097  53.599  0.00  0.00     0.089 H 
BRANCH  25  31
ATOM     31  O4' BA1 d   1      34.899  -8.015  58.630  0.00  0.00    -0.360 OA
ATOM     32  H   BA1 d   1      35.567  -8.400  59.202  0.00  0.00     0.217 HD
ENDBRANCH  25  31
BRANCH  27  33
ATOM     33  C8' BA1 d   1      37.549  -9.169  58.096  0.00  0.00     0.201 C 
ATOM     34  O8' BA1 d   1      37.130  -9.285  59.233  0.00  0.00    -0.286 OA
BRANCH  33  35
ATOM     35  C9' BA1 d   1      38.937  -9.600  57.737  0.00  0.00     0.065 A 
ATOM     36  CXU BA1 d   1      40.030  -8.602  57.774  0.00  0.00     0.081 A 
ATOM     37  CX4 BA1 d   1      41.314  -8.997  57.426  0.00  0.00    -0.050 A 
ATOM     38  CXE BA1 d   1      41.585 -10.310  57.036  0.00  0.00    -0.079 A 
ATOM     39  H   BA1 d   1      42.125  -8.270  57.458  0.00  0.00     0.087 H 
ATOM     40  CXO BA1 d   1      40.586 -11.286  56.975  0.00  0.00    -0.065 A 
ATOM     41  H   BA1 d   1      42.607 -10.582  56.771  0.00  0.00     0.083 H 
ATOM     42  CXY BA1 d   1      39.260 -10.993  57.305  0.00  0.00     0.057 A 
ATOM     43  H   BA1 d   1      40.847 -12.297  56.663  0.00  0.00     0.085 H 
BRANCH  36  44
ATOM     44  OXU BA1 d   1      39.782  -7.318  58.154  0.00  0.00    -0.360 OA
ATOM     45  H   BA1 d   1      40.597  -6.812  58.120  0.00  0.00     0.217 HD
ENDBRANCH  36  44
BRANCH  42  46
ATOM     46  CX8 BA1 d   1      38.206 -12.070  57.224  0.00  0.00     0.210 C 
ATOM     47  OX8 BA1 d   1      38.535 -13.220  56.861  0.00  0.00    -0.644 OA
ATOM     48  OXI BA1 d   1      37.019 -11.814  57.517  0.00  0.00    -0.644 OA
ENDBRANCH  42  46
ENDBRANCH  33  35
ENDBRANCH  27  33
BRANCH  28  49
ATOM     49  O6' BA1 d   1      38.299  -9.110  55.178  0.00  0.00    -0.360 OA
ATOM     50  H   BA1 d   1      38.369  -9.014  54.225  0.00  0.00     0.217 HD
ENDBRANCH  28  49
ENDBRANCH  21  23
ENDBRANCH  20  21
ENDBRANCH   4  20
BRANCH   3  51
ATOM     51  N1' BA1 d   1      34.803  -4.357  50.694  0.00  0.00    -0.348 N 
ATOM     52  C1' BA1 d   1      35.603  -3.366  51.098  0.00  0.00     0.252 C 
ATOM     53  O1' BA1 d   1      36.738  -3.607  51.471  0.00  0.00    -0.268 OA
ATOM     54  H   BA1 d   1      33.859  -4.130  50.381  0.00  0.00     0.163 HD
BRANCH  52  55
ATOM     55  C2' BA1 d   1      35.136  -1.928  51.100  0.00  0.00     0.032 A 
ATOM     56  C3' BA1 d   1      36.007  -0.924  51.528  0.00  0.00    -0.065 A 
ATOM     57  C4' BA1 d   1      35.597   0.406  51.536  0.00  0.00    -0.050 A 
ATOM     58  H   BA1 d   1      37.013  -1.183  51.858  0.00  0.00     0.085 H 
ATOM     59  C5' BA1 d   1      34.316   0.743  51.113  0.00  0.00     0.065 A 
ATOM     60  H   BA1 d   1      36.281   1.184  51.874  0.00  0.00     0.087 H 
ATOM     61  C6' BA1 d   1      33.442  -0.244  50.686  0.00  0.00    -0.050 A 
ATOM     62  C7' BA1 d   1      33.849  -1.573  50.679  0.00  0.00    -0.065 A 
ATOM     63  H   BA1 d   1      32.438   0.021  50.356  0.00  0.00     0.087 H 
ATOM     64  H   BA1 d   1      33.159  -2.347  50.342  0.00  0.00     0.085 H 
BRANCH  59  65
ATOM     65  O5' BA1 d   1      33.909   2.037  51.116  0.00  0.00    -0.361 OA
ATOM     66  H   BA1 d   1      34.482   2.553  50.544  0.00  0.00     0.217 HD
ENDBRANCH  59  65
ENDBRANCH  52  55
ENDBRANCH   3  51
TORSDOF 12
