REMARK  11 active torsions:
REMARK  status: ('A' for Active; 'I' for Inactive)
REMARK    1  A    between atoms: S1_1  and  C2_2 
REMARK    2  A    between atoms: S1_1  and  C8_8 
REMARK    3  A    between atoms: C5_5  and  O24_24 
REMARK    4  A    between atoms: C8_8  and  C9_9 
REMARK       I    between atoms: C9_9  and  N10_10 
REMARK    5  A    between atoms: N17_17  and  C20_20 
REMARK    6  A    between atoms: C20_20  and  C21_21 
REMARK    7  A    between atoms: C21_21  and  O22_22 
REMARK    8  A    between atoms: O22_22  and  C23_23 
REMARK    9  A    between atoms: O24_24  and  C25_25 
REMARK   10  A    between atoms: C28_28  and  O31_31 
REMARK   11  A    between atoms: O31_31  and  C32_32 
ROOT
ATOM      1  C8  3KR d   1     -10.674   1.549   4.086  0.00  0.00     0.156 C 
ATOM      2  C15 3KR d   1     -12.072   1.757   3.463  0.00  0.00    -0.013 C 
ATOM      3  C16 3KR d   1     -12.524   3.225   3.424  0.00  0.00     0.086 C 
ATOM      4  N17 3KR d   1     -12.463   3.742   4.815  0.00  0.00    -0.069 N 
ATOM      5  C18 3KR d   1     -11.069   3.796   5.359  0.00  0.00     0.086 C 
ATOM      6  C19 3KR d   1     -10.533   2.345   5.403  0.00  0.00    -0.013 C 
ATOM      7  H5  3KR d   1     -12.803   1.185   4.053  0.00  0.00     0.038 H 
ATOM      8  H6  3KR d   1     -12.053   1.373   2.432  0.00  0.00     0.038 H 
ATOM      9  H7  3KR d   1     -13.553   3.292   3.042  0.00  0.00     0.076 H 
ATOM     10  H8  3KR d   1     -11.854   3.808   2.776  0.00  0.00     0.076 H 
ATOM     11  H9  3KR d   1     -12.483   4.716   4.557  0.00  0.00     0.280 HD
ATOM     12  H10 3KR d   1     -11.077   4.225   6.372  0.00  0.00     0.076 H 
ATOM     13  H11 3KR d   1     -10.434   4.412   4.705  0.00  0.00     0.076 H 
ATOM     14  H12 3KR d   1      -9.465   2.385   5.663  0.00  0.00     0.038 H 
ATOM     15  H13 3KR d   1     -11.082   1.804   6.188  0.00  0.00     0.038 H 
ENDROOT
BRANCH   1  16
ATOM     16  S1  3KR d   1     -10.583  -0.172   4.319  0.00  0.00     0.193 S 
ATOM     17  O12 3KR d   1      -9.549  -0.573   5.594  0.00  0.00    -0.221 OA
ATOM     18  O13 3KR d   1     -12.077  -0.878   4.650  0.00  0.00    -0.221 OA
BRANCH  16  19
ATOM     19  C2  3KR d   1     -10.007  -0.941   2.904  0.00  0.00     0.060 A 
ATOM     20  C3  3KR d   1     -10.910  -1.442   1.963  0.00  0.00    -0.059 A 
ATOM     21  C4  3KR d   1     -10.433  -2.052   0.796  0.00  0.00    -0.049 A 
ATOM     22  H1  3KR d   1     -11.977  -1.359   2.136  0.00  0.00     0.085 H 
ATOM     23  C5  3KR d   1      -9.055  -2.159   0.562  0.00  0.00     0.076 A 
ATOM     24  H2  3KR d   1     -11.134  -2.444   0.069  0.00  0.00     0.087 H 
ATOM     25  C6  3KR d   1      -8.164  -1.649   1.501  0.00  0.00    -0.049 A 
ATOM     26  C7  3KR d   1      -8.633  -1.038   2.668  0.00  0.00    -0.059 A 
ATOM     27  H3  3KR d   1      -7.097  -1.726   1.326  0.00  0.00     0.087 H 
ATOM     28  H4  3KR d   1      -7.930  -0.639   3.390  0.00  0.00     0.085 H 
BRANCH  23  29
ATOM     29  O24 3KR d   1      -8.561  -2.729  -0.536  0.00  0.00    -0.311 OA
BRANCH  29  30
ATOM     30  C25 3KR d   1      -9.229  -3.268  -1.566  0.00  0.00     0.076 A 
ATOM     31  C26 3KR d   1      -9.955  -2.432  -2.416  0.00  0.00    -0.048 A 
ATOM     32  C27 3KR d   1     -10.665  -2.955  -3.490  0.00  0.00    -0.048 A 
ATOM     33  H21 3KR d   1      -9.965  -1.363  -2.236  0.00  0.00     0.087 H 
ATOM     34  C28 3KR d   1     -10.639  -4.336  -3.692  0.00  0.00     0.078 A 
ATOM     35  H22 3KR d   1     -11.225  -2.307  -4.154  0.00  0.00     0.087 H 
ATOM     36  C29 3KR d   1      -9.928  -5.189  -2.845  0.00  0.00    -0.048 A 
ATOM     37  C30 3KR d   1      -9.213  -4.646  -1.767  0.00  0.00    -0.048 A 
ATOM     38  H23 3KR d   1      -9.929  -6.259  -3.019  0.00  0.00     0.087 H 
ATOM     39  H24 3KR d   1      -8.655  -5.291  -1.099  0.00  0.00     0.087 H 
BRANCH  34  40
ATOM     40  O31 3KR d   1     -11.335  -4.827  -4.707  0.00  0.00    -0.255 OA
BRANCH  40  41
ATOM     41  C32 3KR d   1     -10.853  -5.211  -6.015  0.00  0.00     0.530 C 
ATOM     42  F33 3KR d   1      -9.785  -6.011  -5.886  0.00  0.00    -0.144 F 
ATOM     43  F34 3KR d   1     -10.490  -4.123  -6.706  0.00  0.00    -0.144 F 
ATOM     44  F35 3KR d   1     -11.789  -5.877  -6.720  0.00  0.00    -0.144 F 
ENDBRANCH  40  41
ENDBRANCH  34  40
ENDBRANCH  29  30
ENDBRANCH  23  29
ENDBRANCH  16  19
ENDBRANCH   1  16
BRANCH   1  45
ATOM     45  C9  3KR d   1      -9.598   2.095   3.135  0.00  0.00     0.293 C 
ATOM     46  N10 3KR d   1      -8.348   2.370   3.539  0.00  0.00    -0.057 NA
ATOM     47  O11 3KR d   1      -7.490   2.646   2.715  0.00  0.00    -0.058 OA
ATOM     48  O14 3KR d   1      -9.868   2.343   1.962  0.00  0.00    -0.267 OA
ENDBRANCH   1  45
BRANCH   4  49
ATOM     49  C20 3KR d   1     -13.716   3.847   5.628  0.00  0.00     0.103 C 
ATOM     50  H14 3KR d   1     -14.549   4.066   4.944  0.00  0.00     0.079 H 
ATOM     51  H15 3KR d   1     -13.595   4.679   6.337  0.00  0.00     0.079 H 
BRANCH  49  52
ATOM     52  C21 3KR d   1     -14.076   2.587   6.430  0.00  0.00     0.042 C 
ATOM     53  H16 3KR d   1     -13.337   2.454   7.234  0.00  0.00     0.076 H 
ATOM     54  H17 3KR d   1     -14.047   1.717   5.758  0.00  0.00     0.076 H 
BRANCH  52  55
ATOM     55  O22 3KR d   1     -15.389   2.681   7.015  0.00  0.00    -0.394 OA
BRANCH  55  56
ATOM     56  C23 3KR d   1     -15.355   2.696   8.449  0.00  0.00     0.004 C 
ATOM     57  H18 3KR d   1     -16.381   2.769   8.839  0.00  0.00     0.066 H 
ATOM     58  H19 3KR d   1     -14.770   3.562   8.793  0.00  0.00     0.066 H 
ATOM     59  H20 3KR d   1     -14.888   1.769   8.815  0.00  0.00     0.066 H 
ENDBRANCH  55  56
ENDBRANCH  52  55
ENDBRANCH  49  52
ENDBRANCH   4  49
TORSDOF 11
