REMARK  16 active torsions:
REMARK  status: ('A' for Active; 'I' for Inactive)
REMARK    1  A    between atoms: C7_7  and  C1_1 
REMARK    2  A    between atoms: C2_2  and  C5_5 
REMARK    3  A    between atoms: C2_2  and  C8_8 
REMARK    4  A    between atoms: C4_4  and  C3_3 
REMARK    5  A    between atoms: C3_3  and  C13_13 
REMARK    6  A    between atoms: O22_22  and  C4_4 
REMARK    7  A    between atoms: C12_12  and  C6_6 
REMARK    8  A    between atoms: O23_23  and  C7_7 
REMARK    9  A    between atoms: C8_8  and  C9_9 
REMARK   10  A    between atoms: C9_9  and  C10_10 
REMARK   11  A    between atoms: C10_10  and  C12_12 
REMARK   12  A    between atoms: C12_12  and  C11_11 
REMARK   13  A    between atoms: C11_11  and  O22_22 
REMARK   14  A    between atoms: P29_29  and  O23_23 
REMARK   15  A    between atoms: O24_24  and  P28_28 
REMARK   16  A    between atoms: O24_24  and  P29_29 
ROOT
ATOM      1  C3  SZH d   1     183.719 121.189  31.876  0.00  0.00     0.293 C 
ATOM      2  N14 SZH d   1     183.478 123.626  31.706  0.00  0.00     0.044 N 
ATOM      3  N15 SZH d   1     183.564 122.491  31.776  0.00  0.00    -0.268 NA
ENDROOT
BRANCH   1   4
ATOM      4  C4  SZH d   1     185.091 120.710  32.327  0.00  0.00     0.331 C 
ATOM      5  O19 SZH d   1     185.247 119.601  32.825  0.00  0.00    -0.256 OA
BRANCH   4   6
ATOM      6  O22 SZH d   1     186.037 121.675  32.113  0.00  0.00    -0.315 OA
BRANCH   6   7
ATOM      7  C11 SZH d   1     187.371 121.276  31.722  0.00  0.00     0.032 C 
ATOM      8  H16 SZH d   1     187.508 120.212  31.963  0.00  0.00     0.075 H 
ATOM      9  H17 SZH d   1     187.482 121.423  30.638  0.00  0.00     0.075 H 
BRANCH   7  10
ATOM     10  C12 SZH d   1     188.459 122.097  32.451  0.00  0.00    -0.036 C 
ATOM     11  H18 SZH d   1     188.511 123.098  31.999  0.00  0.00     0.042 H 
BRANCH  10  12
ATOM     12  C6  SZH d   1     188.174 122.224  33.957  0.00  0.00    -0.071 C 
ATOM     13  H5  SZH d   1     188.971 122.814  34.433  0.00  0.00     0.028 H 
ATOM     14  H6  SZH d   1     188.140 121.222  34.410  0.00  0.00     0.028 H 
ATOM     15  H7  SZH d   1     187.207 122.727  34.106  0.00  0.00     0.028 H 
ENDBRANCH  10  12
BRANCH  10  16
ATOM     16  C10 SZH d   1     189.828 121.392  32.333  0.00  0.00    -0.060 C 
ATOM     17  H14 SZH d   1     190.530 121.920  32.995  0.00  0.00     0.033 H 
ATOM     18  H15 SZH d   1     189.698 120.358  32.686  0.00  0.00     0.033 H 
BRANCH  16  19
ATOM     19  C9  SZH d   1     190.474 121.326  30.931  0.00  0.00    -0.061 C 
ATOM     20  H12 SZH d   1     191.341 120.650  30.975  0.00  0.00     0.033 H 
ATOM     21  H13 SZH d   1     189.734 120.927  30.221  0.00  0.00     0.033 H 
BRANCH  19  22
ATOM     22  C8  SZH d   1     190.945 122.696  30.430  0.00  0.00    -0.045 C 
ATOM     23  H10 SZH d   1     190.568 122.813  29.403  0.00  0.00     0.039 H 
ATOM     24  H11 SZH d   1     190.484 123.455  31.079  0.00  0.00     0.039 H 
BRANCH  22  25
ATOM     25  C2  SZH d   1     192.436 122.983  30.395  0.00  0.00    -0.086 C 
ATOM     26  C1  SZH d   1     193.067 123.512  31.473  0.00  0.00    -0.078 C 
ATOM     27  H1  SZH d   1     192.419 123.676  32.333  0.00  0.00     0.080 H 
BRANCH  26  28
ATOM     28  C7  SZH d   1     194.494 123.911  31.695  0.00  0.00     0.047 C 
ATOM     29  H8  SZH d   1     195.029 123.961  30.735  0.00  0.00     0.081 H 
ATOM     30  H9  SZH d   1     194.993 123.187  32.356  0.00  0.00     0.081 H 
BRANCH  28  31
ATOM     31  O23 SZH d   1     194.461 125.204  32.312  0.00  0.00    -0.286 OA
BRANCH  31  32
ATOM     32  P29 SZH d   1     195.666 125.821  33.182  0.00  0.00     0.418 P 
ATOM     33  O18 SZH d   1     197.035 125.426  32.664  0.00  0.00    -0.624 OA
ATOM     34  O21 SZH d   1     195.487 127.306  33.414  0.00  0.00    -0.624 OA
BRANCH  32  35
ATOM     35  O24 SZH d   1     195.322 124.966  34.500  0.00  0.00    -0.173 OA
BRANCH  35  36
ATOM     36  P28 SZH d   1     196.184 123.795  35.228  0.00  0.00     0.431 P 
ATOM     37  O16 SZH d   1     195.332 123.603  36.453  0.00  0.00    -0.616 OA
ATOM     38  O17 SZH d   1     197.517 124.431  35.512  0.00  0.00    -0.616 OA
ATOM     39  O20 SZH d   1     196.251 122.638  34.202  0.00  0.00    -0.616 OA
ENDBRANCH  35  36
ENDBRANCH  32  35
ENDBRANCH  31  32
ENDBRANCH  28  31
ENDBRANCH  26  28
BRANCH  25  40
ATOM     40  C5  SZH d   1     193.054 122.670  29.083  0.00  0.00    -0.055 C 
ATOM     41  H2  SZH d   1     192.292 122.252  28.409  0.00  0.00     0.033 H 
ATOM     42  H3  SZH d   1     193.862 121.936  29.224  0.00  0.00     0.033 H 
ATOM     43  H4  SZH d   1     193.467 123.590  28.643  0.00  0.00     0.033 H 
ENDBRANCH  25  40
ENDBRANCH  22  25
ENDBRANCH  19  22
ENDBRANCH  16  19
ENDBRANCH  10  16
ENDBRANCH   7  10
ENDBRANCH   6   7
ENDBRANCH   4   6
ENDBRANCH   1   4
BRANCH   1  44
ATOM     44  C13 SZH d   1     182.539 120.325  31.553  0.00  0.00     0.454 C 
ATOM     45  F25 SZH d   1     182.659 118.997  31.706  0.00  0.00    -0.163 F 
ATOM     46  F26 SZH d   1     181.505 120.589  32.375  0.00  0.00    -0.163 F 
ATOM     47  F27 SZH d   1     182.108 120.536  30.282  0.00  0.00    -0.163 F 
ENDBRANCH   1  44
TORSDOF 16
