REMARK  10 active torsions:
REMARK  status: ('A' for Active; 'I' for Inactive)
REMARK       I    between atoms: N1_3  and  C25_33 
REMARK    1  A    between atoms: N2_6  and  C23_31 
REMARK    2  A    between atoms: C25_33  and  O2_7 
REMARK    3  A    between atoms: O2_7  and  C29_37 
REMARK    4  A    between atoms: C11_20  and  O3_10 
REMARK    5  A    between atoms: N5_14  and  C6_15 
REMARK    6  A    between atoms: C9_18  and  C11_20 
REMARK    7  A    between atoms: C11_20  and  C27_35 
REMARK    8  A    between atoms: C29_37  and  C22_30 
REMARK    9  A    between atoms: C29_37  and  C24_32 
REMARK   10  A    between atoms: C29_37  and  C26_34 
ROOT
ATOM      1 CL   Z96 d   1     190.752 128.821  28.460  0.00  0.00    -0.084 Cl
ATOM      2  C1  Z96 d   1     187.042 129.724  29.927  0.00  0.00    -0.072 A 
ATOM      3  C2  Z96 d   1     185.396 127.744  32.352  0.00  0.00     0.080 A 
ATOM      4  C3  Z96 d   1     186.174 126.677  33.033  0.00  0.00    -0.008 A 
ATOM      5  C4  Z96 d   1     185.573 125.392  33.174  0.00  0.00    -0.070 A 
ATOM      6  N4  Z96 d   1     184.129 127.463  31.861  0.00  0.00    -0.262 NA
ATOM      7  C5  Z96 d   1     184.251 125.145  32.671  0.00  0.00    -0.065 A 
ATOM      8  C6  Z96 d   1     185.949 129.167  32.131  0.00  0.00     0.172 C 
ATOM      9  C7  Z96 d   1     187.125 129.069  31.219  0.00  0.00    -0.011 A 
ATOM     10  C8  Z96 d   1     188.373 128.378  31.642  0.00  0.00    -0.017 A 
ATOM     11  C9  Z96 d   1     188.556 127.720  33.008  0.00  0.00    -0.012 C 
ATOM     12  C10 Z96 d   1     183.563 126.229  32.012  0.00  0.00     0.003 A 
ATOM     13  C12 Z96 d   1     187.553 126.963  33.587  0.00  0.00    -0.061 C 
ATOM     14  C13 Z96 d   1     188.158 129.634  29.035  0.00  0.00    -0.061 A 
ATOM     15  C14 Z96 d   1     189.361 128.935  29.462  0.00  0.00     0.034 A 
ATOM     16  C15 Z96 d   1     189.471 128.318  30.745  0.00  0.00    -0.051 A 
ATOM     17  H1  Z96 d   1     186.151 130.272  29.642  0.00  0.00     0.084 H 
ATOM     18  H3  Z96 d   1     186.119 124.594  33.665  0.00  0.00     0.085 H 
ATOM     19  H4  Z96 d   1     183.784 124.173  32.783  0.00  0.00     0.085 H 
ATOM     20  H6  Z96 d   1     185.160 129.730  31.611  0.00  0.00     0.102 H 
ATOM     21  H7  Z96 d   1     182.565 126.058  31.624  0.00  0.00     0.114 H 
ATOM     22  H9  Z96 d   1     187.783 126.521  34.555  0.00  0.00     0.085 H 
ATOM     23  H10 Z96 d   1     188.107 130.083  28.050  0.00  0.00     0.086 H 
ATOM     24  H11 Z96 d   1     190.384 127.809  31.031  0.00  0.00     0.087 H 
ENDROOT
BRANCH   8  25
ATOM     25  N5  Z96 d   1     186.306 129.969  33.331  0.00  0.00    -0.054 N 
ATOM     26  C17 Z96 d   1     186.978 131.264  32.989  0.00  0.00     0.099 C 
ATOM     27  C18 Z96 d   1     187.338 132.061  34.281  0.00  0.00     0.022 C 
ATOM     28  H12 Z96 d   1     186.300 131.869  32.369  0.00  0.00     0.078 H 
ATOM     29  H13 Z96 d   1     187.900 131.054  32.426  0.00  0.00     0.078 H 
ATOM     30  N1  Z96 d   1     186.150 132.202  35.153  0.00  0.00    -0.325 N 
ATOM     31  H14 Z96 d   1     188.127 131.525  34.829  0.00  0.00     0.067 H 
ATOM     32  H15 Z96 d   1     187.701 133.061  34.000  0.00  0.00     0.067 H 
ATOM     33  C19 Z96 d   1     185.452 130.929  35.426  0.00  0.00     0.022 C 
ATOM     34  C25 Z96 d   1     185.725 133.392  35.679  0.00  0.00     0.363 C 
ATOM     35  C20 Z96 d   1     185.075 130.204  34.138  0.00  0.00     0.099 C 
ATOM     36  H16 Z96 d   1     184.536 131.140  35.997  0.00  0.00     0.067 H 
ATOM     37  H17 Z96 d   1     186.113 130.280  36.020  0.00  0.00     0.067 H 
ATOM     38  H18 Z96 d   1     184.605 129.240  34.382  0.00  0.00     0.078 H 
ATOM     39  H19 Z96 d   1     184.369 130.820  33.562  0.00  0.00     0.078 H 
ATOM     40  O1  Z96 d   1     184.738 133.397  36.359  0.00  0.00    -0.238 OA
ATOM     41  H5  Z96 d   1     186.951 129.429  33.886  0.00  0.00     0.281 HD
BRANCH  34  42
ATOM     42  O2  Z96 d   1     186.465 134.493  35.375  0.00  0.00    -0.294 OA
BRANCH  42  43
ATOM     43  C29 Z96 d   1     186.174 135.879  35.764  0.00  0.00     0.061 C 
BRANCH  43  44
ATOM     44  C22 Z96 d   1     186.168 136.112  37.281  0.00  0.00    -0.048 C 
ATOM     45  H21 Z96 d   1     185.944 137.169  37.489  0.00  0.00     0.031 H 
ATOM     46  H22 Z96 d   1     187.155 135.859  37.695  0.00  0.00     0.031 H 
ATOM     47  H23 Z96 d   1     185.401 135.476  37.747  0.00  0.00     0.031 H 
ENDBRANCH  43  44
BRANCH  43  48
ATOM     48  C24 Z96 d   1     187.384 136.674  35.191  0.00  0.00    -0.048 C 
ATOM     49  H27 Z96 d   1     187.267 137.742  35.429  0.00  0.00     0.031 H 
ATOM     50  H28 Z96 d   1     187.425 136.544  34.099  0.00  0.00     0.031 H 
ATOM     51  H29 Z96 d   1     188.315 136.298  35.640  0.00  0.00     0.031 H 
ENDBRANCH  43  48
BRANCH  43  52
ATOM     52  C26 Z96 d   1     184.802 136.323  35.163  0.00  0.00    -0.048 C 
ATOM     53  H30 Z96 d   1     184.591 137.361  35.459  0.00  0.00     0.031 H 
ATOM     54  H31 Z96 d   1     184.006 135.665  35.541  0.00  0.00     0.031 H 
ATOM     55  H32 Z96 d   1     184.843 136.255  34.066  0.00  0.00     0.031 H 
ENDBRANCH  43  52
ENDBRANCH  42  43
ENDBRANCH  34  42
ENDBRANCH   8  25
BRANCH  11  56
ATOM     56  C11 Z96 d   1     189.936 128.004  33.684  0.00  0.00     0.103 C 
ATOM     57  H8  Z96 d   1     190.725 127.728  32.969  0.00  0.00     0.100 H 
BRANCH  56  58
ATOM     58  O3  Z96 d   1     190.019 129.414  33.931  0.00  0.00    -0.385 OA
ATOM     59  H2  Z96 d   1     190.851 129.614  34.343  0.00  0.00     0.211 HD
ENDBRANCH  56  58
BRANCH  56  60
ATOM     60  C27 Z96 d   1     190.187 127.207  34.963  0.00  0.00     0.063 A 
ATOM     61  N2  Z96 d   1     190.464 125.892  34.921  0.00  0.00    -0.346 N 
ATOM     62  C28 Z96 d   1     190.611 125.525  36.232  0.00  0.00     0.065 A 
ATOM     63  N3  Z96 d   1     190.416 126.660  37.016  0.00  0.00    -0.254 NA
ATOM     64  H33 Z96 d   1     190.839 124.525  36.597  0.00  0.00     0.143 H 
ATOM     65  C21 Z96 d   1     190.144 127.683  36.266  0.00  0.00     0.028 A 
ATOM     66  H20 Z96 d   1     189.928 128.700  36.590  0.00  0.00     0.118 H 
BRANCH  61  67
ATOM     67  C23 Z96 d   1     190.562 125.014  33.733  0.00  0.00    -0.013 C 
ATOM     68  H24 Z96 d   1     190.804 123.990  34.053  0.00  0.00     0.057 H 
ATOM     69  H25 Z96 d   1     191.353 125.386  33.066  0.00  0.00     0.057 H 
ATOM     70  H26 Z96 d   1     189.601 125.013  33.197  0.00  0.00     0.057 H 
ENDBRANCH  61  67
ENDBRANCH  56  60
ENDBRANCH  11  56
TORSDOF 10
