REMARK WARNING: 32 MAX_TORS EXCEEDED!!!
REMARK  67 active torsions:
REMARK  status: ('A' for Active; 'I' for Inactive)
REMARK    1  A    between atoms: N_1  and  CA_2 
REMARK    2  A    between atoms: CA_2  and  C_3 
REMARK    3  A    between atoms: CA_2  and  CB_5 
REMARK       I    between atoms: C_3  and  N_8 
REMARK    4  A    between atoms: CB_5  and  OG1_6 
REMARK    5  A    between atoms: CB_5  and  CG2_7 
REMARK    6  A    between atoms: N_8  and  CA_9 
REMARK    7  A    between atoms: CA_9  and  C_10 
REMARK    8  A    between atoms: CA_9  and  CB_12 
REMARK       I    between atoms: C_10  and  N_16 
REMARK    9  A    between atoms: CB_12  and  CG_13 
REMARK   10  A    between atoms: CG_13  and  CD1_14 
REMARK   11  A    between atoms: CG_13  and  CD2_15 
REMARK   12  A    between atoms: N_16  and  CA_17 
REMARK   13  A    between atoms: CA_17  and  C_18 
REMARK   14  A    between atoms: CA_17  and  CB_20 
REMARK       I    between atoms: C_18  and  N_24 
REMARK   15  A    between atoms: CB_20  and  CG_21 
REMARK       I    between atoms: CG_21  and  ND2_23 
REMARK   16  A    between atoms: CA_25  and  C_26 
REMARK       I    between atoms: C_26  and  N_31 
REMARK   17  A    between atoms: N_31  and  CA_32 
REMARK   18  A    between atoms: CA_32  and  C_33 
REMARK   19  A    between atoms: CA_32  and  CB_35 
REMARK       I    between atoms: C_33  and  N_39 
REMARK   20  A    between atoms: CB_35  and  CG_36 
REMARK       I    between atoms: CG_36  and  ND2_38 
REMARK   21  A    between atoms: N_39  and  CA_40 
REMARK   22  A    between atoms: CA_40  and  C_41 
REMARK   23  A    between atoms: CA_40  and  CB_43 
REMARK       I    between atoms: C_41  and  N_44 
REMARK   24  A    between atoms: N_44  and  CA_45 
REMARK   25  A    between atoms: CA_45  and  C_46 
REMARK   26  A    between atoms: CA_45  and  CB_48 
REMARK       I    between atoms: C_46  and  N_53 
REMARK   27  A    between atoms: CB_48  and  CG_49 
REMARK   28  A    between atoms: CG_49  and  CD_50 
REMARK   29  A    between atoms: CD_50  and  CE_51 
REMARK   30  A    between atoms: CE_51  and  NZ_52 
REMARK   31  A    between atoms: N_53  and  CA_54 
REMARK   32  A    between atoms: CA_54  and  C_55 
REMARK   33  A    between atoms: CA_54  and  CB_57 
REMARK       I    between atoms: C_55  and  N_62 
REMARK   34  A    between atoms: CB_57  and  CG_58 
REMARK   35  A    between atoms: CG_58  and  CD_59 
REMARK   36  A    between atoms: N_62  and  CA_63 
REMARK   37  A    between atoms: CA_63  and  C_64 
REMARK   38  A    between atoms: CA_63  and  CB_66 
REMARK       I    between atoms: C_64  and  N_73 
REMARK   39  A    between atoms: CB_66  and  CG_67 
REMARK   40  A    between atoms: N_73  and  CA_74 
REMARK   41  A    between atoms: CA_74  and  C_75 
REMARK   42  A    between atoms: CA_74  and  CB_77 
REMARK       I    between atoms: C_75  and  N_81 
REMARK   43  A    between atoms: CB_77  and  CG_78 
REMARK       I    between atoms: CG_78  and  ND2_80 
REMARK   44  A    between atoms: CA_82  and  C_83 
REMARK       I    between atoms: C_83  and  N_88 
REMARK   45  A    between atoms: N_88  and  CA_89 
REMARK   46  A    between atoms: CA_89  and  C_90 
REMARK   47  A    between atoms: CA_89  and  CB_92 
REMARK       I    between atoms: C_90  and  N_99 
REMARK   48  A    between atoms: CB_92  and  CG_93 
REMARK   49  A    between atoms: CG_93  and  CD_94 
REMARK   50  A    between atoms: CD_94  and  NE_95 
REMARK       I    between atoms: NE_95  and  CZ_96 
REMARK       I    between atoms: CZ_96  and  NH1_97 
REMARK   51  A    between atoms: N_99  and  CA_100 
REMARK   52  A    between atoms: CA_100  and  C_101 
REMARK   53  A    between atoms: CA_100  and  CB_103 
REMARK       I    between atoms: C_101  and  N_105 
REMARK   54  A    between atoms: CB_103  and  OG_104 
REMARK   55  A    between atoms: N_105  and  CA_106 
REMARK   56  A    between atoms: CA_106  and  C_107 
REMARK   57  A    between atoms: CA_106  and  CB_109 
REMARK       I    between atoms: C_107  and  N_116 
REMARK   58  A    between atoms: CB_109  and  CG_110 
REMARK   59  A    between atoms: N_116  and  CA_117 
REMARK   60  A    between atoms: CA_117  and  C_118 
REMARK   61  A    between atoms: CA_117  and  CB_120 
REMARK       I    between atoms: C_118  and  N_122 
REMARK   62  A    between atoms: CB_120  and  OG_121 
REMARK   63  A    between atoms: N_122  and  CA_123 
REMARK   64  A    between atoms: CA_123  and  C_124 
REMARK   65  A    between atoms: CA_123  and  CB_126 
REMARK   66  A    between atoms: CB_126  and  CG_127 
REMARK   67  A    between atoms: CG_127  and  CD_128 
REMARK       I    between atoms: CD_128  and  NE2_130 
ROOT
ATOM      1  CA  PHE d   1     -13.890  14.961  -6.328  0.00  0.00     0.093 C 
ATOM      2  H   PHE d   1     -13.167  15.471  -6.965  0.00  0.00     0.088 H 
ENDROOT
BRANCH   1   3
ATOM      3  N   PHE d   1     -13.796  15.527  -4.994  0.00  0.00    -0.346 N 
ATOM      4  C   GLU d   1     -13.450  16.792  -4.777  0.00  0.00     0.241 C 
ATOM      5  O   GLU d   1     -13.123  17.570  -5.672  0.00  0.00    -0.271 OA
ATOM      6  H   PHE d   1     -14.003  14.931  -4.193  0.00  0.00     0.163 HD
BRANCH   4   7
ATOM      7  CA  GLU d   1     -13.479  17.238  -3.312  0.00  0.00     0.090 C 
ATOM      8  H   GLU d   1     -13.294  16.370  -2.679  0.00  0.00     0.087 H 
BRANCH   7   9
ATOM      9  N   GLU d   1     -12.421  18.209  -3.038  0.00  0.00    -0.346 N 
ATOM     10  C   LYS d   1     -11.147  17.845  -3.125  0.00  0.00     0.241 C 
ATOM     11  O   LYS d   1     -10.801  16.677  -3.324  0.00  0.00    -0.271 OA
ATOM     12  H   GLU d   1     -12.662  19.166  -2.780  0.00  0.00     0.163 HD
BRANCH  10  13
ATOM     13  CA  LYS d   1     -10.095  18.942  -3.016  0.00  0.00     0.089 C 
ATOM     14  H   LYS d   1     -10.519  19.883  -2.666  0.00  0.00     0.087 H 
BRANCH  13  15
ATOM     15  N   LYS d   1      -9.065  18.545  -2.060  0.00  0.00    -0.346 N 
ATOM     16  C   ALA d   1      -9.342  18.209  -0.797  0.00  0.00     0.240 C 
ATOM     17  O   ALA d   1     -10.474  18.312  -0.296  0.00  0.00    -0.271 OA
ATOM     18  H   LYS d   1      -8.093  18.523  -2.369  0.00  0.00     0.163 HD
BRANCH  16  19
ATOM     19  CA  ALA d   1      -8.158  17.690   0.024  0.00  0.00     0.086 C 
ATOM     20  H   ALA d   1      -7.279  18.228  -0.332  0.00  0.00     0.086 H 
BRANCH  19  21
ATOM     21  N   ALA d   1      -8.265  17.971   1.451  0.00  0.00    -0.346 N 
ATOM     22  C   ASN d   1      -8.361  19.216   1.911  0.00  0.00     0.241 C 
ATOM     23  O   ASN d   1      -8.419  20.169   1.177  0.00  0.00    -0.271 OA
ATOM     24  H   ALA d   1      -8.266  17.195   2.112  0.00  0.00     0.163 HD
BRANCH  22  25
ATOM     25  CA  ASN d   1      -8.460  19.400   3.420  0.00  0.00     0.097 C 
ATOM     26  H   ASN d   1      -9.483  19.720   3.615  0.00  0.00     0.088 H 
BRANCH  25  27
ATOM     27  N   ASN d   1      -8.270  18.171   4.189  0.00  0.00    -0.346 N 
ATOM     28  C   PRO d   1      -9.299  17.379   4.519  0.00  0.00     0.241 C 
ATOM     29  O   PRO d   1     -10.470  17.681   4.316  0.00  0.00    -0.271 OA
ATOM     30  H   ASN d   1      -7.329  17.910   4.482  0.00  0.00     0.163 HD
BRANCH  28  31
ATOM     31  CA  PRO d   1      -8.993  16.046   5.194  0.00  0.00     0.091 C 
ATOM     32  N   PRO d   1      -7.568  15.760   5.232  0.00  0.00    -0.337 N 
ATOM     33  C   ASN d   1      -6.878  15.488   4.113  0.00  0.00     0.243 C 
ATOM     34  CD  PRO d   1      -7.046  15.818   6.609  0.00  0.00    -0.001 C 
ATOM     35  O   ASN d   1      -7.396  15.513   2.972  0.00  0.00    -0.271 OA
ATOM     36  CG  PRO d   1      -8.114  16.538   7.355  0.00  0.00    -0.048 C 
ATOM     37  H   PRO d   1      -6.082  16.322   6.669  0.00  0.00     0.064 H 
ATOM     38  H   PRO d   1      -6.842  14.829   7.021  0.00  0.00     0.064 H 
ATOM     39  CB  PRO d   1      -9.384  16.094   6.681  0.00  0.00    -0.036 C 
ATOM     40  H   PRO d   1      -8.106  16.305   8.420  0.00  0.00     0.035 H 
ATOM     41  H   PRO d   1      -7.984  17.620   7.325  0.00  0.00     0.035 H 
ATOM     42  H   PRO d   1      -9.745  15.135   7.053  0.00  0.00     0.036 H 
ATOM     43  H   PRO d   1     -10.220  16.766   6.875  0.00  0.00     0.036 H 
ATOM     44  H   PRO d   1      -9.544  15.303   4.617  0.00  0.00     0.087 H 
BRANCH  33  45
ATOM     45  CA  ASN d   1      -5.394  15.157   4.277  0.00  0.00     0.097 C 
ATOM     46  H   ASN d   1      -5.133  15.266   5.330  0.00  0.00     0.088 H 
BRANCH  45  47
ATOM     47  N   ASN d   1      -5.141  13.778   3.854  0.00  0.00    -0.346 N 
ATOM     48  C   LEU d   1      -4.900  12.796   4.719  0.00  0.00     0.241 C 
ATOM     49  O   LEU d   1      -4.859  12.956   5.938  0.00  0.00    -0.271 OA
ATOM     50  H   ASN d   1      -5.150  13.562   2.857  0.00  0.00     0.163 HD
BRANCH  48  51
ATOM     51  CA  LEU d   1      -4.646  11.415   4.110  0.00  0.00     0.089 C 
ATOM     52  H   LEU d   1      -4.549  11.556   3.034  0.00  0.00     0.087 H 
BRANCH  51  53
ATOM     53  N   LEU d   1      -3.409  10.812   4.601  0.00  0.00    -0.346 N 
ATOM     54  C   THR d   1      -2.206  11.098   4.112  0.00  0.00     0.251 C 
ATOM     55  O   THR d   1      -1.989  12.049   3.360  0.00  0.00    -0.271 OA
ATOM     56  H   LEU d   1      -3.472  10.134   5.361  0.00  0.00     0.163 HD
BRANCH  54  57
ATOM     57  CA  THR d   1      -1.065  10.184   4.566  0.00  0.00     0.199 C 
ATOM     58  H   THR d   1      -1.347   9.156   4.338  0.00  0.00     0.103 H 
BRANCH  57  59
ATOM     59  N   THR d   1       0.193  10.464   3.799  0.00  0.00    -0.064 N 
ATOM     60  H   THR d   1      -0.001  10.411   2.799  0.00  0.00     0.275 HD
ATOM     61  H   THR d   1       0.531  11.398   4.032  0.00  0.00     0.275 HD
ATOM     62  H   THR d   1       0.901   9.773   4.046  0.00  0.00     0.275 HD
ENDBRANCH  57  59
BRANCH  57  63
ATOM     63  CB  THR d   1      -0.859  10.244   6.115  0.00  0.00     0.068 C 
ATOM     64  H   THR d   1      -1.567   9.546   6.561  0.00  0.00     0.086 H 
BRANCH  63  65
ATOM     65  OG1 THR d   1      -1.126  11.564   6.613  0.00  0.00    -0.393 OA
ATOM     66  H   THR d   1      -0.994  11.579   7.564  0.00  0.00     0.210 HD
ENDBRANCH  63  65
BRANCH  63  67
ATOM     67  CG2 THR d   1       0.557   9.807   6.518  0.00  0.00    -0.050 C 
ATOM     68  H   THR d   1       1.284  10.503   6.099  0.00  0.00     0.031 H 
ATOM     69  H   THR d   1       0.639   9.804   7.605  0.00  0.00     0.031 H 
ATOM     70  H   THR d   1       0.749   8.805   6.135  0.00  0.00     0.031 H 
ENDBRANCH  63  67
ENDBRANCH  57  63
ENDBRANCH  54  57
ENDBRANCH  51  53
BRANCH  51  71
ATOM     71  CB  LEU d   1      -5.816  10.479   4.416  0.00  0.00    -0.035 C 
ATOM     72  H   LEU d   1      -6.686  10.897   3.909  0.00  0.00     0.037 H 
ATOM     73  H   LEU d   1      -5.886  10.417   5.502  0.00  0.00     0.037 H 
BRANCH  71  74
ATOM     74  CG  LEU d   1      -5.667   9.036   3.907  0.00  0.00    -0.059 C 
ATOM     75  H   LEU d   1      -4.662   8.692   4.154  0.00  0.00     0.038 H 
BRANCH  74  76
ATOM     76  CD1 LEU d   1      -6.649   8.094   4.598  0.00  0.00    -0.073 C 
ATOM     77  H   LEU d   1      -6.464   8.102   5.672  0.00  0.00     0.028 H 
ATOM     78  H   LEU d   1      -7.668   8.426   4.401  0.00  0.00     0.028 H 
ATOM     79  H   LEU d   1      -6.514   7.083   4.212  0.00  0.00     0.028 H 
ENDBRANCH  74  76
BRANCH  74  80
ATOM     80  CD2 LEU d   1      -5.837   8.991   2.399  0.00  0.00    -0.073 C 
ATOM     81  H   LEU d   1      -6.827   9.362   2.135  0.00  0.00     0.028 H 
ATOM     82  H   LEU d   1      -5.077   9.615   1.930  0.00  0.00     0.028 H 
ATOM     83  H   LEU d   1      -5.729   7.963   2.053  0.00  0.00     0.028 H 
ENDBRANCH  74  80
ENDBRANCH  71  74
ENDBRANCH  51  71
ENDBRANCH  48  51
ENDBRANCH  45  47
BRANCH  45  84
ATOM     84  CB  ASN d   1      -4.510  16.136   3.452  0.00  0.00     0.036 C 
ATOM     85  H   ASN d   1      -4.855  16.100   2.419  0.00  0.00     0.051 H 
ATOM     86  H   ASN d   1      -3.473  15.823   3.572  0.00  0.00     0.051 H 
BRANCH  84  87
ATOM     87  CG  ASN d   1      -4.613  17.594   3.925  0.00  0.00     0.217 C 
ATOM     88  OD1 ASN d   1      -5.611  17.999   4.471  0.00  0.00    -0.274 OA
ATOM     89  ND2 ASN d   1      -3.577  18.392   3.664  0.00  0.00    -0.370 N 
ATOM     90  H   ASN d   1      -3.613  19.377   3.927  0.00  0.00     0.159 HD
ATOM     91  H   ASN d   1      -2.749  18.018   3.201  0.00  0.00     0.159 HD
ENDBRANCH  84  87
ENDBRANCH  45  84
ENDBRANCH  33  45
ENDBRANCH  28  31
ENDBRANCH  25  27
BRANCH  25  92
ATOM     92  CB  ASN d   1      -7.458  20.475   3.888  0.00  0.00     0.036 C 
ATOM     93  H   ASN d   1      -7.526  21.323   3.207  0.00  0.00     0.051 H 
ATOM     94  H   ASN d   1      -6.462  20.033   3.893  0.00  0.00     0.051 H 
BRANCH  92  95
ATOM     95  CG  ASN d   1      -7.757  20.956   5.257  0.00  0.00     0.217 C 
ATOM     96  OD1 ASN d   1      -8.928  21.127   5.637  0.00  0.00    -0.274 OA
ATOM     97  ND2 ASN d   1      -6.716  21.231   6.010  0.00  0.00    -0.370 N 
ATOM     98  H   ASN d   1      -6.851  21.602   6.951  0.00  0.00     0.159 HD
ATOM     99  H   ASN d   1      -5.773  21.074   5.654  0.00  0.00     0.159 HD
ENDBRANCH  92  95
ENDBRANCH  25  92
ENDBRANCH  22  25
ENDBRANCH  19  21
BRANCH  19 100
ATOM    100  CB  ALA d   1      -7.994  16.194  -0.194  0.00  0.00    -0.049 C 
ATOM    101  H   ALA d   1      -7.091  15.851   0.311  0.00  0.00     0.030 H 
ATOM    102  H   ALA d   1      -8.860  15.672   0.213  0.00  0.00     0.030 H 
ATOM    103  H   ALA d   1      -7.915  15.990  -1.262  0.00  0.00     0.030 H 
ENDBRANCH  19 100
ENDBRANCH  16  19
ENDBRANCH  13  15
BRANCH  13 104
ATOM    104  CB  LYS d   1      -9.498  19.091  -4.424  0.00  0.00    -0.038 C 
ATOM    105  H   LYS d   1     -10.346  19.262  -5.088  0.00  0.00     0.036 H 
ATOM    106  H   LYS d   1      -8.907  18.191  -4.591  0.00  0.00     0.036 H 
BRANCH 104 107
ATOM    107  CG  LYS d   1      -8.566  20.236  -4.655  0.00  0.00    -0.061 C 
ATOM    108  H   LYS d   1      -7.852  20.289  -3.833  0.00  0.00     0.033 H 
ATOM    109  H   LYS d   1      -9.141  21.160  -4.710  0.00  0.00     0.033 H 
BRANCH 107 110
ATOM    110  CD  LYS d   1      -7.808  20.037  -5.966  0.00  0.00    -0.043 C 
ATOM    111  H   LYS d   1      -8.538  19.855  -6.755  0.00  0.00     0.035 H 
ATOM    112  H   LYS d   1      -7.122  19.200  -5.836  0.00  0.00     0.035 H 
BRANCH 110 113
ATOM    113  CE  LYS d   1      -6.987  21.267  -6.354  0.00  0.00     0.080 C 
ATOM    114  H   LYS d   1      -7.661  22.123  -6.377  0.00  0.00     0.075 H 
ATOM    115  H   LYS d   1      -6.523  21.066  -7.319  0.00  0.00     0.075 H 
BRANCH 113 116
ATOM    116  NZ  LYS d   1      -5.897  21.571  -5.378  0.00  0.00    -0.079 N 
ATOM    117  H   LYS d   1      -5.386  22.398  -5.688  0.00  0.00     0.274 HD
ATOM    118  H   LYS d   1      -6.304  21.746  -4.459  0.00  0.00     0.274 HD
ATOM    119  H   LYS d   1      -5.260  20.776  -5.323  0.00  0.00     0.274 HD
ENDBRANCH 113 116
ENDBRANCH 110 113
ENDBRANCH 107 110
ENDBRANCH 104 107
ENDBRANCH  13 104
ENDBRANCH  10  13
ENDBRANCH   7   9
BRANCH   7 120
ATOM    120  CB  GLU d   1     -14.856  17.802  -2.963  0.00  0.00    -0.029 C 
ATOM    121  H   GLU d   1     -15.594  17.038  -3.208  0.00  0.00     0.037 H 
ATOM    122  H   GLU d   1     -14.983  18.727  -3.526  0.00  0.00     0.037 H 
BRANCH 120 123
ATOM    123  CG  GLU d   1     -15.021  18.141  -1.480  0.00  0.00     0.018 C 
ATOM    124  H   GLU d   1     -14.525  19.094  -1.298  0.00  0.00     0.049 H 
ATOM    125  H   GLU d   1     -14.591  17.324  -0.900  0.00  0.00     0.049 H 
BRANCH 123 126
ATOM    126  CD  GLU d   1     -16.474  18.287  -1.070  0.00  0.00     0.172 C 
ATOM    127  OE1 GLU d   1     -16.732  18.741   0.067  0.00  0.00    -0.648 OA
ATOM    128  OE2 GLU d   1     -17.354  17.942  -1.892  0.00  0.00    -0.648 OA
ENDBRANCH 123 126
ENDBRANCH 120 123
ENDBRANCH   7 120
ENDBRANCH   4   7
ENDBRANCH   1   3
BRANCH   1 129
ATOM    129  C   PHE d   1     -15.282  15.161  -6.911  0.00  0.00     0.241 C 
ATOM    130  O   PHE d   1     -16.281  14.923  -6.234  0.00  0.00    -0.271 OA
ATOM    131  N   ASN d   1     -15.331  15.556  -8.187  0.00  0.00    -0.346 N 
ATOM    132  H   ASN d   1     -14.462  15.791  -8.667  0.00  0.00     0.163 HD
BRANCH 131 133
ATOM    133  CA  ASN d   1     -16.592  15.660  -8.913  0.00  0.00     0.097 C 
ATOM    134  H   ASN d   1     -17.407  15.434  -8.226  0.00  0.00     0.088 H 
BRANCH 133 135
ATOM    135  C   ASN d   1     -16.703  14.619 -10.034  0.00  0.00     0.243 C 
ATOM    136  O   ASN d   1     -15.948  14.668 -11.009  0.00  0.00    -0.271 OA
ATOM    137  N   PRO d   1     -17.627  13.649  -9.880  0.00  0.00    -0.337 N 
ATOM    138  CA  PRO d   1     -17.799  12.602 -10.885  0.00  0.00     0.091 C 
ATOM    139  CD  PRO d   1     -18.586  13.508  -8.774  0.00  0.00    -0.001 C 
ATOM    140  CB  PRO d   1     -18.694  11.593 -10.170  0.00  0.00    -0.036 C 
ATOM    141  H   PRO d   1     -16.857  12.182 -11.238  0.00  0.00     0.087 H 
ATOM    142  CG  PRO d   1     -19.535  12.443  -9.283  0.00  0.00    -0.048 C 
ATOM    143  H   PRO d   1     -18.124  10.847  -9.616  0.00  0.00     0.036 H 
ATOM    144  H   PRO d   1     -19.288  10.996 -10.863  0.00  0.00     0.036 H 
ATOM    145  H   PRO d   1     -19.983  11.870  -8.471  0.00  0.00     0.035 H 
ATOM    146  H   PRO d   1     -20.386  12.871  -9.812  0.00  0.00     0.035 H 
ATOM    147  H   PRO d   1     -19.091  14.443  -8.529  0.00  0.00     0.064 H 
ATOM    148  H   PRO d   1     -18.109  13.235  -7.832  0.00  0.00     0.064 H 
BRANCH 138 149
ATOM    149  C   PRO d   1     -18.518  13.157 -12.110  0.00  0.00     0.241 C 
ATOM    150  O   PRO d   1     -19.109  14.253 -12.044  0.00  0.00    -0.271 OA
ATOM    151  N   ARG d   1     -18.463  12.407 -13.208  0.00  0.00    -0.346 N 
ATOM    152  H   ARG d   1     -17.898  11.558 -13.198  0.00  0.00     0.163 HD
BRANCH 151 153
ATOM    153  CA  ARG d   1     -19.186  12.761 -14.426  0.00  0.00     0.089 C 
ATOM    154  H   ARG d   1     -18.939  13.787 -14.700  0.00  0.00     0.087 H 
BRANCH 153 155
ATOM    155  C   ARG d   1     -20.678  12.666 -14.187  0.00  0.00     0.241 C 
ATOM    156  O   ARG d   1     -21.453  13.441 -14.750  0.00  0.00    -0.271 OA
ATOM    157  N   SER d   1     -21.070  11.690 -13.368  0.00  0.00    -0.344 N 
ATOM    158  H   SER d   1     -20.380  11.011 -13.047  0.00  0.00     0.163 HD
BRANCH 157 159
ATOM    159  CA  SER d   1     -22.460  11.556 -12.910  0.00  0.00     0.109 C 
ATOM    160  H   SER d   1     -22.877  12.558 -12.806  0.00  0.00     0.090 H 
BRANCH 159 161
ATOM    161  C   SER d   1     -22.516  10.858 -11.540  0.00  0.00     0.243 C 
ATOM    162  O   SER d   1     -21.597  10.147 -11.172  0.00  0.00    -0.271 OA
ATOM    163  N   PHE d   1     -23.620  11.059 -10.813  0.00  0.00    -0.346 N 
ATOM    164  H   PHE d   1     -24.348  11.664 -11.193  0.00  0.00     0.163 HD
BRANCH 163 165
ATOM    165  CA  PHE d   1     -23.835  10.451  -9.494  0.00  0.00     0.093 C 
ATOM    166  H   PHE d   1     -22.846  10.313  -9.058  0.00  0.00     0.088 H 
BRANCH 165 167
ATOM    167  C   PHE d   1     -24.494   9.083  -9.577  0.00  0.00     0.241 C 
ATOM    168  O   PHE d   1     -24.400   8.283  -8.640  0.00  0.00    -0.271 OA
ATOM    169  N   SER d   1     -25.177   8.833 -10.694  0.00  0.00    -0.344 N 
ATOM    170  H   SER d   1     -25.291   9.585 -11.373  0.00  0.00     0.163 HD
BRANCH 169 171
ATOM    171  CA  SER d   1     -25.771   7.529 -10.991  0.00  0.00     0.109 C 
ATOM    172  H   SER d   1     -26.407   7.244 -10.153  0.00  0.00     0.090 H 
BRANCH 171 173
ATOM    173  C   SER d   1     -24.681   6.477 -11.151  0.00  0.00     0.243 C 
ATOM    174  O   SER d   1     -24.963   5.276 -11.151  0.00  0.00    -0.271 OA
ATOM    175  N   GLN d   1     -23.443   6.954 -11.306  0.00  0.00    -0.345 N 
ATOM    176  H   GLN d   1     -23.331   7.922 -11.607  0.00  0.00     0.163 HD
BRANCH 175 177
ATOM    177  CA  GLN d   1     -22.244   6.161 -11.067  0.00  0.00     0.096 C 
ATOM    178  H   GLN d   1     -22.140   5.400 -11.840  0.00  0.00     0.089 H 
BRANCH 177 179
ATOM    179  C   GLN d   1     -22.381   5.553  -9.682  0.00  0.00     0.196 C 
ATOM    180  O   GLN d   1     -22.720   4.380  -9.511  0.00  0.00    -0.646 OA
ATOM    181  OXT GLN d   1     -22.169   6.252  -8.692  0.00  0.00    -0.646 OA
ENDBRANCH 177 179
BRANCH 177 182
ATOM    182  CB  GLN d   1     -20.992   7.056 -11.084  0.00  0.00    -0.029 C 
ATOM    183  H   GLN d   1     -20.174   6.455 -10.687  0.00  0.00     0.037 H 
ATOM    184  H   GLN d   1     -21.238   7.948 -10.507  0.00  0.00     0.037 H 
BRANCH 182 185
ATOM    185  CG  GLN d   1     -20.555   7.533 -12.455  0.00  0.00     0.011 C 
ATOM    186  H   GLN d   1     -21.277   8.274 -12.796  0.00  0.00     0.047 H 
ATOM    187  H   GLN d   1     -20.501   6.663 -13.109  0.00  0.00     0.047 H 
BRANCH 185 188
ATOM    188  CD  GLN d   1     -19.180   8.193 -12.442  0.00  0.00     0.215 C 
ATOM    189  OE1 GLN d   1     -18.200   7.629 -11.937  0.00  0.00    -0.274 OA
ATOM    190  NE2 GLN d   1     -19.096   9.385 -13.026  0.00  0.00    -0.370 N 
ATOM    191  H   GLN d   1     -18.199   9.869 -13.070  0.00  0.00     0.159 HD
ATOM    192  H   GLN d   1     -19.928   9.815 -13.430  0.00  0.00     0.159 HD
ENDBRANCH 185 188
ENDBRANCH 182 185
ENDBRANCH 177 182
ENDBRANCH 175 177
ENDBRANCH 171 173
BRANCH 171 193
ATOM    193  CB  SER d   1     -26.651   7.597 -12.240  0.00  0.00     0.044 C 
ATOM    194  H   SER d   1     -27.652   7.912 -11.944  0.00  0.00     0.077 H 
ATOM    195  H   SER d   1     -26.670   6.612 -12.707  0.00  0.00     0.077 H 
BRANCH 193 196
ATOM    196  OG  SER d   1     -26.140   8.532 -13.176  0.00  0.00    -0.398 OA
ATOM    197  H   SER d   1     -25.255   8.269 -13.438  0.00  0.00     0.209 HD
ENDBRANCH 193 196
ENDBRANCH 171 193
ENDBRANCH 169 171
ENDBRANCH 165 167
BRANCH 165 198
ATOM    198  CB  PHE d   1     -24.666  11.372  -8.593  0.00  0.00    -0.014 C 
ATOM    199  H   PHE d   1     -24.960  10.796  -7.715  0.00  0.00     0.043 H 
ATOM    200  H   PHE d   1     -25.513  11.729  -9.179  0.00  0.00     0.043 H 
BRANCH 198 201
ATOM    201  CG  PHE d   1     -23.911  12.571  -8.114  0.00  0.00    -0.056 A 
ATOM    202  CD1 PHE d   1     -24.132  13.817  -8.681  0.00  0.00    -0.077 A 
ATOM    203  CE1 PHE d   1     -23.406  14.926  -8.238  0.00  0.00    -0.082 A 
ATOM    204  H   PHE d   1     -24.872  13.932  -9.473  0.00  0.00     0.084 H 
ATOM    205  CZ  PHE d   1     -22.439  14.789  -7.241  0.00  0.00    -0.083 A 
ATOM    206  H   PHE d   1     -23.597  15.906  -8.675  0.00  0.00     0.083 H 
ATOM    207  CE2 PHE d   1     -22.208  13.558  -6.683  0.00  0.00    -0.082 A 
ATOM    208  H   PHE d   1     -21.870  15.657  -6.907  0.00  0.00     0.083 H 
ATOM    209  CD2 PHE d   1     -22.953  12.452  -7.113  0.00  0.00    -0.077 A 
ATOM    210  H   PHE d   1     -21.449  13.441  -5.909  0.00  0.00     0.083 H 
ATOM    211  H   PHE d   1     -22.778  11.479  -6.654  0.00  0.00     0.084 H 
ENDBRANCH 198 201
ENDBRANCH 165 198
ENDBRANCH 163 165
ENDBRANCH 159 161
BRANCH 159 212
ATOM    212  CB  SER d   1     -23.308  10.786 -13.939  0.00  0.00     0.044 C 
ATOM    213  H   SER d   1     -23.110  11.208 -14.924  0.00  0.00     0.077 H 
ATOM    214  H   SER d   1     -24.355  10.880 -13.652  0.00  0.00     0.077 H 
BRANCH 212 215
ATOM    215  OG  SER d   1     -22.982   9.400 -13.978  0.00  0.00    -0.398 OA
ATOM    216  H   SER d   1     -23.533   8.961 -14.630  0.00  0.00     0.209 HD
ENDBRANCH 212 215
ENDBRANCH 159 212
ENDBRANCH 157 159
ENDBRANCH 153 155
BRANCH 153 217
ATOM    217  CB  ARG d   1     -18.770  11.835 -15.574  0.00  0.00    -0.036 C 
ATOM    218  H   ARG d   1     -18.897  10.810 -15.225  0.00  0.00     0.036 H 
ATOM    219  H   ARG d   1     -17.744  12.089 -15.838  0.00  0.00     0.036 H 
BRANCH 217 220
ATOM    220  CG  ARG d   1     -19.618  11.993 -16.840  0.00  0.00    -0.048 C 
ATOM    221  H   ARG d   1     -19.855  13.050 -16.962  0.00  0.00     0.035 H 
ATOM    222  H   ARG d   1     -20.515  11.384 -16.728  0.00  0.00     0.035 H 
BRANCH 220 223
ATOM    223  CD  ARG d   1     -18.883  11.528 -18.074  0.00  0.00     0.009 C 
ATOM    224  H   ARG d   1     -18.760  10.447 -18.014  0.00  0.00     0.064 H 
ATOM    225  H   ARG d   1     -17.922  12.040 -18.115  0.00  0.00     0.064 H 
BRANCH 223 226
ATOM    226  NE  ARG d   1     -19.627  11.842 -19.296  0.00  0.00    -0.227 N 
ATOM    227  CZ  ARG d   1     -19.529  12.992 -19.965  0.00  0.00     0.665 C 
ATOM    228  NH1 ARG d   1     -18.722  13.959 -19.532  0.00  0.00    -0.235 N 
ATOM    229  NH2 ARG d   1     -20.235  13.178 -21.074  0.00  0.00    -0.235 N 
ATOM    230  H   ARG d   1     -18.173  13.823 -18.683  0.00  0.00     0.174 HD
ATOM    231  H   ARG d   1     -18.653  14.835 -20.049  0.00  0.00     0.174 HD
ATOM    232  H   ARG d   1     -20.853  12.441 -21.415  0.00  0.00     0.174 HD
ATOM    233  H   ARG d   1     -20.160  14.057 -21.585  0.00  0.00     0.174 HD
ATOM    234  H   ARG d   1     -20.263  11.133 -19.660  0.00  0.00     0.177 HD
ENDBRANCH 223 226
ENDBRANCH 220 223
ENDBRANCH 217 220
ENDBRANCH 153 217
ENDBRANCH 151 153
ENDBRANCH 138 149
ENDBRANCH 133 135
BRANCH 133 235
ATOM    235  CB  ASN d   1     -16.778  17.092  -9.421  0.00  0.00     0.036 C 
ATOM    236  H   ASN d   1     -17.773  17.170  -9.858  0.00  0.00     0.051 H 
ATOM    237  H   ASN d   1     -15.992  17.299 -10.147  0.00  0.00     0.051 H 
BRANCH 235 238
ATOM    238  CG  ASN d   1     -16.670  18.129  -8.291  0.00  0.00     0.217 C 
ATOM    239  OD1 ASN d   1     -17.262  17.969  -7.212  0.00  0.00    -0.274 OA
ATOM    240  ND2 ASN d   1     -15.912  19.194  -8.537  0.00  0.00    -0.370 N 
ATOM    241  H   ASN d   1     -15.801  19.916  -7.825  0.00  0.00     0.159 HD
ATOM    242  H   ASN d   1     -15.442  19.288  -9.437  0.00  0.00     0.159 HD
ENDBRANCH 235 238
ENDBRANCH 133 235
ENDBRANCH 131 133
ENDBRANCH   1 129
BRANCH   1 243
ATOM    243  CB  PHE d   1     -13.581  13.460  -6.274  0.00  0.00    -0.014 C 
ATOM    244  H   PHE d   1     -14.306  12.995  -5.606  0.00  0.00     0.043 H 
ATOM    245  H   PHE d   1     -12.553  13.344  -5.931  0.00  0.00     0.043 H 
BRANCH 243 246
ATOM    246  CG  PHE d   1     -13.694  12.801  -7.593  0.00  0.00    -0.056 A 
ATOM    247  CD1 PHE d   1     -12.709  12.978  -8.554  0.00  0.00    -0.077 A 
ATOM    248  CE1 PHE d   1     -12.841  12.381  -9.815  0.00  0.00    -0.082 A 
ATOM    249  H   PHE d   1     -11.831  13.583  -8.328  0.00  0.00     0.084 H 
ATOM    250  CZ  PHE d   1     -13.974  11.630 -10.125  0.00  0.00    -0.083 A 
ATOM    251  H   PHE d   1     -12.053  12.505 -10.558  0.00  0.00     0.083 H 
ATOM    252  CE2 PHE d   1     -14.975  11.445  -9.167  0.00  0.00    -0.082 A 
ATOM    253  H   PHE d   1     -14.079  11.187 -11.115  0.00  0.00     0.083 H 
ATOM    254  CD2 PHE d   1     -14.833  12.039  -7.912  0.00  0.00    -0.077 A 
ATOM    255  H   PHE d   1     -15.855  10.845  -9.397  0.00  0.00     0.083 H 
ATOM    256  H   PHE d   1     -15.618  11.910  -7.167  0.00  0.00     0.084 H 
ENDBRANCH 243 246
ENDBRANCH   1 243
TORSDOF 67
