REMARK  5 active torsions:
REMARK  status: ('A' for Active; 'I' for Inactive)
REMARK    1  A    between atoms: N19_19  and  C23_23 
REMARK    2  A    between atoms: C33_34  and  C24_24 
REMARK    3  A    between atoms: C25_25  and  N28_28 
REMARK    4  A    between atoms: C26_26  and  N30_30 
REMARK    5  A    between atoms: C27_27  and  N29_29 
ROOT
ATOM      1  N19 FMY d   1     -28.479  36.095  10.107  0.00  0.00    -0.188 N 
ATOM      2  C31 FMY d   1     -29.671  35.507  10.223  0.00  0.00     0.727 A 
ATOM      3  N31 FMY d   1     -30.651  35.785   9.299  0.00  0.00    -0.075 NA
ATOM      4  N32 FMY d   1     -29.866  34.751  11.324  0.00  0.00    -0.062 NA
ATOM      5  C33 FMY d   1     -31.095  34.271  11.585  0.00  0.00     0.087 A 
ATOM      6  C34 FMY d   1     -32.121  34.535  10.756  0.00  0.00    -0.036 A 
ATOM      7  C35 FMY d   1     -31.869  35.337   9.632  0.00  0.00     0.023 A 
ATOM      8  H25 FMY d   1     -28.427  36.986   9.593  0.00  0.00     0.184 HD
ATOM      9  H26 FMY d   1     -33.112  34.141  10.950  0.00  0.00     0.089 H 
ATOM     10  H27 FMY d   1     -32.706  35.609   8.999  0.00  0.00     0.115 H 
ENDROOT
BRANCH   1  11
ATOM     11  C23 FMY d   1     -27.360  35.602  10.613  0.00  0.00     0.049 A 
ATOM     12  C01 FMY d   1     -27.388  34.842  11.760  0.00  0.00    -0.054 A 
ATOM     13  C03 FMY d   1     -26.111  34.445  12.241  0.00  0.00    -0.053 A 
ATOM     14  H1  FMY d   1     -28.311  34.568  12.257  0.00  0.00     0.087 H 
ATOM     15  C26 FMY d   1     -24.875  34.675  11.576  0.00  0.00     0.060 A 
ATOM     16  H3  FMY d   1     -26.076  33.925  13.191  0.00  0.00     0.087 H 
ATOM     17  C04 FMY d   1     -24.940  35.450  10.398  0.00  0.00    -0.053 A 
ATOM     18  C02 FMY d   1     -26.158  35.927   9.944  0.00  0.00    -0.054 A 
ATOM     19  H4  FMY d   1     -24.033  35.672   9.847  0.00  0.00     0.087 H 
ATOM     20  H2  FMY d   1     -26.190  36.558   9.063  0.00  0.00     0.087 H 
BRANCH  15  21
ATOM     21  N30 FMY d   1     -23.739  34.154  11.999  0.00  0.00    -0.211 N 
ATOM     22  C05 FMY d   1     -23.669  33.428  13.093  0.00  0.00     0.108 A 
ATOM     23  N17 FMY d   1     -22.355  33.095  13.216  0.00  0.00    -0.054 NA
ATOM     24  H5  FMY d   1     -24.486  33.152  13.758  0.00  0.00     0.147 H 
ATOM     25  C27 FMY d   1     -21.674  33.730  12.221  0.00  0.00     0.743 A 
ATOM     26  N18 FMY d   1     -22.506  34.390  11.372  0.00  0.00     0.027 NA
BRANCH  25  27
ATOM     27  N29 FMY d   1     -20.308  33.527  12.026  0.00  0.00    -0.209 N 
ATOM     28  C15 FMY d   1     -19.559  32.733  13.031  0.00  0.00     0.032 C 
ATOM     29  C11 FMY d   1     -18.547  31.758  12.381  0.00  0.00     0.035 C 
ATOM     30  H21 FMY d   1     -19.011  33.423  13.689  0.00  0.00     0.068 H 
ATOM     31  H22 FMY d   1     -20.277  32.151  13.627  0.00  0.00     0.068 H 
ATOM     32  O21 FMY d   1     -18.430  31.942  10.957  0.00  0.00    -0.388 OA
ATOM     33  H13 FMY d   1     -18.877  30.727  12.576  0.00  0.00     0.076 H 
ATOM     34  H14 FMY d   1     -17.560  31.920  12.838  0.00  0.00     0.076 H 
ATOM     35  C12 FMY d   1     -18.337  33.324  10.548  0.00  0.00     0.035 C 
ATOM     36  C16 FMY d   1     -19.586  34.163  10.916  0.00  0.00     0.032 C 
ATOM     37  H15 FMY d   1     -17.460  33.773  11.036  0.00  0.00     0.076 H 
ATOM     38  H16 FMY d   1     -18.206  33.356   9.456  0.00  0.00     0.076 H 
ATOM     39  H23 FMY d   1     -20.250  34.232  10.041  0.00  0.00     0.068 H 
ATOM     40  H24 FMY d   1     -19.271  35.173  11.217  0.00  0.00     0.068 H 
ENDBRANCH  25  27
ENDBRANCH  15  21
ENDBRANCH   1  11
BRANCH   5  41
ATOM     41  C24 FMY d   1     -31.101  33.351  12.721  0.00  0.00    -0.002 C 
ATOM     42  C06 FMY d   1     -32.174  32.860  13.516  0.00  0.00    -0.033 C 
ATOM     43  C22 FMY d   1     -31.817  32.075  14.636  0.00  0.00     0.118 C 
ATOM     44  H6  FMY d   1     -33.209  33.076  13.276  0.00  0.00     0.089 H 
ATOM     45  C07 FMY d   1     -30.498  31.739  14.919  0.00  0.00    -0.025 C 
ATOM     46  F37 FMY d   1     -32.691  31.542  15.470  0.00  0.00    -0.206 F 
ATOM     47  C25 FMY d   1     -29.483  32.233  14.099  0.00  0.00     0.014 C 
ATOM     48  H7  FMY d   1     -30.262  31.103  15.764  0.00  0.00     0.091 H 
ATOM     49  C08 FMY d   1     -29.779  33.118  13.080  0.00  0.00    -0.050 C 
ATOM     50  H8  FMY d   1     -28.979  33.631  12.560  0.00  0.00     0.087 H 
BRANCH  47  51
ATOM     51  N28 FMY d   1     -28.147  32.051  14.461  0.00  0.00    -0.279 NA
ATOM     52  C13 FMY d   1     -27.559  33.396  14.760  0.00  0.00     0.003 C 
ATOM     53  C09 FMY d   1     -26.109  33.495  14.314  0.00  0.00     0.031 C 
ATOM     54  H17 FMY d   1     -28.145  34.165  14.235  0.00  0.00     0.059 H 
ATOM     55  H18 FMY d   1     -27.610  33.573  15.845  0.00  0.00     0.059 H 
ATOM     56  O20 FMY d   1     -25.495  32.246  14.613  0.00  0.00    -0.389 OA
ATOM     57  H9  FMY d   1     -25.601  34.305  14.858  0.00  0.00     0.076 H 
ATOM     58  H10 FMY d   1     -26.059  33.691  13.233  0.00  0.00     0.076 H 
ATOM     59  C10 FMY d   1     -26.128  31.010  14.141  0.00  0.00     0.031 C 
ATOM     60  C14 FMY d   1     -27.424  31.300  13.429  0.00  0.00     0.003 C 
ATOM     61  H11 FMY d   1     -25.444  30.499  13.448  0.00  0.00     0.076 H 
ATOM     62  H12 FMY d   1     -26.330  30.358  15.004  0.00  0.00     0.076 H 
ATOM     63  H19 FMY d   1     -27.952  30.374  13.158  0.00  0.00     0.059 H 
ATOM     64  H20 FMY d   1     -27.262  31.907  12.526  0.00  0.00     0.059 H 
ENDBRANCH  47  51
ENDBRANCH   5  41
TORSDOF 5
