REMARK  5 active torsions:
REMARK  status: ('A' for Active; 'I' for Inactive)
REMARK    1  A    between atoms: C2_2  and  N7_7 
REMARK    2  A    between atoms: C4_4  and  N8_8 
REMARK    3  A    between atoms: C6_6  and  C9_9 
REMARK    4  A    between atoms: N7_7  and  C16_16 
REMARK    5  A    between atoms: C9_9  and  N15_15 
ROOT
ATOM      1  N1  ORG d   1      45.194  16.593  59.627  0.00  0.00    -0.045 NA
ATOM      2  C2  ORG d   1      44.969  15.342  59.792  0.00  0.00     0.740 A 
ATOM      3  N3  ORG d   1      44.394  14.947  61.067  0.00  0.00     0.130 NA
ATOM      4  C4  ORG d   1      44.105  15.772  62.013  0.00  0.00     0.742 A 
ATOM      5  N5  ORG d   1      44.391  17.168  61.739  0.00  0.00    -0.044 NA
ATOM      6  C6  ORG d   1      44.898  17.583  60.640  0.00  0.00     0.189 A 
ENDROOT
BRANCH   2   7
ATOM      7  N7  ORG d   1      45.232  14.447  58.877  0.00  0.00    -0.217 N 
ATOM      8  H   ORG d   1      44.766  13.542  58.943  0.00  0.00     0.178 HD
BRANCH   7   9
ATOM      9  C16 ORG d   1      46.161  14.669  57.757  0.00  0.00     0.026 C 
ATOM     10  C17 ORG d   1      47.646  14.514  58.211  0.00  0.00    -0.046 C 
ATOM     11  C18 ORG d   1      48.631  14.737  57.017  0.00  0.00    -0.063 C 
ATOM     12  H   ORG d   1      47.788  13.504  58.594  0.00  0.00     0.036 H 
ATOM     13  H   ORG d   1      47.855  15.261  58.977  0.00  0.00     0.036 H 
ATOM     14  C19 ORG d   1      48.307  13.733  55.858  0.00  0.00    -0.065 C 
ATOM     15  H   ORG d   1      49.652  14.571  57.360  0.00  0.00     0.033 H 
ATOM     16  H   ORG d   1      48.522  15.757  56.648  0.00  0.00     0.033 H 
ATOM     17  C20 ORG d   1      46.814  13.859  55.406  0.00  0.00    -0.063 C 
ATOM     18  H   ORG d   1      48.479  12.718  56.217  0.00  0.00     0.033 H 
ATOM     19  H   ORG d   1      48.950  13.962  55.008  0.00  0.00     0.033 H 
ATOM     20  C21 ORG d   1      45.844  13.653  56.618  0.00  0.00    -0.046 C 
ATOM     21  H   ORG d   1      46.608  13.093  54.658  0.00  0.00     0.033 H 
ATOM     22  H   ORG d   1      46.655  14.856  54.995  0.00  0.00     0.033 H 
ATOM     23  H   ORG d   1      44.820  13.811  56.280  0.00  0.00     0.036 H 
ATOM     24  H   ORG d   1      45.971  12.641  57.003  0.00  0.00     0.036 H 
ATOM     25  H   ORG d   1      46.029  15.688  57.394  0.00  0.00     0.073 H 
ENDBRANCH   7   9
ENDBRANCH   2   7
BRANCH   6  26
ATOM     26  C9  ORG d   1      45.160  18.965  60.430  0.00  0.00     0.137 C 
ATOM     27  H   ORG d   1      44.474  19.173  59.609  0.00  0.00     0.087 H 
ATOM     28  H   ORG d   1      46.250  18.963  60.442  0.00  0.00     0.087 H 
BRANCH  26  29
ATOM     29  N15 ORG d   1      44.902  20.048  61.253  0.00  0.00    -0.072 N 
ATOM     30  H   ORG d   1      45.218  20.904  60.796  0.00  0.00     0.274 HD
ATOM     31  H   ORG d   1      43.900  20.107  61.432  0.00  0.00     0.274 HD
ATOM     32  H   ORG d   1      45.400  19.929  62.136  0.00  0.00     0.274 HD
ENDBRANCH  26  29
ENDBRANCH   6  26
BRANCH   4  33
ATOM     33  N8  ORG d   1      43.585  15.383  63.162  0.00  0.00    -0.210 N 
ATOM     34  C10 ORG d   1      43.299  13.955  63.447  0.00  0.00     0.034 C 
ATOM     35  C11 ORG d   1      44.064  13.557  64.744  0.00  0.00     0.097 C 
ATOM     36  H   ORG d   1      43.625  13.333  62.613  0.00  0.00     0.067 H 
ATOM     37  H   ORG d   1      42.228  13.806  63.583  0.00  0.00     0.067 H 
ATOM     38  N12 ORG d   1      43.727  14.524  65.834  0.00  0.00    -0.072 N 
ATOM     39  H   ORG d   1      45.137  13.579  64.556  0.00  0.00     0.078 H 
ATOM     40  H   ORG d   1      43.772  12.551  65.046  0.00  0.00     0.078 H 
ATOM     41  C13 ORG d   1      44.040  15.950  65.509  0.00  0.00     0.097 C 
ATOM     42  H   ORG d   1      44.290  14.270  66.645  0.00  0.00     0.277 HD
ATOM     43  H   ORG d   1      42.720  14.465  65.987  0.00  0.00     0.277 HD
ATOM     44  C14 ORG d   1      43.264  16.362  64.229  0.00  0.00     0.034 C 
ATOM     45  H   ORG d   1      45.111  16.061  65.340  0.00  0.00     0.078 H 
ATOM     46  H   ORG d   1      43.742  16.589  66.340  0.00  0.00     0.078 H 
ATOM     47  H   ORG d   1      42.192  16.367  64.424  0.00  0.00     0.067 H 
ATOM     48  H   ORG d   1      43.556  17.366  63.919  0.00  0.00     0.067 H 
ENDBRANCH   4  33
TORSDOF 5
