REMARK  7 active torsions:
REMARK  status: ('A' for Active; 'I' for Inactive)
REMARK    1  A    between atoms: C1_1  and  N1_3 
REMARK    2  A    between atoms: C2_5  and  C1_1 
REMARK    3  A    between atoms: C3_9  and  C2_5 
REMARK    4  A    between atoms: N2_7  and  C3_9 
REMARK    5  A    between atoms: C9_18  and  N3_11 
REMARK    6  A    between atoms: C8_17  and  C13_22 
REMARK    7  A    between atoms: C14_23  and  N15_25 
ROOT
ATOM      1  O1  ORH d   1      -7.826  10.538  34.444  0.00  0.00    -0.265 OA
ATOM      2  N2  ORH d   1      -9.587  10.092  35.997  0.00  0.00    -0.263 N 
ATOM      3  O2  ORH d   1     -11.230   9.461  37.474  0.00  0.00    -0.244 OA
ATOM      4  N3  ORH d   1      -9.865   7.709  36.670  0.00  0.00    -0.205 N 
ATOM      5  C4  ORH d   1     -10.288   9.122  36.766  0.00  0.00     0.351 A 
ATOM      6  N4  ORH d   1      -8.753   7.376  35.844  0.00  0.00    -0.283 N 
ATOM      7  C5  ORH d   1      -8.465   9.683  35.147  0.00  0.00     0.281 A 
ATOM      8  C6  ORH d   1      -8.059   8.331  35.097  0.00  0.00     0.132 A 
ATOM      9  C14 ORH d   1      -6.813   7.915  34.542  0.00  0.00     0.003 C 
ATOM     10  H   ORH d   1      -8.452   6.403  35.796  0.00  0.00     0.188 HD
ATOM     11  H   ORH d   1      -6.417   6.917  34.729  0.00  0.00     0.114 H 
ENDROOT
BRANCH   2  12
ATOM     12  C3  ORH d   1      -9.890  11.503  36.170  0.00  0.00     0.009 C 
ATOM     13  H   ORH d   1     -10.169  11.986  35.233  0.00  0.00     0.065 H 
ATOM     14  H   ORH d   1     -10.755  11.666  36.813  0.00  0.00     0.065 H 
BRANCH  12  15
ATOM     15  C2  ORH d   1      -8.599  12.084  36.766  0.00  0.00    -0.025 C 
ATOM     16  H   ORH d   1      -8.517  11.604  37.741  0.00  0.00     0.037 H 
ATOM     17  H   ORH d   1      -7.849  11.912  35.994  0.00  0.00     0.037 H 
BRANCH  15  18
ATOM     18  C1  ORH d   1      -8.481  13.570  37.073  0.00  0.00     0.115 C 
ATOM     19  H   ORH d   1      -8.639  14.199  36.197  0.00  0.00     0.080 H 
ATOM     20  H   ORH d   1      -9.247  13.923  37.764  0.00  0.00     0.080 H 
BRANCH  18  21
ATOM     21  N1  ORH d   1      -7.175  13.677  37.598  0.00  0.00     0.088 N 
ATOM     22  C15 ORH d   1      -6.509  14.912  37.166  0.00  0.00     0.113 C 
ATOM     23  C17 ORH d   1      -5.120  15.063  37.745  0.00  0.00    -0.040 C 
ATOM     24  H   ORH d   1      -7.109  15.753  37.514  0.00  0.00     0.079 H 
ATOM     25  H   ORH d   1      -6.416  14.879  36.081  0.00  0.00     0.079 H 
ATOM     26  C19 ORH d   1      -5.287  14.949  39.268  0.00  0.00    -0.062 C 
ATOM     27  H   ORH d   1      -4.675  16.018  37.465  0.00  0.00     0.035 H 
ATOM     28  H   ORH d   1      -4.445  14.298  37.362  0.00  0.00     0.035 H 
ATOM     29  C20 ORH d   1      -5.843  13.581  39.701  0.00  0.00    -0.040 C 
ATOM     30  H   ORH d   1      -5.994  15.715  39.586  0.00  0.00     0.033 H 
ATOM     31  H   ORH d   1      -4.304  15.071  39.724  0.00  0.00     0.033 H 
ATOM     32  C18 ORH d   1      -7.211  13.499  39.077  0.00  0.00     0.113 C 
ATOM     33  H   ORH d   1      -5.201  12.763  39.374  0.00  0.00     0.035 H 
ATOM     34  H   ORH d   1      -5.889  13.489  40.786  0.00  0.00     0.035 H 
ATOM     35  H   ORH d   1      -7.618  12.510  39.287  0.00  0.00     0.079 H 
ATOM     36  H   ORH d   1      -7.821  14.299  39.497  0.00  0.00     0.079 H 
ENDBRANCH  18  21
ENDBRANCH  15  18
ENDBRANCH  12  15
ENDBRANCH   2  12
BRANCH   4  37
ATOM     37  C9  ORH d   1     -10.468   6.573  37.360  0.00  0.00     0.062 A 
ATOM     38  C7  ORH d   1      -9.559   5.539  37.795  0.00  0.00    -0.040 A 
ATOM     39  C8  ORH d   1     -10.047   4.375  38.444  0.00  0.00     0.050 A 
ATOM     40  H   ORH d   1      -8.489   5.653  37.623  0.00  0.00     0.088 H 
ATOM     41  C10 ORH d   1     -11.459   4.221  38.658  0.00  0.00    -0.068 A 
ATOM     42  C12 ORH d   1     -12.384   5.227  38.240  0.00  0.00    -0.080 A 
ATOM     43  H   ORH d   1     -11.831   3.321  39.148  0.00  0.00     0.084 H 
ATOM     44  C11 ORH d   1     -11.908   6.412  37.578  0.00  0.00    -0.055 A 
ATOM     45  H   ORH d   1     -13.451   5.096  38.423  0.00  0.00     0.083 H 
ATOM     46  H   ORH d   1     -12.607   7.178  37.244  0.00  0.00     0.087 H 
BRANCH  39  47
ATOM     47  C13 ORH d   1      -9.162   3.297  38.894  0.00  0.00     0.417 C 
ATOM     48  F1  ORH d   1      -9.489   2.195  38.304  0.00  0.00    -0.166 F 
ATOM     49  F2  ORH d   1      -9.377   3.133  40.159  0.00  0.00    -0.166 F 
ATOM     50  F3  ORH d   1      -7.884   3.552  38.643  0.00  0.00    -0.166 F 
ENDBRANCH  39  47
ENDBRANCH   4  37
BRANCH   9  51
ATOM     51  N15 ORH d   1      -6.125   8.822  33.759  0.00  0.00    -0.406 N 
ATOM     52  H   ORH d   1      -6.512   9.752  33.596  0.00  0.00     0.155 HD
ATOM     53  H   ORH d   1      -5.230   8.562  33.344  0.00  0.00     0.155 HD
ENDBRANCH   9  51
TORSDOF 7
