REMARK  7 active torsions:
REMARK  status: ('A' for Active; 'I' for Inactive)
REMARK    1  A    between atoms: C2_2  and  N1_1 
REMARK    2  A    between atoms: C9_9  and  N21_21 
REMARK    3  A    between atoms: C12_12  and  O22_22 
REMARK    4  A    between atoms: C15_15  and  O23_23 
REMARK    5  A    between atoms: C18_18  and  C25_25 
REMARK    6  A    between atoms: O22_22  and  C27_27 
REMARK    7  A    between atoms: O23_23  and  C26_26 
ROOT
ATOM      1  C2  B1Q d   1      48.264  51.823  35.812  0.00  0.00     0.065 C 
ATOM      2  N3  B1Q d   1      48.147  50.630  33.714  0.00  0.00    -0.060 N 
ATOM      3  C4  B1Q d   1      46.695  50.946  33.551  0.00  0.00     0.132 C 
ATOM      4  C6  B1Q d   1      46.334  51.001  32.096  0.00  0.00    -0.018 A 
ATOM      5  C7  B1Q d   1      48.481  50.466  35.141  0.00  0.00     0.105 C 
ATOM      6  C8  B1Q d   1      46.283  52.226  34.314  0.00  0.00    -0.006 C 
ATOM      7  C9  B1Q d   1      46.780  52.240  35.760  0.00  0.00     0.123 C 
ATOM      8  C10 B1Q d   1      47.131  50.355  31.140  0.00  0.00    -0.045 A 
ATOM      9  C11 B1Q d   1      45.174  51.676  31.667  0.00  0.00    -0.039 A 
ATOM     10  C12 B1Q d   1      44.820  51.716  30.310  0.00  0.00     0.102 A 
ATOM     11  C14 B1Q d   1      46.764  50.392  29.796  0.00  0.00    -0.041 A 
ATOM     12  C15 B1Q d   1      45.612  51.064  29.370  0.00  0.00     0.102 A 
ATOM     13  C17 B1Q d   1      48.513  49.398  32.994  0.00  0.00     0.088 C 
ATOM     14  C20 B1Q d   1      48.395  49.602  31.491  0.00  0.00    -0.018 C 
ATOM     15  H1  B1Q d   1      48.855  52.579  35.275  0.00  0.00     0.078 H 
ATOM     16  H2  B1Q d   1      48.684  51.396  33.339  0.00  0.00     0.280 HD
ATOM     17  H3  B1Q d   1      46.128  50.115  33.995  0.00  0.00     0.092 H 
ATOM     18  H4  B1Q d   1      47.825  49.710  35.598  0.00  0.00     0.079 H 
ATOM     19  H5  B1Q d   1      49.530  50.155  35.250  0.00  0.00     0.079 H 
ATOM     20  H6  B1Q d   1      45.185  52.294  34.319  0.00  0.00     0.039 H 
ATOM     21  H7  B1Q d   1      46.702  53.098  33.790  0.00  0.00     0.039 H 
ATOM     22  H8  B1Q d   1      46.191  51.526  36.355  0.00  0.00     0.087 H 
ATOM     23  H9  B1Q d   1      44.545  52.172  32.397  0.00  0.00     0.088 H 
ATOM     24  H12 B1Q d   1      47.385  49.889  29.064  0.00  0.00     0.088 H 
ATOM     25  H15 B1Q d   1      47.839  48.585  33.303  0.00  0.00     0.076 H 
ATOM     26  H16 B1Q d   1      49.550  49.129  33.242  0.00  0.00     0.076 H 
ATOM     27  H18 B1Q d   1      49.264  50.175  31.137  0.00  0.00     0.042 H 
ATOM     28  H19 B1Q d   1      48.377  48.620  30.996  0.00  0.00     0.042 H 
ENDROOT
BRANCH   1  29
ATOM     29  N1  B1Q d   1      48.735  51.755  37.196  0.00  0.00    -0.343 N 
ATOM     30  C5  B1Q d   1      49.471  52.714  37.760  0.00  0.00     0.220 C 
ATOM     31  C16 B1Q d   1      49.679  52.358  39.214  0.00  0.00     0.016 C 
ATOM     32  O19 B1Q d   1      49.935  53.712  37.225  0.00  0.00    -0.273 OA
ATOM     33  C18 B1Q d   1      48.734  51.167  39.391  0.00  0.00    -0.005 C 
ATOM     34  H13 B1Q d   1      49.398  53.192  39.873  0.00  0.00     0.048 H 
ATOM     35  H14 B1Q d   1      50.723  52.072  39.410  0.00  0.00     0.048 H 
ATOM     36  C13 B1Q d   1      48.409  50.587  38.007  0.00  0.00     0.004 C 
ATOM     37  H17 B1Q d   1      47.800  51.526  39.846  0.00  0.00     0.046 H 
ATOM     38  H10 B1Q d   1      49.043  49.723  37.761  0.00  0.00     0.065 H 
ATOM     39  H11 B1Q d   1      47.350  50.303  37.916  0.00  0.00     0.065 H 
BRANCH  33  40
ATOM     40  C25 B1Q d   1      49.325  50.130  40.304  0.00  0.00     0.063 C 
ATOM     41  F24 B1Q d   1      48.290  49.493  40.938  0.00  0.00    -0.255 F 
ATOM     42  H23 B1Q d   1      49.978  50.613  41.046  0.00  0.00     0.083 H 
ATOM     43  H24 B1Q d   1      49.909  49.404  39.718  0.00  0.00     0.083 H 
ENDBRANCH  33  40
ENDBRANCH   1  29
BRANCH   7  44
ATOM     44  N21 B1Q d   1      46.590  53.571  36.294  0.00  0.00    -0.073 N 
ATOM     45  H20 B1Q d   1      46.913  53.599  37.248  0.00  0.00     0.274 HD
ATOM     46  H21 B1Q d   1      45.611  53.809  36.263  0.00  0.00     0.274 HD
ATOM     47  H22 B1Q d   1      47.114  54.232  35.742  0.00  0.00     0.274 HD
ENDBRANCH   7  44
BRANCH  10  48
ATOM     48  O22 B1Q d   1      43.684  52.359  29.869  0.00  0.00    -0.353 OA
BRANCH  48  49
ATOM     49  C27 B1Q d   1      43.062  53.456  30.546  0.00  0.00     0.010 C 
ATOM     50  H28 B1Q d   1      42.175  53.780  29.982  0.00  0.00     0.066 H 
ATOM     51  H29 B1Q d   1      43.774  54.291  30.621  0.00  0.00     0.066 H 
ATOM     52  H30 B1Q d   1      42.759  53.140  31.555  0.00  0.00     0.066 H 
ENDBRANCH  48  49
ENDBRANCH  10  48
BRANCH  12  53
ATOM     53  O23 B1Q d   1      45.270  51.088  28.028  0.00  0.00    -0.353 OA
BRANCH  53  54
ATOM     54  C26 B1Q d   1      45.653  50.035  27.128  0.00  0.00     0.010 C 
ATOM     55  H25 B1Q d   1      45.277  50.260  26.119  0.00  0.00     0.066 H 
ATOM     56  H26 B1Q d   1      45.225  49.083  27.474  0.00  0.00     0.066 H 
ATOM     57  H27 B1Q d   1      46.750  49.956  27.102  0.00  0.00     0.066 H 
ENDBRANCH  53  54
ENDBRANCH  12  53
TORSDOF 7
