REMARK  7 active torsions:
REMARK  status: ('A' for Active; 'I' for Inactive)
REMARK    1  A    between atoms: C4_2  and  C10_7 
REMARK    2  A    between atoms: C8_6  and  N17_17 
REMARK    3  A    between atoms: C13_8  and  O20_24 
REMARK    4  A    between atoms: C18_14  and  C24_11 
REMARK    5  A    between atoms: O20_24  and  C26_12 
REMARK    6  A    between atoms: C11_25  and  O19_26 
REMARK    7  A    between atoms: O19_26  and  C27_27 
ROOT
ATOM      1  N1  23Q d   1      47.910  49.805  34.026  0.00  0.00     0.098 N 
ATOM      2  C4  23Q d   1      48.028  51.181  36.081  0.00  0.00     0.024 C 
ATOM      3  C5  23Q d   1      46.324  51.628  34.383  0.00  0.00    -0.005 C 
ATOM      4  C6  23Q d   1      48.373  49.861  35.419  0.00  0.00     0.123 C 
ATOM      5  C7  23Q d   1      47.000  49.460  31.399  0.00  0.00    -0.045 A 
ATOM      6  C8  23Q d   1      46.558  51.530  35.878  0.00  0.00     0.111 C 
ATOM      7  C13 23Q d   1      45.529  50.125  29.546  0.00  0.00     0.102 A 
ATOM      8  C2  23Q d   1      46.541  50.256  33.726  0.00  0.00     0.162 C 
ATOM      9  C3  23Q d   1      46.377  50.384  32.243  0.00  0.00    -0.016 A 
ATOM     10  C9  23Q d   1      45.337  51.176  31.724  0.00  0.00    -0.039 A 
ATOM     11  C16 23Q d   1      48.211  48.686  31.876  0.00  0.00    -0.015 C 
ATOM     12  C14 23Q d   1      48.110  48.501  33.393  0.00  0.00     0.118 C 
ATOM     13  C12 23Q d   1      46.580  49.331  30.064  0.00  0.00    -0.041 A 
ATOM     14  C11 23Q d   1      44.908  51.061  30.391  0.00  0.00     0.102 A 
ATOM     15  H   23Q d   1      48.646  51.947  35.613  0.00  0.00     0.053 H 
ATOM     16  H   23Q d   1      47.026  52.345  33.956  0.00  0.00     0.039 H 
ATOM     17  H   23Q d   1      45.300  51.955  34.201  0.00  0.00     0.039 H 
ATOM     18  H   23Q d   1      49.458  49.752  35.422  0.00  0.00     0.081 H 
ATOM     19  H   23Q d   1      47.880  49.063  35.974  0.00  0.00     0.081 H 
ATOM     20  H   23Q d   1      45.931  50.774  36.351  0.00  0.00     0.085 H 
ATOM     21  H   23Q d   1      45.816  49.538  34.109  0.00  0.00     0.096 H 
ATOM     22  H   23Q d   1      44.849  51.901  32.376  0.00  0.00     0.088 H 
ATOM     23  H   23Q d   1      49.121  49.234  31.630  0.00  0.00     0.042 H 
ATOM     24  H   23Q d   1      48.245  47.713  31.386  0.00  0.00     0.042 H 
ATOM     25  H   23Q d   1      47.268  47.849  33.626  0.00  0.00     0.080 H 
ATOM     26  H   23Q d   1      49.029  48.050  33.768  0.00  0.00     0.080 H 
ATOM     27  H   23Q d   1      47.073  48.606  29.416  0.00  0.00     0.088 H 
ENDROOT
BRANCH   2  28
ATOM     28  C10 23Q d   1      48.315  51.135  37.529  0.00  0.00    -0.050 A 
ATOM     29  C15 23Q d   1      47.773  50.133  38.345  0.00  0.00    -0.068 A 
ATOM     30  C18 23Q d   1      48.043  50.145  39.708  0.00  0.00    -0.029 A 
ATOM     31  H   23Q d   1      47.146  49.352  37.915  0.00  0.00     0.085 H 
ATOM     32  C25 23Q d   1      48.852  51.141  40.245  0.00  0.00    -0.074 A 
ATOM     33  C23 23Q d   1      49.389  52.141  39.437  0.00  0.00    -0.082 A 
ATOM     34  H   23Q d   1      49.069  51.139  41.313  0.00  0.00     0.084 H 
ATOM     35  C22 23Q d   1      49.122  52.140  38.073  0.00  0.00    -0.076 A 
ATOM     36  H   23Q d   1      50.015  52.920  39.872  0.00  0.00     0.083 H 
ATOM     37  H   23Q d   1      49.538  52.917  37.432  0.00  0.00     0.084 H 
BRANCH  30  38
ATOM     38  C24 23Q d   1      47.467  49.086  40.618  0.00  0.00     0.082 C 
ATOM     39  F21 23Q d   1      48.483  48.312  41.144  0.00  0.00    -0.251 F 
ATOM     40  H   23Q d   1      46.925  49.568  41.432  0.00  0.00     0.089 H 
ATOM     41  H   23Q d   1      46.791  48.450  40.046  0.00  0.00     0.089 H 
ENDBRANCH  30  38
ENDBRANCH   2  28
BRANCH   6  42
ATOM     42  N17 23Q d   1      46.263  52.829  36.450  0.00  0.00    -0.074 N 
ATOM     43  H   23Q d   1      46.411  52.797  37.459  0.00  0.00     0.274 HD
ATOM     44  H   23Q d   1      46.879  53.529  36.037  0.00  0.00     0.274 HD
ATOM     45  H   23Q d   1      45.292  53.072  36.255  0.00  0.00     0.274 HD
ENDBRANCH   6  42
BRANCH  14  46
ATOM     46  O19 23Q d   1      43.893  51.859  29.885  0.00  0.00    -0.353 OA
BRANCH  46  47
ATOM     47  C27 23Q d   1      42.733  52.199  30.642  0.00  0.00     0.010 C 
ATOM     48  H   23Q d   1      42.203  51.288  30.921  0.00  0.00     0.066 H 
ATOM     49  H   23Q d   1      43.032  52.737  31.542  0.00  0.00     0.066 H 
ATOM     50  H   23Q d   1      42.080  52.831  30.040  0.00  0.00     0.066 H 
ENDBRANCH  46  47
ENDBRANCH  14  46
BRANCH   7  51
ATOM     51  O20 23Q d   1      45.071  50.022  28.229  0.00  0.00    -0.353 OA
BRANCH  51  52
ATOM     52  C26 23Q d   1      45.607  49.135  27.237  0.00  0.00     0.010 C 
ATOM     53  H   23Q d   1      46.661  49.364  27.078  0.00  0.00     0.066 H 
ATOM     54  H   23Q d   1      45.505  48.105  27.579  0.00  0.00     0.066 H 
ATOM     55  H   23Q d   1      45.061  49.265  26.302  0.00  0.00     0.066 H 
ENDBRANCH  51  52
ENDBRANCH   7  51
TORSDOF 7
