REMARK  7 active torsions:
REMARK  status: ('A' for Active; 'I' for Inactive)
REMARK    1  A    between atoms: C2_2  and  C7_7 
REMARK    2  A    between atoms: C4_4  and  C8_8 
REMARK    3  A    between atoms: C6_6  and  C26_26 
REMARK    4  A    between atoms: C8_8  and  C9_9 
REMARK    5  A    between atoms: C9_9  and  C10_10 
REMARK    6  A    between atoms: C10_10  and  N11_11 
REMARK    7  A    between atoms: C13_13  and  C17_17 
ROOT
ATOM      1  N1  KWZ d   1      11.805 -17.310   4.194  0.00  0.00    -0.227 NA
ATOM      2  C2  KWZ d   1      13.092 -17.052   3.976  0.00  0.00     0.071 A 
ATOM      3  C3  KWZ d   1      13.421 -16.253   2.860  0.00  0.00    -0.030 A 
ATOM      4  C4  KWZ d   1      12.420 -15.680   2.074  0.00  0.00     0.039 A 
ATOM      5  N5  KWZ d   1      11.146 -15.949   2.369  0.00  0.00    -0.233 NA
ATOM      6  C6  KWZ d   1      10.863 -16.776   3.391  0.00  0.00     0.167 A 
ATOM      7  H   KWZ d   1      14.468 -16.082   2.609  0.00  0.00     0.090 H 
ENDROOT
BRANCH   4   8
ATOM      8  C8  KWZ d   1      12.738 -14.806   0.885  0.00  0.00    -0.023 C 
ATOM      9  H   KWZ d   1      13.817 -14.819   0.729  0.00  0.00     0.042 H 
ATOM     10  H   KWZ d   1      12.372 -13.800   1.091  0.00  0.00     0.042 H 
BRANCH   8  11
ATOM     11  C9  KWZ d   1      12.065 -15.311  -0.380  0.00  0.00    -0.035 C 
ATOM     12  H   KWZ d   1      12.311 -14.636  -1.200  0.00  0.00     0.036 H 
ATOM     13  H   KWZ d   1      10.989 -15.348  -0.212  0.00  0.00     0.036 H 
BRANCH  11  14
ATOM     14  C10 KWZ d   1      12.555 -16.722  -0.741  0.00  0.00     0.114 C 
ATOM     15  H   KWZ d   1      12.067 -17.384  -0.025  0.00  0.00     0.079 H 
ATOM     16  H   KWZ d   1      13.643 -16.656  -0.733  0.00  0.00     0.079 H 
BRANCH  14  17
ATOM     17  N11 KWZ d   1      12.208 -17.278  -2.087  0.00  0.00     0.088 N 
ATOM     18  C21 KWZ d   1      11.078 -16.591  -2.767  0.00  0.00     0.113 C 
ATOM     19  C22 KWZ d   1      10.401 -17.300  -3.954  0.00  0.00    -0.040 C 
ATOM     20  H   KWZ d   1      11.506 -15.679  -3.184  0.00  0.00     0.079 H 
ATOM     21  H   KWZ d   1      10.301 -16.497  -2.008  0.00  0.00     0.079 H 
ATOM     22  C23 KWZ d   1      10.783 -18.760  -4.189  0.00  0.00    -0.062 C 
ATOM     23  H   KWZ d   1      10.717 -16.760  -4.846  0.00  0.00     0.035 H 
ATOM     24  H   KWZ d   1       9.333 -17.300  -3.734  0.00  0.00     0.035 H 
ATOM     25  C24 KWZ d   1      11.859 -19.394  -3.297  0.00  0.00    -0.040 C 
ATOM     26  H   KWZ d   1      11.200 -18.785  -5.196  0.00  0.00     0.033 H 
ATOM     27  H   KWZ d   1       9.875 -19.327  -3.983  0.00  0.00     0.033 H 
ATOM     28  C25 KWZ d   1      12.081 -18.733  -1.951  0.00  0.00     0.113 C 
ATOM     29  H   KWZ d   1      12.799 -19.304  -3.841  0.00  0.00     0.035 H 
ATOM     30  H   KWZ d   1      11.523 -20.410  -3.087  0.00  0.00     0.035 H 
ATOM     31  H   KWZ d   1      11.224 -18.949  -1.313  0.00  0.00     0.079 H 
ATOM     32  H   KWZ d   1      13.003 -19.123  -1.520  0.00  0.00     0.079 H 
ENDBRANCH  14  17
ENDBRANCH  11  14
ENDBRANCH   8  11
ENDBRANCH   4   8
BRANCH   2  33
ATOM     33  C7  KWZ d   1      14.086 -17.727   4.884  0.00  0.00    -0.006 A 
ATOM     34  C12 KWZ d   1      13.609 -18.379   6.029  0.00  0.00    -0.056 A 
ATOM     35  C13 KWZ d   1      14.451 -19.068   6.898  0.00  0.00     0.048 A 
ATOM     36  H   KWZ d   1      12.541 -18.346   6.247  0.00  0.00     0.086 H 
ATOM     37  C14 KWZ d   1      15.816 -19.112   6.608  0.00  0.00    -0.068 A 
ATOM     38  C15 KWZ d   1      16.292 -18.469   5.469  0.00  0.00    -0.081 A 
ATOM     39  H   KWZ d   1      16.502 -19.645   7.267  0.00  0.00     0.084 H 
ATOM     40  C16 KWZ d   1      15.448 -17.776   4.604  0.00  0.00    -0.071 A 
ATOM     41  H   KWZ d   1      17.358 -18.509   5.247  0.00  0.00     0.083 H 
ATOM     42  H   KWZ d   1      15.849 -17.279   3.720  0.00  0.00     0.084 H 
BRANCH  35  43
ATOM     43  C17 KWZ d   1      13.910 -19.747   8.123  0.00  0.00     0.417 C 
ATOM     44  F18 KWZ d   1      12.928 -20.590   7.827  0.00  0.00    -0.166 F 
ATOM     45  F19 KWZ d   1      14.889 -20.428   8.638  0.00  0.00    -0.166 F 
ATOM     46  F20 KWZ d   1      13.504 -18.929   9.083  0.00  0.00    -0.166 F 
ENDBRANCH  35  43
ENDBRANCH   2  33
BRANCH   6  47
ATOM     47  C26 KWZ d   1       9.437 -17.010   3.653  0.00  0.00     0.040 C 
ATOM     48  N27 KWZ d   1       8.630 -16.366   2.927  0.00  0.00    -0.308 NA
ATOM     49  H   KWZ d   1       8.983 -15.730   2.212  0.00  0.00     0.186 HD
ATOM     50  H   KWZ d   1       9.096 -17.698   4.427  0.00  0.00     0.119 H 
ENDBRANCH   6  47
TORSDOF 7
