REMARK  6 active torsions:
REMARK  status: ('A' for Active; 'I' for Inactive)
REMARK    1  A    between atoms: C2_2  and  C10_10 
REMARK    2  A    between atoms: C4_4  and  C7_7 
REMARK    3  A    between atoms: C6_6  and  C17_17 
REMARK    4  A    between atoms: C7_7  and  C8_8 
REMARK    5  A    between atoms: C8_8  and  C9_9 
REMARK    6  A    between atoms: C9_9  and  N18_18 
ROOT
ATOM      1  N1  KX1 d   1     -16.926  12.036  -4.159  0.00  0.00    -0.232 NA
ATOM      2  C2  KX1 d   1     -16.833  13.381  -4.181  0.00  0.00     0.043 A 
ATOM      3  C3  KX1 d   1     -16.148  14.051  -3.142  0.00  0.00    -0.035 A 
ATOM      4  C4  KX1 d   1     -15.604  13.280  -2.100  0.00  0.00     0.039 A 
ATOM      5  N5  KX1 d   1     -15.696  11.939  -2.111  0.00  0.00    -0.233 NA
ATOM      6  C6  KX1 d   1     -16.352  11.380  -3.139  0.00  0.00     0.166 A 
ATOM      7  H1  KX1 d   1     -16.045  15.130  -3.148  0.00  0.00     0.089 H 
ENDROOT
BRANCH   4   8
ATOM      8  C7  KX1 d   1     -14.807  13.819  -0.916  0.00  0.00    -0.023 C 
ATOM      9  H2  KX1 d   1     -14.056  14.519  -1.311  0.00  0.00     0.042 H 
ATOM     10  H3  KX1 d   1     -14.299  12.967  -0.440  0.00  0.00     0.042 H 
BRANCH   8  11
ATOM     11  C8  KX1 d   1     -15.603  14.556   0.176  0.00  0.00    -0.037 C 
ATOM     12  H4  KX1 d   1     -16.677  14.404  -0.009  0.00  0.00     0.035 H 
ATOM     13  H5  KX1 d   1     -15.369  15.629   0.118  0.00  0.00     0.035 H 
BRANCH  11  14
ATOM     14  C9  KX1 d   1     -15.272  14.056   1.593  0.00  0.00     0.084 C 
ATOM     15  H6  KX1 d   1     -14.263  14.400   1.862  0.00  0.00     0.076 H 
ATOM     16  H7  KX1 d   1     -15.297  12.956   1.594  0.00  0.00     0.076 H 
BRANCH  14  17
ATOM     17  N18 KX1 d   1     -16.269  14.574   2.648  0.00  0.00    -0.071 N 
ATOM     18  C20 KX1 d   1     -15.560  14.827   3.977  0.00  0.00     0.084 C 
ATOM     19  C21 KX1 d   1     -16.541  15.312   5.045  0.00  0.00    -0.042 C 
ATOM     20  H24 KX1 d   1     -14.784  15.592   3.829  0.00  0.00     0.076 H 
ATOM     21  H25 KX1 d   1     -15.093  13.891   4.318  0.00  0.00     0.076 H 
ATOM     22  C22 KX1 d   1     -17.703  14.333   5.248  0.00  0.00    -0.062 C 
ATOM     23  H26 KX1 d   1     -16.948  16.286   4.737  0.00  0.00     0.035 H 
ATOM     24  H27 KX1 d   1     -16.002  15.425   5.997  0.00  0.00     0.035 H 
ATOM     25  C23 KX1 d   1     -18.422  14.100   3.922  0.00  0.00    -0.042 C 
ATOM     26  H28 KX1 d   1     -18.411  14.753   5.978  0.00  0.00     0.033 H 
ATOM     27  H29 KX1 d   1     -17.312  13.376   5.624  0.00  0.00     0.033 H 
ATOM     28  C24 KX1 d   1     -17.467  13.642   2.820  0.00  0.00     0.084 C 
ATOM     29  H30 KX1 d   1     -18.900  15.040   3.608  0.00  0.00     0.035 H 
ATOM     30  H31 KX1 d   1     -19.192  13.328   4.067  0.00  0.00     0.035 H 
ATOM     31  H32 KX1 d   1     -17.097  12.637   3.071  0.00  0.00     0.076 H 
ATOM     32  H33 KX1 d   1     -18.020  13.602   1.870  0.00  0.00     0.076 H 
ATOM     33  H22 KX1 d   1     -16.624  15.458   2.319  0.00  0.00     0.279 HD
ENDBRANCH  14  17
ENDBRANCH  11  14
ENDBRANCH   8  11
ENDBRANCH   4   8
BRANCH   2  34
ATOM     34  C10 KX1 d   1     -17.554  13.921  -5.447  0.00  0.00    -0.012 C 
ATOM     35  C11 KX1 d   1     -19.041  14.225  -5.197  0.00  0.00    -0.057 C 
ATOM     36  C12 KX1 d   1     -20.031  13.955  -6.331  0.00  0.00    -0.064 C 
ATOM     37  H9  KX1 d   1     -19.118  15.293  -4.943  0.00  0.00     0.034 H 
ATOM     38  H10 KX1 d   1     -19.358  13.619  -4.335  0.00  0.00     0.034 H 
ATOM     39  C14 KX1 d   1     -20.026  14.859  -7.568  0.00  0.00    -0.065 C 
ATOM     40  H11 KX1 d   1     -21.040  14.014  -5.896  0.00  0.00     0.033 H 
ATOM     41  H12 KX1 d   1     -19.843  12.930  -6.683  0.00  0.00     0.033 H 
ATOM     42  C16 KX1 d   1     -18.905  15.882  -7.639  0.00  0.00    -0.065 C 
ATOM     43  H15 KX1 d   1     -20.981  15.404  -7.591  0.00  0.00     0.033 H 
ATOM     44  H16 KX1 d   1     -19.950  14.214  -8.456  0.00  0.00     0.033 H 
ATOM     45  C15 KX1 d   1     -17.499  15.298  -7.526  0.00  0.00    -0.064 C 
ATOM     46  H19 KX1 d   1     -19.044  16.600  -6.818  0.00  0.00     0.033 H 
ATOM     47  H20 KX1 d   1     -18.981  16.407  -8.602  0.00  0.00     0.033 H 
ATOM     48  C13 KX1 d   1     -16.935  15.136  -6.115  0.00  0.00    -0.057 C 
ATOM     49  H17 KX1 d   1     -17.512  14.303  -7.996  0.00  0.00     0.033 H 
ATOM     50  H18 KX1 d   1     -16.818  15.958  -8.084  0.00  0.00     0.033 H 
ATOM     51  H13 KX1 d   1     -15.844  15.005  -6.171  0.00  0.00     0.034 H 
ATOM     52  H14 KX1 d   1     -17.167  16.035  -5.524  0.00  0.00     0.034 H 
ATOM     53  H8  KX1 d   1     -17.508  13.105  -6.183  0.00  0.00     0.049 H 
ENDBRANCH   2  34
BRANCH   6  54
ATOM     54  C17 KX1 d   1     -16.559   9.925  -3.225  0.00  0.00     0.040 C 
ATOM     55  N19 KX1 d   1     -16.312   9.012  -2.341  0.00  0.00    -0.308 NA
ATOM     56  H23 KX1 d   1     -16.509   8.045  -2.546  0.00  0.00     0.186 HD
ATOM     57  H21 KX1 d   1     -16.979   9.566  -4.164  0.00  0.00     0.119 H 
ENDBRANCH   6  54
TORSDOF 6
