REMARK  11 active torsions:
REMARK  status: ('A' for Active; 'I' for Inactive)
REMARK    1  A    between atoms: C2_4  and  C1_1 
REMARK    2  A    between atoms: N1_2  and  O1_3 
REMARK    3  A    between atoms: C2_4  and  C28_37 
REMARK    4  A    between atoms: N2_5  and  C4_10 
REMARK       I    between atoms: C9_18  and  N2_5 
REMARK    5  A    between atoms: C26_35  and  O3_9 
REMARK    6  A    between atoms: C6_14  and  C7_16 
REMARK    7  A    between atoms: C6_14  and  C8_17 
REMARK    8  A    between atoms: N6_15  and  C21_30 
REMARK    9  A    between atoms: C22_31  and  N6_15 
REMARK   10  A    between atoms: C10_19  and  C9_18 
REMARK   11  A    between atoms: C16_25  and  C14_23 
ROOT
ATOM      1  C10 925 d   1      -8.821  -1.655  -6.286  0.00  0.00     0.032 A 
ATOM      2  C11 925 d   1      -8.613  -2.688  -5.384  0.00  0.00    -0.068 A 
ATOM      3  C12 925 d   1      -7.353  -3.013  -4.939  0.00  0.00    -0.081 A 
ATOM      4  C13 925 d   1      -6.290  -2.264  -5.396  0.00  0.00    -0.071 A 
ATOM      5  C14 925 d   1      -6.480  -1.218  -6.300  0.00  0.00    -0.005 A 
ATOM      6  C15 925 d   1      -7.755  -0.924  -6.727  0.00  0.00    -0.056 A 
ATOM      7  H20 925 d   1      -9.464  -3.253  -5.021  0.00  0.00     0.085 H 
ATOM      8  H21 925 d   1      -7.200  -3.835  -4.249  0.00  0.00     0.083 H 
ATOM      9  H22 925 d   1      -5.289  -2.491  -5.047  0.00  0.00     0.084 H 
ATOM     10  H23 925 d   1      -7.914  -0.105  -7.419  0.00  0.00     0.086 H 
ENDROOT
BRANCH   1  11
ATOM     11  C9  925 d   1     -10.184  -1.306  -6.716  0.00  0.00     0.252 C 
ATOM     12  N2  925 d   1     -10.310  -0.510  -7.800  0.00  0.00    -0.352 N 
ATOM     13  H6  925 d   1      -9.504  -0.199  -8.304  0.00  0.00     0.163 HD
ATOM     14  O2  925 d   1     -11.159  -1.651  -6.092  0.00  0.00    -0.268 OA
BRANCH  12  15
ATOM     15  C4  925 d   1     -11.637  -0.120  -8.212  0.00  0.00     0.018 C 
ATOM     16  C3  925 d   1     -12.017   1.179  -7.511  0.00  0.00    -0.009 C 
ATOM     17  C2  925 d   1     -13.362   1.776  -7.940  0.00  0.00     0.163 C 
ATOM     18  H7  925 d   1     -12.060   0.983  -6.429  0.00  0.00     0.040 H 
ATOM     19  H8  925 d   1     -11.232   1.921  -7.719  0.00  0.00     0.040 H 
ATOM     20  N1  925 d   1     -13.262   1.840  -9.403  0.00  0.00    -0.046 N 
ATOM     21  C6  925 d   1     -13.093   0.598 -10.113  0.00  0.00     0.163 C 
ATOM     22  H4  925 d   1     -12.458   2.414  -9.603  0.00  0.00     0.346 HD
ATOM     23  C5  925 d   1     -11.716   0.048  -9.722  0.00  0.00    -0.009 C 
ATOM     24  H11 925 d   1     -11.562  -0.927 -10.206  0.00  0.00     0.040 H 
ATOM     25  H12 925 d   1     -10.936   0.749 -10.053  0.00  0.00     0.040 H 
ATOM     26  H10 925 d   1     -12.345  -0.906  -7.912  0.00  0.00     0.072 H 
BRANCH  17  27
ATOM     27  C1  925 d   1     -13.528   3.209  -7.363  0.00  0.00    -0.039 C 
ATOM     28  H1  925 d   1     -13.602   3.156  -6.267  0.00  0.00     0.031 H 
ATOM     29  H2  925 d   1     -14.442   3.665  -7.771  0.00  0.00     0.031 H 
ATOM     30  H3  925 d   1     -12.657   3.820  -7.642  0.00  0.00     0.031 H 
ENDBRANCH  17  27
BRANCH  17  31
ATOM     31  C28 925 d   1     -14.464   0.936  -7.284  0.00  0.00    -0.039 C 
ATOM     32  H31 925 d   1     -14.379   1.010  -6.190  0.00  0.00     0.031 H 
ATOM     33  H32 925 d   1     -14.355  -0.115  -7.590  0.00  0.00     0.031 H 
ATOM     34  H33 925 d   1     -15.448   1.310  -7.602  0.00  0.00     0.031 H 
ENDBRANCH  17  31
BRANCH  20  35
ATOM     35  O1  925 d   1     -14.406   2.442  -9.991  0.00  0.00    -0.196 OA
ATOM     36  H5  925 d   1     -15.178   1.936  -9.769  0.00  0.00     0.257 HD
ENDBRANCH  20  35
BRANCH  21  37
ATOM     37  C7  925 d   1     -14.169  -0.443  -9.800  0.00  0.00    -0.039 C 
ATOM     38  H14 925 d   1     -13.972  -1.359 -10.377  0.00  0.00     0.031 H 
ATOM     39  H15 925 d   1     -15.157  -0.043 -10.073  0.00  0.00     0.031 H 
ATOM     40  H16 925 d   1     -14.152  -0.676  -8.725  0.00  0.00     0.031 H 
ENDBRANCH  21  37
BRANCH  21  41
ATOM     41  C8  925 d   1     -13.168   0.862 -11.631  0.00  0.00    -0.039 C 
ATOM     42  H17 925 d   1     -13.039  -0.086 -12.175  0.00  0.00     0.031 H 
ATOM     43  H18 925 d   1     -12.371   1.562 -11.921  0.00  0.00     0.031 H 
ATOM     44  H19 925 d   1     -14.147   1.297 -11.880  0.00  0.00     0.031 H 
ENDBRANCH  21  41
ENDBRANCH  12  15
ENDBRANCH   1  11
BRANCH   5  45
ATOM     45  C16 925 d   1      -5.374  -0.399  -6.782  0.00  0.00     0.091 A 
ATOM     46  N5  925 d   1      -4.186  -0.499  -6.247  0.00  0.00    -0.164 NA
ATOM     47  N4  925 d   1      -3.437   0.358  -6.877  0.00  0.00    -0.199 N 
ATOM     48  C18 925 d   1      -4.127   1.058  -7.817  0.00  0.00     0.154 A 
ATOM     49  C21 925 d   1      -2.109   0.585  -6.615  0.00  0.00     0.133 A 
ATOM     50  N3  925 d   1      -3.550   1.999  -8.565  0.00  0.00    -0.241 NA
ATOM     51  C17 925 d   1      -5.381   0.587  -7.773  0.00  0.00    -0.006 A 
ATOM     52  C19 925 d   1      -2.317   2.192  -8.320  0.00  0.00     0.008 A 
ATOM     53  C20 925 d   1      -1.482   1.503  -7.338  0.00  0.00    -0.022 A 
ATOM     54  H25 925 d   1      -1.825   2.962  -8.912  0.00  0.00     0.115 H 
ATOM     55  H26 925 d   1      -0.424   1.727  -7.210  0.00  0.00     0.091 H 
ATOM     56  H24 925 d   1      -6.227   0.905  -8.381  0.00  0.00     0.093 H 
BRANCH  49  57
ATOM     57  N6  925 d   1      -1.602  -0.204  -5.646  0.00  0.00    -0.341 N 
ATOM     58  H13 925 d   1      -2.276  -0.739  -5.080  0.00  0.00     0.167 HD
BRANCH  57  59
ATOM     59  C22 925 d   1      -0.278  -0.361  -5.344  0.00  0.00     0.036 A 
ATOM     60  C23 925 d   1       0.494   0.701  -4.926  0.00  0.00    -0.057 A 
ATOM     61  C24 925 d   1       1.836   0.529  -4.652  0.00  0.00    -0.078 A 
ATOM     62  H27 925 d   1       0.043   1.680  -4.811  0.00  0.00     0.086 H 
ATOM     63  C25 925 d   1       2.443  -0.700  -4.777  0.00  0.00    -0.051 A 
ATOM     64  H28 925 d   1       2.425   1.381  -4.331  0.00  0.00     0.083 H 
ATOM     65  C26 925 d   1       1.693  -1.749  -5.186  0.00  0.00     0.067 A 
ATOM     66  H29 925 d   1       3.496  -0.824  -4.553  0.00  0.00     0.087 H 
ATOM     67  C27 925 d   1       0.341  -1.596  -5.477  0.00  0.00    -0.025 A 
ATOM     68  H30 925 d   1      -0.235  -2.451  -5.811  0.00  0.00     0.091 H 
BRANCH  65  69
ATOM     69  O3  925 d   1       2.327  -2.912  -5.289  0.00  0.00    -0.361 OA
ATOM     70  H9  925 d   1       2.681  -3.154  -4.442  0.00  0.00     0.217 HD
ENDBRANCH  65  69
ENDBRANCH  57  59
ENDBRANCH  49  57
ENDBRANCH   5  45
TORSDOF 11
