REMARK  7 active torsions:
REMARK  status: ('A' for Active; 'I' for Inactive)
REMARK    1  A    between atoms: P_1  and  O5'_4 
REMARK    2  A    between atoms: O5'_4  and  C5'_5 
REMARK    3  A    between atoms: C5'_5  and  C4'_6 
REMARK    4  A    between atoms: C3'_8  and  O3'_9 
REMARK    5  A    between atoms: C2'_10  and  O2'_11 
REMARK    6  A    between atoms: C1'_12  and  N9_13 
REMARK    7  A    between atoms: C2_20  and  N2_21 
ROOT
ATOM      1  C4' 5GP d   1      -4.051  13.638  17.949  0.00  0.00     0.089 C 
ATOM      2  O4' 5GP d   1      -2.768  13.794  17.319  0.00  0.00    -0.353 OA
ATOM      3  C3' 5GP d   1      -5.011  14.455  17.085  0.00  0.00     0.091 C 
ATOM      4  C2' 5GP d   1      -4.131  15.688  16.895  0.00  0.00     0.105 C 
ATOM      5  C1' 5GP d   1      -2.777  15.039  16.598  0.00  0.00     0.139 C 
ATOM      6  H   5GP d   1      -4.026  13.974  18.986  0.00  0.00     0.090 H 
ATOM      7  H   5GP d   1      -5.385  13.990  16.173  0.00  0.00     0.091 H 
ATOM      8  H   5GP d   1      -4.488  16.382  16.134  0.00  0.00     0.093 H 
ATOM      9  H   5GP d   1      -1.956  15.695  16.887  0.00  0.00     0.122 H 
ENDROOT
BRANCH   5  10
ATOM     10  N9  5GP d   1      -2.660  14.746  15.152  0.00  0.00    -0.295 N 
ATOM     11  C8  5GP d   1      -2.853  13.571  14.558  0.00  0.00     0.071 A 
ATOM     12  N7  5GP d   1      -2.632  13.693  13.251  0.00  0.00    -0.234 NA
ATOM     13  H   5GP d   1      -3.147  12.651  15.063  0.00  0.00     0.144 H 
ATOM     14  C5  5GP d   1      -2.297  14.957  13.005  0.00  0.00     0.171 A 
ATOM     15  C6  5GP d   1      -1.954  15.645  11.847  0.00  0.00     0.292 A 
ATOM     16  C4  5GP d   1      -2.314  15.630  14.220  0.00  0.00     0.161 A 
ATOM     17  O6  5GP d   1      -1.922  15.074  10.757  0.00  0.00    -0.265 OA
ATOM     18  N1  5GP d   1      -1.634  17.004  11.944  0.00  0.00    -0.154 N 
ATOM     19  C2  5GP d   1      -1.666  17.629  13.198  0.00  0.00     0.680 A 
ATOM     20  H   5GP d   1      -1.380  17.534  11.111  0.00  0.00     0.187 HD
ATOM     21  N3  5GP d   1      -2.004  16.933  14.293  0.00  0.00    -0.174 N 
ATOM     22  H   5GP d   1      -2.026  17.403  15.198  0.00  0.00     0.186 HD
BRANCH  19  23
ATOM     23  N2  5GP d   1      -1.333  18.912  13.310  0.00  0.00    -0.234 N 
ATOM     24  H   5GP d   1      -1.054  19.441  12.483  0.00  0.00     0.174 HD
ATOM     25  H   5GP d   1      -1.356  19.367  14.223  0.00  0.00     0.174 HD
ENDBRANCH  19  23
ENDBRANCH   5  10
BRANCH   4  26
ATOM     26  O2' 5GP d   1      -4.045  16.424  18.118  0.00  0.00    -0.388 OA
ATOM     27  H   5GP d   1      -3.490  17.196  17.987  0.00  0.00     0.210 HD
ENDBRANCH   4  26
BRANCH   1  28
ATOM     28  C5' 5GP d   1      -4.491  12.174  18.003  0.00  0.00     0.055 C 
ATOM     29  H   5GP d   1      -3.756  11.606  18.573  0.00  0.00     0.079 H 
ATOM     30  H   5GP d   1      -5.472  12.118  18.475  0.00  0.00     0.079 H 
BRANCH  28  31
ATOM     31  O5' 5GP d   1      -4.580  11.623  16.685  0.00  0.00    -0.312 OA
BRANCH  31  32
ATOM     32  P   5GP d   1      -5.186  10.158  16.470  0.00  0.00     0.393 P 
ATOM     33  O1P 5GP d   1      -4.600   9.178  17.420  0.00  0.00    -0.143 OA
ATOM     34  O2P 5GP d   1      -4.880   9.803  15.059  0.00  0.00    -0.143 OA
ENDBRANCH  31  32
ENDBRANCH  28  31
ENDBRANCH   1  28
BRANCH   3  35
ATOM     35  O3' 5GP d   1      -6.147  14.795  17.886  0.00  0.00    -0.390 OA
ATOM     36  H   5GP d   1      -5.860  15.311  18.643  0.00  0.00     0.210 HD
ENDBRANCH   3  35
TORSDOF 7
