REMARK  7 active torsions:
REMARK  status: ('A' for Active; 'I' for Inactive)
REMARK    1  A    between atoms: P_1  and  O5'_4 
REMARK    2  A    between atoms: O5'_4  and  C5'_5 
REMARK    3  A    between atoms: C5'_5  and  C4'_6 
REMARK    4  A    between atoms: C3'_8  and  O3'_9 
REMARK    5  A    between atoms: C2'_10  and  O2'_11 
REMARK    6  A    between atoms: C1'_12  and  N9_13 
REMARK    7  A    between atoms: C2_20  and  N2_21 
ROOT
ATOM      1  C4' 5GP d   1       6.310 -12.180 -10.624  0.00  0.00     0.089 C 
ATOM      2  O4' 5GP d   1       5.114 -12.085  -9.834  0.00  0.00    -0.353 OA
ATOM      3  C3' 5GP d   1       7.307 -12.926  -9.739  0.00  0.00     0.091 C 
ATOM      4  C2' 5GP d   1       7.027 -12.190  -8.430  0.00  0.00     0.105 C 
ATOM      5  C1' 5GP d   1       5.498 -12.138  -8.450  0.00  0.00     0.139 C 
ATOM      6  H4  5GP d   1       6.686 -11.177 -10.876  0.00  0.00     0.090 H 
ATOM      7  H5  5GP d   1       7.134 -14.011  -9.685  0.00  0.00     0.091 H 
ATOM      8  H7  5GP d   1       7.422 -12.724  -7.553  0.00  0.00     0.093 H 
ATOM      9  H9  5GP d   1       5.136 -11.257  -7.901  0.00  0.00     0.122 H 
ENDROOT
BRANCH   5  10
ATOM     10  N9  5GP d   1       4.913 -13.371  -7.884  0.00  0.00    -0.295 N 
ATOM     11  C8  5GP d   1       4.397 -14.402  -8.552  0.00  0.00     0.071 A 
ATOM     12  N7  5GP d   1       3.898 -15.280  -7.684  0.00  0.00    -0.234 NA
ATOM     13  H10 5GP d   1       4.385 -14.509  -9.636  0.00  0.00     0.144 H 
ATOM     14  C5  5GP d   1       4.096 -14.808  -6.454  0.00  0.00     0.171 A 
ATOM     15  C6  5GP d   1       3.739 -15.244  -5.185  0.00  0.00     0.292 A 
ATOM     16  C4  5GP d   1       4.751 -13.590  -6.585  0.00  0.00     0.161 A 
ATOM     17  O6  5GP d   1       3.176 -16.326  -5.024  0.00  0.00    -0.265 OA
ATOM     18  N1  5GP d   1       4.044 -14.443  -4.078  0.00  0.00    -0.154 N 
ATOM     19  C2  5GP d   1       4.714 -13.228  -4.276  0.00  0.00     0.680 A 
ATOM     20  H11 5GP d   1       3.787 -14.734  -3.157  0.00  0.00     0.187 HD
ATOM     21  N3  5GP d   1       5.046 -12.840  -5.514  0.00  0.00    -0.174 N 
ATOM     22  H14 5GP d   1       5.539 -11.945  -5.646  0.00  0.00     0.186 HD
BRANCH  19  23
ATOM     23  N2  5GP d   1       5.044 -12.464  -3.238  0.00  0.00    -0.234 N 
ATOM     24  H12 5GP d   1       5.536 -11.572  -3.391  0.00  0.00     0.174 HD
ATOM     25  H13 5GP d   1       4.807 -12.764  -2.282  0.00  0.00     0.174 HD
ENDBRANCH  19  23
ENDBRANCH   5  10
BRANCH   4  26
ATOM     26  O2' 5GP d   1       7.546 -10.859  -8.492  0.00  0.00    -0.388 OA
ATOM     27  H8  5GP d   1       7.366 -10.412  -7.673  0.00  0.00     0.210 HD
ENDBRANCH   4  26
BRANCH   1  28
ATOM     28  C5' 5GP d   1       6.063 -12.971 -11.909  0.00  0.00     0.056 C 
ATOM     29  H2  5GP d   1       5.290 -12.463 -12.505  0.00  0.00     0.079 H 
ATOM     30  H3  5GP d   1       6.997 -13.023 -12.488  0.00  0.00     0.079 H 
BRANCH  28  31
ATOM     31  O5' 5GP d   1       5.624 -14.299 -11.602  0.00  0.00    -0.311 OA
BRANCH  31  32
ATOM     32  P   5GP d   1       5.486 -15.353 -12.796  0.00  0.00     0.240 P 
ATOM     33  O1P 5GP d   1       4.802 -14.752 -13.969  0.00  0.00    -0.648 OA
ATOM     34  O2P 5GP d   1       4.719 -16.498 -12.246  0.00  0.00    -0.648 OA
ATOM     35  H1  5GP d   1       6.401 -15.664 -13.082  0.00  0.00     0.164 HD
ENDBRANCH  31  32
ENDBRANCH  28  31
ENDBRANCH   1  28
BRANCH   3  36
ATOM     36  O3' 5GP d   1       8.632 -12.623 -10.186  0.00  0.00    -0.390 OA
ATOM     37  H6  5GP d   1       8.780 -11.687 -10.122  0.00  0.00     0.210 HD
ENDBRANCH   3  36
TORSDOF 7
