REMARK  25 active torsions:
REMARK  status: ('A' for Active; 'I' for Inactive)
REMARK    1  A    between atoms: C6_8  and  N3_3 
REMARK       I    between atoms: N3_3  and  C7_10 
REMARK    2  A    between atoms: C4_4  and  C5_6 
REMARK       I    between atoms: N2_14  and  C4_4 
REMARK    3  A    between atoms: C5_6  and  C6_8 
REMARK    4  A    between atoms: C5_6  and  N8_13 
REMARK    5  A    between atoms: C7_10  and  C8_12 
REMARK    6  A    between atoms: C3_15  and  N2_14 
REMARK    7  A    between atoms: C2_16  and  C3_15 
REMARK    8  A    between atoms: C3_15  and  C9_18 
REMARK       I    between atoms: N1_21  and  C2_16 
REMARK    9  A    between atoms: C9_18  and  C10_19 
REMARK   10  A    between atoms: C9_18  and  C11_20 
REMARK   11  A    between atoms: C1_22  and  N1_21 
REMARK   12  A    between atoms: C19_23  and  C1_22 
REMARK   13  A    between atoms: C1_22  and  C12_25 
REMARK       I    between atoms: N9_31  and  C19_23 
REMARK   14  A    between atoms: C12_25  and  C13_26 
REMARK   15  A    between atoms: C13_26  and  C14_27 
REMARK   16  A    between atoms: C13_26  and  C18_28 
REMARK   17  A    between atoms: C20_32  and  O5_29 
REMARK   18  A    between atoms: C21_33  and  N9_31 
REMARK   19  A    between atoms: C20_32  and  C21_33 
REMARK   20  A    between atoms: C20_32  and  C22_34 
REMARK   21  A    between atoms: C29_41  and  C20_32 
REMARK   22  A    between atoms: C22_34  and  C52_42 
REMARK   23  A    between atoms: C52_42  and  C23_35 
REMARK       I    between atoms: N10_52  and  C29_41 
REMARK   24  A    between atoms: C34_46  and  C36_43 
REMARK   25  A    between atoms: C30_48  and  N10_52 
ROOT
ATOM      1  C1  038 d   1      39.937  14.373  42.766  0.00  0.00     0.089 C 
ATOM      2  H19 038 d   1      40.236  13.411  42.324  0.00  0.00     0.087 H 
ENDROOT
BRANCH   1   3
ATOM      3  N1  038 d   1      39.046  15.111  41.858  0.00  0.00    -0.346 N 
ATOM      4  C2  038 d   1      38.291  14.423  40.991  0.00  0.00     0.241 C 
ATOM      5  O3  038 d   1      38.336  13.208  40.921  0.00  0.00    -0.271 OA
ATOM      6  H18 038 d   1      39.004  16.110  41.887  0.00  0.00     0.163 HD
BRANCH   4   7
ATOM      7  C3  038 d   1      37.393  15.173  40.046  0.00  0.00     0.092 C 
ATOM      8  H10 038 d   1      37.753  16.207  39.938  0.00  0.00     0.088 H 
BRANCH   7   9
ATOM      9  N2  038 d   1      37.411  14.509  38.762  0.00  0.00    -0.346 N 
ATOM     10  C4  038 d   1      38.446  14.573  38.028  0.00  0.00     0.250 C 
ATOM     11  O2  038 d   1      39.454  15.217  38.298  0.00  0.00    -0.271 OA
ATOM     12  H9  038 d   1      36.609  13.999  38.452  0.00  0.00     0.163 HD
BRANCH  10  13
ATOM     13  C5  038 d   1      38.430  13.883  36.698  0.00  0.00     0.190 C 
ATOM     14  H3  038 d   1      37.476  14.133  36.211  0.00  0.00     0.101 H 
BRANCH  13  15
ATOM     15  C6  038 d   1      38.515  12.357  36.739  0.00  0.00     0.030 C 
ATOM     16  H4  038 d   1      37.501  11.957  36.889  0.00  0.00     0.068 H 
ATOM     17  H5  038 d   1      38.908  12.006  35.774  0.00  0.00     0.068 H 
BRANCH  15  18
ATOM     18  N3  038 d   1      39.375  11.842  37.801  0.00  0.00    -0.352 N 
ATOM     19  C7  038 d   1      40.695  11.784  37.820  0.00  0.00     0.290 C 
ATOM     20  O1  038 d   1      41.425  12.206  36.947  0.00  0.00    -0.264 OA
ATOM     21  H1  038 d   1      38.908  11.491  38.612  0.00  0.00     0.162 HD
BRANCH  19  22
ATOM     22  C8  038 d   1      41.339  11.201  38.996  0.00  0.00     0.237 A 
ATOM     23  N7  038 d   1      42.665  11.117  39.177  0.00  0.00    -0.235 N 
ATOM     24  N6  038 d   1      42.852  10.492  40.428  0.00  0.00    -0.046 NA
ATOM     25  H2  038 d   1      43.399  11.443  38.532  0.00  0.00     0.193 HD
ATOM     26  N5  038 d   1      41.681  10.211  40.949  0.00  0.00    -0.023 NA
ATOM     27  N4  038 d   1      40.706  10.666  40.056  0.00  0.00    -0.103 NA
ENDBRANCH  19  22
ENDBRANCH  15  18
ENDBRANCH  13  15
BRANCH  13  28
ATOM     28  N8  038 d   1      39.499  14.437  35.907  0.00  0.00    -0.065 N 
ATOM     29  H6  038 d   1      39.422  15.442  35.895  0.00  0.00     0.275 HD
ATOM     30  H7  038 d   1      39.438  14.084  34.965  0.00  0.00     0.275 HD
ATOM     31  H8  038 d   1      40.385  14.173  36.308  0.00  0.00     0.275 HD
ENDBRANCH  13  28
ENDBRANCH  10  13
ENDBRANCH   7   9
BRANCH   7  32
ATOM     32  C9  038 d   1      35.964  15.183  40.566  0.00  0.00    -0.033 C 
ATOM     33  H11 038 d   1      35.328  15.604  39.773  0.00  0.00     0.042 H 
BRANCH  32  34
ATOM     34  C10 038 d   1      35.412  13.787  40.888  0.00  0.00    -0.071 C 
ATOM     35  H12 038 d   1      34.380  13.877  41.257  0.00  0.00     0.028 H 
ATOM     36  H13 038 d   1      36.037  13.315  41.660  0.00  0.00     0.028 H 
ATOM     37  H14 038 d   1      35.424  13.169  39.978  0.00  0.00     0.028 H 
ENDBRANCH  32  34
BRANCH  32  38
ATOM     38  C11 038 d   1      35.878  16.110  41.777  0.00  0.00    -0.071 C 
ATOM     39  H15 038 d   1      36.281  17.099  41.511  0.00  0.00     0.028 H 
ATOM     40  H16 038 d   1      36.464  15.686  42.606  0.00  0.00     0.028 H 
ATOM     41  H17 038 d   1      34.827  16.213  42.086  0.00  0.00     0.028 H 
ENDBRANCH  32  38
ENDBRANCH   7  32
ENDBRANCH   4   7
ENDBRANCH   1   3
BRANCH   1  42
ATOM     42  C19 038 d   1      39.252  14.149  44.061  0.00  0.00     0.240 C 
ATOM     43  O4  038 d   1      38.226  14.768  44.299  0.00  0.00    -0.271 OA
ATOM     44  N9  038 d   1      39.809  13.266  44.888  0.00  0.00    -0.356 N 
ATOM     45  H30 038 d   1      40.621  12.793  44.547  0.00  0.00     0.162 HD
BRANCH  44  46
ATOM     46  C21 038 d   1      39.369  12.906  46.245  0.00  0.00     0.032 C 
ATOM     47  H31 038 d   1      39.192  11.823  46.322  0.00  0.00     0.069 H 
ATOM     48  H32 038 d   1      38.450  13.448  46.513  0.00  0.00     0.069 H 
BRANCH  46  49
ATOM     49  C20 038 d   1      40.538  13.334  47.153  0.00  0.00     0.154 C 
BRANCH  49  50
ATOM     50  O5  038 d   1      41.549  12.369  46.949  0.00  0.00    -0.378 OA
ATOM     51  H29 038 d   1      42.302  12.582  47.488  0.00  0.00     0.211 HD
ENDBRANCH  49  50
BRANCH  49  52
ATOM     52  C22 038 d   1      40.199  13.359  48.645  0.00  0.00    -0.022 C 
ATOM     53  H33 038 d   1      40.009  12.320  48.954  0.00  0.00     0.038 H 
ATOM     54  H34 038 d   1      39.278  13.950  48.760  0.00  0.00     0.038 H 
BRANCH  52  55
ATOM     55  C52 038 d   1      41.239  13.941  49.617  0.00  0.00    -0.038 C 
ATOM     56  H40 038 d   1      41.397  15.007  49.396  0.00  0.00     0.040 H 
ATOM     57  H41 038 d   1      42.190  13.399  49.510  0.00  0.00     0.040 H 
BRANCH  55  58
ATOM     58  C23 038 d   1      40.715  13.783  51.043  0.00  0.00    -0.058 A 
ATOM     59  C24 038 d   1      41.606  13.499  52.106  0.00  0.00    -0.077 A 
ATOM     60  C25 038 d   1      41.119  13.338  53.420  0.00  0.00    -0.082 A 
ATOM     61  H35 038 d   1      42.668  13.405  51.909  0.00  0.00     0.084 H 
ATOM     62  C26 038 d   1      39.736  13.444  53.694  0.00  0.00    -0.083 A 
ATOM     63  H36 038 d   1      41.812  13.131  54.228  0.00  0.00     0.083 H 
ATOM     64  C27 038 d   1      38.839  13.714  52.644  0.00  0.00    -0.082 A 
ATOM     65  H37 038 d   1      39.369  13.318  54.706  0.00  0.00     0.083 H 
ATOM     66  C28 038 d   1      39.332  13.886  51.331  0.00  0.00    -0.077 A 
ATOM     67  H38 038 d   1      37.776  13.790  52.841  0.00  0.00     0.083 H 
ATOM     68  H39 038 d   1      38.637  14.101  50.527  0.00  0.00     0.084 H 
ENDBRANCH  55  58
ENDBRANCH  52  55
ENDBRANCH  49  52
BRANCH  49  69
ATOM     69  C29 038 d   1      41.152  14.654  46.787  0.00  0.00     0.258 C 
ATOM     70  O6  038 d   1      40.516  15.684  46.888  0.00  0.00    -0.270 OA
ATOM     71  N10 038 d   1      42.415  14.611  46.394  0.00  0.00    -0.325 N 
ATOM     72  H46 038 d   1      42.845  13.711  46.319  0.00  0.00     0.169 HD
BRANCH  71  73
ATOM     73  C30 038 d   1      43.166  15.688  46.087  0.00  0.00     0.035 A 
ATOM     74  C33 038 d   1      42.667  16.992  46.113  0.00  0.00    -0.041 A 
ATOM     75  C34 038 d   1      43.513  18.044  45.695  0.00  0.00     0.043 A 
ATOM     76  H42 038 d   1      41.655  17.192  46.446  0.00  0.00     0.088 H 
ATOM     77  C35 038 d   1      44.836  17.807  45.276  0.00  0.00    -0.066 A 
ATOM     78  C32 038 d   1      45.327  16.483  45.260  0.00  0.00    -0.080 A 
ATOM     79  H45 038 d   1      45.470  18.631  44.969  0.00  0.00     0.085 H 
ATOM     80  C31 038 d   1      44.480  15.449  45.665  0.00  0.00    -0.057 A 
ATOM     81  H44 038 d   1      46.341  16.273  44.940  0.00  0.00     0.083 H 
ATOM     82  H43 038 d   1      44.851  14.431  45.652  0.00  0.00     0.086 H 
BRANCH  75  83
ATOM     83  C36 038 d   1      43.017  19.461  45.735  0.00  0.00     0.209 C 
ATOM     84  O8  038 d   1      41.971  19.725  46.415  0.00  0.00    -0.644 OA
ATOM     85  O7  038 d   1      43.667  20.345  45.111  0.00  0.00    -0.644 OA
ENDBRANCH  75  83
ENDBRANCH  71  73
ENDBRANCH  49  69
ENDBRANCH  46  49
ENDBRANCH  44  46
ENDBRANCH   1  42
BRANCH   1  86
ATOM     86  C12 038 d   1      41.146  15.266  42.985  0.00  0.00    -0.035 C 
ATOM     87  H20 038 d   1      41.807  14.797  43.728  0.00  0.00     0.037 H 
ATOM     88  H21 038 d   1      40.807  16.243  43.360  0.00  0.00     0.037 H 
BRANCH  86  89
ATOM     89  C13 038 d   1      41.925  15.475  41.688  0.00  0.00    -0.059 C 
ATOM     90  H22 038 d   1      41.217  15.809  40.915  0.00  0.00     0.038 H 
BRANCH  89  91
ATOM     91  C14 038 d   1      42.576  14.179  41.193  0.00  0.00    -0.073 C 
ATOM     92  H23 038 d   1      43.124  14.377  40.260  0.00  0.00     0.028 H 
ATOM     93  H24 038 d   1      41.797  13.425  41.008  0.00  0.00     0.028 H 
ATOM     94  H25 038 d   1      43.274  13.805  41.956  0.00  0.00     0.028 H 
ENDBRANCH  89  91
BRANCH  89  95
ATOM     95  C18 038 d   1      42.958  16.569  41.890  0.00  0.00    -0.073 C 
ATOM     96  H26 038 d   1      42.459  17.483  42.245  0.00  0.00     0.028 H 
ATOM     97  H27 038 d   1      43.466  16.775  40.936  0.00  0.00     0.028 H 
ATOM     98  H28 038 d   1      43.697  16.242  42.636  0.00  0.00     0.028 H 
ENDBRANCH  89  95
ENDBRANCH  86  89
ENDBRANCH   1  86
TORSDOF 25
