REMARK WARNING: 32 MAX_TORS EXCEEDED!!!
REMARK  34 active torsions:
REMARK  status: ('A' for Active; 'I' for Inactive)
REMARK    1  A    between atoms: N_1  and  CA_2 
REMARK    2  A    between atoms: CA_2  and  C_3 
REMARK    3  A    between atoms: CA_2  and  CB_5 
REMARK       I    between atoms: C_3  and  N_6 
REMARK    4  A    between atoms: N_6  and  CA_7 
REMARK    5  A    between atoms: CA_7  and  C_8 
REMARK    6  A    between atoms: CA_7  and  CB_10 
REMARK       I    between atoms: C_8  and  N_17 
REMARK    7  A    between atoms: CB_10  and  CG_11 
REMARK    8  A    between atoms: CG_11  and  CD_12 
REMARK    9  A    between atoms: CD_12  and  NE_13 
REMARK       I    between atoms: NE_13  and  CZ_14 
REMARK       I    between atoms: CZ_14  and  NH1_15 
REMARK   10  A    between atoms: N_17  and  CA_18 
REMARK   11  A    between atoms: CA_18  and  C_19 
REMARK   12  A    between atoms: CA_18  and  CB_21 
REMARK       I    between atoms: C_19  and  N_26 
REMARK   13  A    between atoms: CB_21  and  CG_22 
REMARK   14  A    between atoms: CG_22  and  CD_23 
REMARK   15  A    between atoms: CD_23  and  CE_24 
REMARK   16  A    between atoms: CE_24  and  NZ_25 
REMARK   17  A    between atoms: N_26  and  CA_27 
REMARK   18  A    between atoms: CA_27  and  C_28 
REMARK   19  A    between atoms: CA_27  and  CB_30 
REMARK       I    between atoms: C_28  and  N_35 
REMARK   20  A    between atoms: CB_30  and  CG_31 
REMARK   21  A    between atoms: CG_31  and  CD_32 
REMARK   22  A    between atoms: N_35  and  CA_36 
REMARK   23  A    between atoms: CA_36  and  C_37 
REMARK   24  A    between atoms: CA_36  and  CB_39 
REMARK       I    between atoms: C_37  and  N_47 
REMARK   25  A    between atoms: CB_39  and  CG_40 
REMARK   26  A    between atoms: CZ_45  and  OH_46 
REMARK   27  A    between atoms: N_47  and  CA_48 
REMARK   28  A    between atoms: CA_48  and  C_49 
REMARK   29  A    between atoms: CA_48  and  CB_51 
REMARK       I    between atoms: C_49  and  N_59 
REMARK   30  A    between atoms: CB_51  and  CG_52 
REMARK   31  A    between atoms: CZ_57  and  OH_58 
REMARK   32  A    between atoms: N_59  and  CA_60 
REMARK   33  A    between atoms: CA_60  and  C_61 
REMARK   34  A    between atoms: CA_60  and  CB_63 
ROOT
ATOM      1  CA  GLU d   1       1.845  12.143   2.718  0.00  0.00     0.090 C 
ATOM      2  H   GLU d   1       0.934  12.707   2.921  0.00  0.00     0.087 H 
ENDROOT
BRANCH   1   3
ATOM      3  N   GLU d   1       2.872  13.034   2.206  0.00  0.00    -0.346 N 
ATOM      4  C   LYS d   1       2.725  14.353   2.199  0.00  0.00     0.241 C 
ATOM      5  O   LYS d   1       1.702  14.923   2.582  0.00  0.00    -0.271 OA
ATOM      6  H   GLU d   1       3.735  12.632   1.840  0.00  0.00     0.163 HD
BRANCH   4   7
ATOM      7  CA  LYS d   1       3.910  15.144   1.673  0.00  0.00     0.089 C 
ATOM      8  H   LYS d   1       4.407  14.551   0.905  0.00  0.00     0.087 H 
BRANCH   7   9
ATOM      9  N   LYS d   1       3.476  16.389   1.056  0.00  0.00    -0.346 N 
ATOM     10  C   ARG d   1       3.952  16.763  -0.127  0.00  0.00     0.241 C 
ATOM     11  O   ARG d   1       4.818  16.122  -0.728  0.00  0.00    -0.271 OA
ATOM     12  H   LYS d   1       2.799  16.981   1.537  0.00  0.00     0.163 HD
BRANCH  10  13
ATOM     13  CA  ARG d   1       3.382  18.046  -0.720  0.00  0.00     0.089 C 
ATOM     14  H   ARG d   1       2.745  18.541   0.013  0.00  0.00     0.087 H 
BRANCH  13  15
ATOM     15  N   ARG d   1       4.483  18.920  -1.087  0.00  0.00    -0.346 N 
ATOM     16  C   SER d   1       4.386  20.242  -1.041  0.00  0.00     0.248 C 
ATOM     17  O   SER d   1       3.415  20.833  -0.569  0.00  0.00    -0.271 OA
ATOM     18  H   ARG d   1       5.362  18.502  -1.391  0.00  0.00     0.163 HD
BRANCH  16  19
ATOM     19  CA  SER d   1       5.575  21.010  -1.607  0.00  0.00     0.172 C 
ATOM     20  H   SER d   1       6.343  20.291  -1.894  0.00  0.00     0.098 H 
BRANCH  19  21
ATOM     21  N   SER d   1       5.188  21.758  -2.799  0.00  0.00    -0.067 N 
ATOM     22  H   SER d   1       4.801  21.116  -3.491  0.00  0.00     0.275 HD
ATOM     23  H   SER d   1       4.486  22.454  -2.549  0.00  0.00     0.275 HD
ATOM     24  H   SER d   1       6.008  22.224  -3.187  0.00  0.00     0.275 HD
ENDBRANCH  19  21
BRANCH  19  25
ATOM     25  CB  SER d   1       6.161  21.945  -0.547  0.00  0.00    -0.042 C 
ATOM     26  H   SER d   1       5.398  22.655  -0.229  0.00  0.00     0.030 H 
ATOM     27  H   SER d   1       6.492  21.358   0.310  0.00  0.00     0.030 H 
ATOM     28  H   SER d   1       7.009  22.485  -0.969  0.00  0.00     0.030 H 
ENDBRANCH  19  25
ENDBRANCH  16  19
ENDBRANCH  13  15
BRANCH  13  29
ATOM     29  CB  ARG d   1       2.544  17.719  -1.959  0.00  0.00    -0.036 C 
ATOM     30  H   ARG d   1       3.101  16.979  -2.534  0.00  0.00     0.036 H 
ATOM     31  H   ARG d   1       2.367  18.659  -2.481  0.00  0.00     0.036 H 
BRANCH  29  32
ATOM     32  CG  ARG d   1       1.180  17.114  -1.659  0.00  0.00    -0.048 C 
ATOM     33  H   ARG d   1       0.475  17.922  -1.463  0.00  0.00     0.035 H 
ATOM     34  H   ARG d   1       1.272  16.457  -0.794  0.00  0.00     0.035 H 
BRANCH  32  35
ATOM     35  CD  ARG d   1       0.673  16.299  -2.840  0.00  0.00     0.009 C 
ATOM     36  H   ARG d   1       1.415  15.531  -3.059  0.00  0.00     0.064 H 
ATOM     37  H   ARG d   1       0.514  16.983  -3.674  0.00  0.00     0.064 H 
BRANCH  35  38
ATOM     38  NE  ARG d   1      -0.597  15.628  -2.562  0.00  0.00    -0.227 N 
ATOM     39  CZ  ARG d   1      -0.733  14.599  -1.731  0.00  0.00     0.665 C 
ATOM     40  NH1 ARG d   1       0.321  14.127  -1.071  0.00  0.00    -0.235 N 
ATOM     41  NH2 ARG d   1      -1.924  14.049  -1.547  0.00  0.00    -0.235 N 
ATOM     42  H   ARG d   1       1.238  14.555  -1.202  0.00  0.00     0.174 HD
ATOM     43  H   ARG d   1       0.212  13.338  -0.434  0.00  0.00     0.174 HD
ATOM     44  H   ARG d   1      -2.737  14.415  -2.043  0.00  0.00     0.174 HD
ATOM     45  H   ARG d   1      -2.028  13.260  -0.909  0.00  0.00     0.174 HD
ATOM     46  H   ARG d   1      -1.432  15.972  -3.036  0.00  0.00     0.177 HD
ENDBRANCH  35  38
ENDBRANCH  32  35
ENDBRANCH  29  32
ENDBRANCH  13  29
ENDBRANCH  10  13
ENDBRANCH   7   9
BRANCH   7  47
ATOM     47  CB  LYS d   1       4.905  15.413   2.802  0.00  0.00    -0.038 C 
ATOM     48  H   LYS d   1       4.965  14.505   3.401  0.00  0.00     0.036 H 
ATOM     49  H   LYS d   1       4.544  16.285   3.348  0.00  0.00     0.036 H 
BRANCH  47  50
ATOM     50  CG  LYS d   1       6.309  15.731   2.328  0.00  0.00    -0.061 C 
ATOM     51  H   LYS d   1       6.903  16.047   3.186  0.00  0.00     0.033 H 
ATOM     52  H   LYS d   1       6.253  16.518   1.576  0.00  0.00     0.033 H 
BRANCH  50  53
ATOM     53  CD  LYS d   1       6.967  14.511   1.705  0.00  0.00    -0.043 C 
ATOM     54  H   LYS d   1       6.523  14.336   0.725  0.00  0.00     0.035 H 
ATOM     55  H   LYS d   1       6.811  13.656   2.363  0.00  0.00     0.035 H 
BRANCH  53  56
ATOM     56  CE  LYS d   1       8.463  14.727   1.531  0.00  0.00     0.080 C 
ATOM     57  H   LYS d   1       8.876  13.856   1.022  0.00  0.00     0.075 H 
ATOM     58  H   LYS d   1       8.904  14.870   2.518  0.00  0.00     0.075 H 
BRANCH  56  59
ATOM     59  NZ  LYS d   1       8.760  15.930   0.710  0.00  0.00    -0.079 N 
ATOM     60  H   LYS d   1       9.770  16.037   0.619  0.00  0.00     0.274 HD
ATOM     61  H   LYS d   1       8.344  15.820  -0.215  0.00  0.00     0.274 HD
ATOM     62  H   LYS d   1       8.369  16.755   1.165  0.00  0.00     0.274 HD
ENDBRANCH  56  59
ENDBRANCH  53  56
ENDBRANCH  50  53
ENDBRANCH  47  50
ENDBRANCH   7  47
ENDBRANCH   4   7
ENDBRANCH   1   3
BRANCH   1  63
ATOM     63  C   GLU d   1       2.334  11.511   4.020  0.00  0.00     0.241 C 
ATOM     64  O   GLU d   1       3.507  11.132   4.137  0.00  0.00    -0.271 OA
ATOM     65  N   TYR d   1       1.450  11.424   5.009  0.00  0.00    -0.346 N 
ATOM     66  H   TYR d   1       0.505  11.780   4.867  0.00  0.00     0.163 HD
BRANCH  65  67
ATOM     67  CA  TYR d   1       1.806  10.828   6.295  0.00  0.00     0.093 C 
ATOM     68  H   TYR d   1       2.782  10.359   6.173  0.00  0.00     0.088 H 
BRANCH  67  69
ATOM     69  C   TYR d   1       0.781   9.786   6.706  0.00  0.00     0.241 C 
ATOM     70  O   TYR d   1      -0.420  10.044   6.670  0.00  0.00    -0.271 OA
ATOM     71  N   TYR d   1       1.259   8.614   7.109  0.00  0.00    -0.346 N 
ATOM     72  H   TYR d   1       2.265   8.448   7.090  0.00  0.00     0.163 HD
BRANCH  71  73
ATOM     73  CA  TYR d   1       0.366   7.563   7.578  0.00  0.00     0.093 C 
ATOM     74  H   TYR d   1      -0.666   7.830   7.352  0.00  0.00     0.088 H 
BRANCH  73  75
ATOM     75  C   TYR d   1       0.463   7.417   9.091  0.00  0.00     0.241 C 
ATOM     76  O   TYR d   1       1.545   7.534   9.663  0.00  0.00    -0.271 OA
ATOM     77  N   ALA d   1      -0.676   7.190   9.737  0.00  0.00    -0.345 N 
ATOM     78  H   ALA d   1      -1.530   7.040   9.199  0.00  0.00     0.163 HD
BRANCH  77  79
ATOM     79  CA  ALA d   1      -0.739   7.149  11.191  0.00  0.00     0.093 C 
ATOM     80  H   ALA d   1       0.280   7.039  11.563  0.00  0.00     0.089 H 
BRANCH  79  81
ATOM     81  C   ALA d   1      -1.537   5.951  11.690  0.00  0.00     0.196 C 
ATOM     82  O   ALA d   1      -2.361   5.425  10.936  0.00  0.00    -0.646 OA
ATOM     83  OXT ALA d   1      -1.372   5.496  12.840  0.00  0.00    -0.646 OA
ENDBRANCH  79  81
BRANCH  79  84
ATOM     84  CB  ALA d   1      -1.329   8.451  11.733  0.00  0.00    -0.048 C 
ATOM     85  H   ALA d   1      -0.702   9.288  11.427  0.00  0.00     0.030 H 
ATOM     86  H   ALA d   1      -2.335   8.585  11.336  0.00  0.00     0.030 H 
ATOM     87  H   ALA d   1      -1.369   8.405  12.821  0.00  0.00     0.030 H 
ENDBRANCH  79  84
ENDBRANCH  77  79
ENDBRANCH  73  75
BRANCH  73  88
ATOM     88  CB  TYR d   1       0.681   6.259   6.847  0.00  0.00    -0.014 C 
ATOM     89  H   TYR d   1      -0.050   5.504   7.137  0.00  0.00     0.043 H 
ATOM     90  H   TYR d   1       1.687   5.937   7.114  0.00  0.00     0.043 H 
BRANCH  88  91
ATOM     91  CG  TYR d   1       0.611   6.462   5.353  0.00  0.00    -0.056 A 
ATOM     92  CD1 TYR d   1       1.738   6.835   4.630  0.00  0.00    -0.074 A 
ATOM     93  CE1 TYR d   1       1.677   7.043   3.265  0.00  0.00    -0.051 A 
ATOM     94  H   TYR d   1       2.688   6.966   5.149  0.00  0.00     0.084 H 
ATOM     95  CZ  TYR d   1       0.474   6.896   2.604  0.00  0.00     0.065 A 
ATOM     96  H   TYR d   1       2.575   7.322   2.713  0.00  0.00     0.087 H 
ATOM     97  CE2 TYR d   1      -0.665   6.541   3.300  0.00  0.00    -0.051 A 
ATOM     98  CD2 TYR d   1      -0.592   6.332   4.671  0.00  0.00    -0.074 A 
ATOM     99  H   TYR d   1      -1.614   6.426   2.777  0.00  0.00     0.087 H 
ATOM    100  H   TYR d   1      -1.494   6.061   5.221  0.00  0.00     0.084 H 
BRANCH  95 101
ATOM    101  OH  TYR d   1       0.420   7.109   1.242  0.00  0.00    -0.361 OA
ATOM    102  H   TYR d   1       1.293   7.346   0.921  0.00  0.00     0.217 HD
ENDBRANCH  95 101
ENDBRANCH  88  91
ENDBRANCH  73  88
ENDBRANCH  71  73
ENDBRANCH  67  69
BRANCH  67 103
ATOM    103  CB  TYR d   1       1.889  11.895   7.398  0.00  0.00    -0.014 C 
ATOM    104  H   TYR d   1       2.171  11.380   8.316  0.00  0.00     0.043 H 
ATOM    105  H   TYR d   1       0.919  12.391   7.433  0.00  0.00     0.043 H 
BRANCH 103 106
ATOM    106  CG  TYR d   1       2.919  12.965   7.162  0.00  0.00    -0.056 A 
ATOM    107  CD1 TYR d   1       4.197  12.860   7.705  0.00  0.00    -0.074 A 
ATOM    108  CE1 TYR d   1       5.143  13.838   7.491  0.00  0.00    -0.051 A 
ATOM    109  H   TYR d   1       4.453  11.990   8.309  0.00  0.00     0.084 H 
ATOM    110  CZ  TYR d   1       4.821  14.946   6.738  0.00  0.00     0.065 A 
ATOM    111  H   TYR d   1       6.142  13.736   7.915  0.00  0.00     0.087 H 
ATOM    112  CE2 TYR d   1       3.559  15.081   6.195  0.00  0.00    -0.051 A 
ATOM    113  CD2 TYR d   1       2.615  14.093   6.412  0.00  0.00    -0.074 A 
ATOM    114  H   TYR d   1       3.308  15.959   5.600  0.00  0.00     0.087 H 
ATOM    115  H   TYR d   1       1.617  14.202   5.987  0.00  0.00     0.084 H 
BRANCH 110 116
ATOM    116  OH  TYR d   1       5.760  15.929   6.527  0.00  0.00    -0.361 OA
ATOM    117  H   TYR d   1       6.579  15.688   6.966  0.00  0.00     0.217 HD
ENDBRANCH 110 116
ENDBRANCH 103 106
ENDBRANCH  67 103
ENDBRANCH  65  67
ENDBRANCH   1  63
BRANCH   1 118
ATOM    118  CB  GLU d   1       1.509  11.070   1.676  0.00  0.00    -0.029 C 
ATOM    119  H   GLU d   1       2.394  10.444   1.566  0.00  0.00     0.037 H 
ATOM    120  H   GLU d   1       1.208  11.591   0.767  0.00  0.00     0.037 H 
BRANCH 118 121
ATOM    121  CG  GLU d   1       0.362  10.153   2.063  0.00  0.00     0.018 C 
ATOM    122  H   GLU d   1       0.550   9.790   3.074  0.00  0.00     0.049 H 
ATOM    123  H   GLU d   1       0.315   9.348   1.329  0.00  0.00     0.049 H 
BRANCH 121 124
ATOM    124  CD  GLU d   1      -0.980  10.862   2.064  0.00  0.00     0.172 C 
ATOM    125  OE1 GLU d   1      -1.106  11.907   1.385  0.00  0.00    -0.648 OA
ATOM    126  OE2 GLU d   1      -1.914  10.376   2.749  0.00  0.00    -0.648 OA
ENDBRANCH 121 124
ENDBRANCH 118 121
ENDBRANCH   1 118
TORSDOF 34
