REMARK  7 active torsions:
REMARK  status: ('A' for Active; 'I' for Inactive)
REMARK    1  A    between atoms: O33_33  and  C1_1 
REMARK    2  A    between atoms: C21_21  and  C15_15 
REMARK    3  A    between atoms: C18_18  and  C17_17 
REMARK    4  A    between atoms: S36_36  and  C20_20 
REMARK    5  A    between atoms: N30_30  and  C23_23 
REMARK    6  A    between atoms: C25_25  and  O33_33 
REMARK    7  A    between atoms: N30_30  and  S36_36 
ROOT
ATOM      1  C12 ZIG d   1      26.013  14.092  20.749  0.00  0.00    -0.040 A 
ATOM      2  C14 ZIG d   1      26.867  13.266  22.788  0.00  0.00     0.016 A 
ATOM      3  C21 ZIG d   1      25.794  13.719  22.057  0.00  0.00    -0.006 A 
ATOM      4  C23 ZIG d   1      27.296  13.997  20.265  0.00  0.00     0.096 A 
ATOM      5  C25 ZIG d   1      28.289  13.521  21.081  0.00  0.00     0.191 A 
ATOM      6  N28 ZIG d   1      28.119  13.150  22.349  0.00  0.00    -0.234 NA
ATOM      7  H   ZIG d   1      25.198  14.450  20.120  0.00  0.00     0.088 H 
ATOM      8  H   ZIG d   1      26.675  12.975  23.821  0.00  0.00     0.116 H 
ENDROOT
BRANCH   3   9
ATOM      9  C15 ZIG d   1      24.488  13.734  22.657  0.00  0.00    -0.024 A 
ATOM     10  C2  ZIG d   1      24.162  12.662  23.447  0.00  0.00    -0.070 A 
ATOM     11  C4  ZIG d   1      22.923  12.564  24.021  0.00  0.00    -0.053 A 
ATOM     12  H   ZIG d   1      24.899  11.878  23.620  0.00  0.00     0.084 H 
ATOM     13  C19 ZIG d   1      21.968  13.531  23.837  0.00  0.00     0.067 A 
ATOM     14  H   ZIG d   1      22.690  11.697  24.639  0.00  0.00     0.087 H 
ATOM     15  C22 ZIG d   1      22.297  14.619  23.051  0.00  0.00     0.005 A 
ATOM     16  N26 ZIG d   1      20.781  13.373  24.426  0.00  0.00    -0.260 NA
ATOM     17  C10 ZIG d   1      23.542  14.715  22.462  0.00  0.00    -0.059 A 
ATOM     18  C18 ZIG d   1      21.345  15.599  22.854  0.00  0.00    -0.010 A 
ATOM     19  H   ZIG d   1      23.778  15.576  21.837  0.00  0.00     0.086 H 
ATOM     20  C7  ZIG d   1      20.121  15.445  23.458  0.00  0.00    -0.054 A 
ATOM     21  C9  ZIG d   1      19.887  14.334  24.222  0.00  0.00     0.004 A 
ATOM     22  H   ZIG d   1      19.345  16.199  23.330  0.00  0.00     0.087 H 
ATOM     23  H   ZIG d   1      18.909  14.232  24.691  0.00  0.00     0.114 H 
BRANCH  18  24
ATOM     24  C17 ZIG d   1      21.543  16.783  22.063  0.00  0.00    -0.004 A 
ATOM     25  C6  ZIG d   1      20.674  17.129  21.065  0.00  0.00    -0.052 A 
ATOM     26  C8  ZIG d   1      20.972  18.298  20.416  0.00  0.00     0.025 A 
ATOM     27  H   ZIG d   1      19.808  16.520  20.805  0.00  0.00     0.087 H 
ATOM     28  N27 ZIG d   1      22.003  19.108  20.672  0.00  0.00    -0.163 NA
ATOM     29  H   ZIG d   1      20.301  18.597  19.611  0.00  0.00     0.117 H 
ATOM     30  N29 ZIG d   1      22.797  18.791  21.589  0.00  0.00    -0.162 NA
ATOM     31  C13 ZIG d   1      22.574  17.660  22.264  0.00  0.00     0.034 A 
ATOM     32  H   ZIG d   1      23.284  17.411  23.053  0.00  0.00     0.118 H 
ENDBRANCH  18  24
ENDBRANCH   3   9
BRANCH   4  33
ATOM     33  N30 ZIG d   1      27.641  14.351  18.925  0.00  0.00    -0.276 N 
ATOM     34  H   ZIG d   1      28.395  13.881  18.424  0.00  0.00     0.179 HD
BRANCH  33  35
ATOM     35  S36 ZIG d   1      26.726  15.602  18.202  0.00  0.00     0.266 S 
ATOM     36  O31 ZIG d   1      27.353  15.977  16.949  0.00  0.00    -0.200 OA
ATOM     37  O32 ZIG d   1      25.316  15.291  18.289  0.00  0.00    -0.200 OA
BRANCH  35  38
ATOM     38  C20 ZIG d   1      27.057  16.946  19.295  0.00  0.00     0.118 A 
ATOM     39  C5  ZIG d   1      28.343  17.154  19.731  0.00  0.00    -0.054 A 
ATOM     40  C3  ZIG d   1      28.574  18.213  20.581  0.00  0.00    -0.044 A 
ATOM     41  H   ZIG d   1      29.156  16.501  19.414  0.00  0.00     0.086 H 
ATOM     42  C16 ZIG d   1      27.531  19.024  20.967  0.00  0.00     0.119 A 
ATOM     43  H   ZIG d   1      29.582  18.409  20.948  0.00  0.00     0.088 H 
ATOM     44  C11 ZIG d   1      26.246  18.808  20.524  0.00  0.00    -0.007 A 
ATOM     45  F34 ZIG d   1      27.772  20.050  21.796  0.00  0.00    -0.206 F 
ATOM     46  C24 ZIG d   1      26.016  17.753  19.675  0.00  0.00     0.142 A 
ATOM     47  H   ZIG d   1      25.430  19.459  20.839  0.00  0.00     0.093 H 
ATOM     48  F35 ZIG d   1      24.782  17.503  19.215  0.00  0.00    -0.204 F 
ENDBRANCH  35  38
ENDBRANCH  33  35
ENDBRANCH   4  33
BRANCH   5  49
ATOM     49  O33 ZIG d   1      29.559  13.438  20.548  0.00  0.00    -0.338 OA
BRANCH  49  50
ATOM     50  C1  ZIG d   1      29.856  12.053  20.547  0.00  0.00     0.012 C 
ATOM     51  H   ZIG d   1      29.819  11.674  21.568  0.00  0.00     0.067 H 
ATOM     52  H   ZIG d   1      29.124  11.526  19.935  0.00  0.00     0.067 H 
ATOM     53  H   ZIG d   1      30.854  11.897  20.137  0.00  0.00     0.067 H 
ENDBRANCH  49  50
ENDBRANCH   5  49
TORSDOF 7
