REMARK  10 active torsions:
REMARK  status: ('A' for Active; 'I' for Inactive)
REMARK    1  A    between atoms: N1_3  and  C1_1 
REMARK    2  A    between atoms: S1_5  and  C3_11 
REMARK    3  A    between atoms: N3_12  and  S1_5 
REMARK    4  A    between atoms: C16_27  and  S2_10 
REMARK    5  A    between atoms: S2_10  and  C18_29 
REMARK    6  A    between atoms: N3_12  and  C5_16 
REMARK    7  A    between atoms: C19_30  and  N3_12 
REMARK    8  A    between atoms: C5_16  and  C6_17 
REMARK    9  A    between atoms: C9_20  and  C12_23 
REMARK   10  A    between atoms: C20_31  and  C19_30 
ROOT
ATOM      1  C5  G58 d   1      12.459 -35.304  -3.368  0.00  0.00     0.029 C 
ATOM      2  H6  G58 d   1      12.524 -34.961  -4.411  0.00  0.00     0.072 H 
ATOM      3  H7  G58 d   1      11.406 -35.485  -3.107  0.00  0.00     0.072 H 
ENDROOT
BRANCH   1   4
ATOM      4  N3  G58 d   1      12.963 -34.207  -2.495  0.00  0.00    -0.297 N 
BRANCH   4   5
ATOM      5  S1  G58 d   1      11.648 -33.301  -1.766  0.00  0.00     0.280 S 
ATOM      6  O1  G58 d   1      12.166 -32.375  -0.768  0.00  0.00    -0.199 OA
ATOM      7  O2  G58 d   1      10.520 -34.159  -1.457  0.00  0.00    -0.199 OA
BRANCH   5   8
ATOM      8  C3  G58 d   1      10.911 -32.302  -2.992  0.00  0.00     0.188 A 
ATOM      9  N2  G58 d   1      10.222 -32.843  -4.052  0.00  0.00    -0.229 NA
ATOM     10  C2  G58 d   1       9.828 -31.805  -4.752  0.00  0.00     0.067 A 
ATOM     11  N1  G58 d   1      10.233 -30.634  -4.175  0.00  0.00    -0.353 N 
ATOM     12  H4  G58 d   1       9.252 -31.869  -5.674  0.00  0.00     0.143 H 
ATOM     13  C4  G58 d   1      10.931 -30.926  -3.042  0.00  0.00     0.021 A 
ATOM     14  H5  G58 d   1      11.395 -30.234  -2.341  0.00  0.00     0.116 H 
BRANCH  11  15
ATOM     15  C1  G58 d   1       9.975 -29.305  -4.691  0.00  0.00    -0.014 C 
ATOM     16  H1  G58 d   1       9.388 -29.379  -5.618  0.00  0.00     0.057 H 
ATOM     17  H2  G58 d   1      10.930 -28.801  -4.901  0.00  0.00     0.057 H 
ATOM     18  H3  G58 d   1       9.411 -28.725  -3.946  0.00  0.00     0.057 H 
ENDBRANCH  11  15
ENDBRANCH   5   8
ENDBRANCH   4   5
BRANCH   4  19
ATOM     19  C19 G58 d   1      14.188 -33.504  -3.099  0.00  0.00     0.034 C 
ATOM     20  H19 G58 d   1      14.420 -32.629  -2.474  0.00  0.00     0.072 H 
ATOM     21  H20 G58 d   1      13.922 -33.170  -4.113  0.00  0.00     0.072 H 
BRANCH  19  22
ATOM     22  C20 G58 d   1      15.454 -34.361  -3.200  0.00  0.00     0.021 A 
ATOM     23  C21 G58 d   1      15.841 -34.986  -4.371  0.00  0.00     0.126 A 
ATOM     24  F1  G58 d   1      15.108 -34.839  -5.483  0.00  0.00    -0.205 F 
ATOM     25  C22 G58 d   1      16.967 -35.781  -4.442  0.00  0.00    -0.045 A 
ATOM     26  C23 G58 d   1      17.759 -35.974  -3.333  0.00  0.00    -0.078 A 
ATOM     27  H21 G58 d   1      17.230 -36.258  -5.379  0.00  0.00     0.088 H 
ATOM     28  C24 G58 d   1      17.410 -35.363  -2.157  0.00  0.00    -0.061 A 
ATOM     29  H22 G58 d   1      18.643 -36.598  -3.389  0.00  0.00     0.083 H 
ATOM     30  C25 G58 d   1      16.277 -34.581  -2.112  0.00  0.00     0.045 A 
ATOM     31  H23 G58 d   1      18.020 -35.494  -1.270  0.00  0.00     0.086 H 
ATOM     32 CL1  G58 d   1      15.884 -33.854  -0.603  0.00  0.00    -0.084 Cl
ENDBRANCH  19  22
ENDBRANCH   4  19
ENDBRANCH   1   4
BRANCH   1  33
ATOM     33  C6  G58 d   1      13.182 -36.604  -3.270  0.00  0.00    -0.040 A 
ATOM     34  C7  G58 d   1      13.901 -36.992  -2.160  0.00  0.00    -0.074 A 
ATOM     35  C8  G58 d   1      14.553 -38.203  -2.141  0.00  0.00    -0.072 A 
ATOM     36  H8  G58 d   1      13.953 -36.339  -1.296  0.00  0.00     0.084 H 
ATOM     37  C9  G58 d   1      14.490 -39.046  -3.225  0.00  0.00    -0.026 A 
ATOM     38  H9  G58 d   1      15.121 -38.495  -1.265  0.00  0.00     0.084 H 
ATOM     39  C10 G58 d   1      13.764 -38.652  -4.326  0.00  0.00    -0.072 A 
ATOM     40  C11 G58 d   1      13.118 -37.441  -4.354  0.00  0.00    -0.074 A 
ATOM     41  H10 G58 d   1      13.701 -39.309  -5.186  0.00  0.00     0.084 H 
ATOM     42  H11 G58 d   1      12.557 -37.146  -5.234  0.00  0.00     0.084 H 
BRANCH  37  43
ATOM     43  C12 G58 d   1      15.145 -40.335  -3.239  0.00  0.00    -0.025 A 
ATOM     44  C13 G58 d   1      16.441 -40.517  -2.806  0.00  0.00    -0.072 A 
ATOM     45  C14 G58 d   1      17.030 -41.763  -2.831  0.00  0.00    -0.081 A 
ATOM     46  H12 G58 d   1      17.006 -39.667  -2.440  0.00  0.00     0.084 H 
ATOM     47  C15 G58 d   1      16.333 -42.860  -3.292  0.00  0.00    -0.062 A 
ATOM     48  H13 G58 d   1      18.050 -41.882  -2.485  0.00  0.00     0.083 H 
ATOM     49  C16 G58 d   1      15.042 -42.662  -3.738  0.00  0.00     0.059 A 
ATOM     50  H14 G58 d   1      16.784 -43.846  -3.304  0.00  0.00     0.085 H 
ATOM     51  C17 G58 d   1      14.444 -41.423  -3.713  0.00  0.00    -0.051 A 
ATOM     52  H15 G58 d   1      13.426 -41.303  -4.065  0.00  0.00     0.087 H 
BRANCH  49  53
ATOM     53  S2  G58 d   1      14.106 -44.049  -4.338  0.00  0.00     0.171 S 
ATOM     54  O3  G58 d   1      15.027 -44.838  -5.137  0.00  0.00    -0.223 OA
ATOM     55  O4  G58 d   1      13.485 -44.581  -3.136  0.00  0.00    -0.223 OA
BRANCH  53  56
ATOM     56  C18 G58 d   1      12.738 -43.438  -5.257  0.00  0.00     0.020 C 
ATOM     57  H16 G58 d   1      13.096 -43.005  -6.203  0.00  0.00     0.049 H 
ATOM     58  H17 G58 d   1      12.220 -42.664  -4.672  0.00  0.00     0.049 H 
ATOM     59  H18 G58 d   1      12.043 -44.263  -5.471  0.00  0.00     0.049 H 
ENDBRANCH  53  56
ENDBRANCH  49  53
ENDBRANCH  37  43
ENDBRANCH   1  33
TORSDOF 10
