REMARK  8 active torsions:
REMARK  status: ('A' for Active; 'I' for Inactive)
REMARK    1  A    between atoms: P_2  and  O5'_5 
REMARK    2  A    between atoms: O5'_5  and  C5'_6 
REMARK    3  A    between atoms: C5'_6  and  C4'_7 
REMARK    4  A    between atoms: C3'_8  and  O3'_24 
REMARK    5  A    between atoms: C2'_9  and  O2'_10 
REMARK    6  A    between atoms: C1'_11  and  N1_13 
REMARK    7  A    between atoms: C6_14  and  C7_15 
REMARK    8  A    between atoms: C7_15  and  C72_16 
ROOT
ATOM      1  C4' 6AU d   1      25.071  -7.464  15.786  0.00  0.00     0.089 C 
ATOM      2  C3' 6AU d   1      24.256  -7.651  17.051  0.00  0.00     0.091 C 
ATOM      3  C2' 6AU d   1      22.913  -7.077  16.678  0.00  0.00     0.104 C 
ATOM      4  C1' 6AU d   1      23.273  -5.987  15.660  0.00  0.00     0.137 C 
ATOM      5  O4' 6AU d   1      24.522  -6.338  15.087  0.00  0.00    -0.354 OA
ATOM      6  H3  6AU d   1      26.111  -7.242  16.067  0.00  0.00     0.090 H 
ATOM      7  H4  6AU d   1      24.170  -8.717  17.309  0.00  0.00     0.091 H 
ATOM      8  H5  6AU d   1      22.284  -7.843  16.200  0.00  0.00     0.093 H 
ATOM      9  H7  6AU d   1      23.389  -5.042  16.210  0.00  0.00     0.122 H 
ENDROOT
BRANCH   4  10
ATOM     10  N1  6AU d   1      22.277  -5.752  14.599  0.00  0.00    -0.296 N 
ATOM     11  C6  6AU d   1      21.665  -4.477  14.427  0.00  0.00     0.062 C 
ATOM     12  C5  6AU d   1      20.531  -4.348  13.551  0.00  0.00     0.032 C 
ATOM     13  H8  6AU d   1      21.141  -4.440  15.393  0.00  0.00     0.078 H 
ATOM     14  C4  6AU d   1      20.193  -5.448  12.805  0.00  0.00     0.227 C 
ATOM     15  H12 6AU d   1      20.743  -3.526  12.852  0.00  0.00     0.050 H 
ATOM     16  H13 6AU d   1      19.661  -4.087  14.171  0.00  0.00     0.050 H 
ATOM     17  O4  6AU d   1      19.289  -5.379  11.952  0.00  0.00    -0.273 OA
ATOM     18  N3  6AU d   1      20.876  -6.583  12.914  0.00  0.00    -0.279 N 
ATOM     19  C2  6AU d   1      21.876  -6.785  13.785  0.00  0.00     0.327 C 
ATOM     20  H14 6AU d   1      20.628  -7.337  12.306  0.00  0.00     0.173 HD
ATOM     21  O2  6AU d   1      22.406  -7.904  13.843  0.00  0.00    -0.247 OA
BRANCH  11  22
ATOM     22  C7  6AU d   1      22.443  -3.229  14.550  0.00  0.00     0.149 C 
ATOM     23  O71 6AU d   1      21.814  -2.088  14.652  0.00  0.00    -0.224 OA
BRANCH  22  24
ATOM     24  C72 6AU d   1      23.905  -3.273  14.480  0.00  0.00    -0.040 C 
ATOM     25  H9  6AU d   1      24.308  -2.256  14.591  0.00  0.00     0.032 H 
ATOM     26  H10 6AU d   1      24.213  -3.686  13.508  0.00  0.00     0.032 H 
ATOM     27  H11 6AU d   1      24.292  -3.910  15.289  0.00  0.00     0.032 H 
ENDBRANCH  22  24
ENDBRANCH  11  22
ENDBRANCH   4  10
BRANCH   3  28
ATOM     28  O2' 6AU d   1      22.236  -6.595  17.825  0.00  0.00    -0.388 OA
ATOM     29  H6  6AU d   1      21.394  -6.238  17.568  0.00  0.00     0.210 HD
ENDBRANCH   3  28
BRANCH   2  30
ATOM     30  O3' 6AU d   1      24.843  -6.937  18.161  0.00  0.00    -0.390 OA
ATOM     31  H15 6AU d   1      25.686  -7.321  18.372  0.00  0.00     0.210 HD
ENDBRANCH   2  30
BRANCH   1  32
ATOM     32  C5' 6AU d   1      25.077  -8.709  14.890  0.00  0.00     0.059 C 
ATOM     33  H1  6AU d   1      24.054  -9.097  14.774  0.00  0.00     0.079 H 
ATOM     34  H2  6AU d   1      25.490  -8.462  13.901  0.00  0.00     0.079 H 
BRANCH  32  35
ATOM     35  O5' 6AU d   1      25.897  -9.676  15.536  0.00  0.00    -0.280 OA
BRANCH  35  36
ATOM     36  P   6AU d   1      26.269 -11.076  14.842  0.00  0.00     0.422 P 
ATOM     37  O3P 6AU d   1      27.293 -10.773  13.768  0.00  0.00    -0.617 OA
ATOM     38  O1P 6AU d   1      25.038 -11.715  14.313  0.00  0.00    -0.617 OA
ATOM     39  O2P 6AU d   1      26.906 -11.815  15.980  0.00  0.00    -0.617 OA
ENDBRANCH  35  36
ENDBRANCH  32  35
ENDBRANCH   1  32
TORSDOF 8
