REMARK  7 active torsions:
REMARK  status: ('A' for Active; 'I' for Inactive)
REMARK    1  A    between atoms: C6_4  and  S22_5 
REMARK    2  A    between atoms: N1_9  and  C1'_10 
REMARK    3  A    between atoms: C2'_12  and  O2'_13 
REMARK    4  A    between atoms: C3'_14  and  O3'_15 
REMARK    5  A    between atoms: C4'_16  and  C5'_17 
REMARK    6  A    between atoms: C5'_17  and  O5'_18 
REMARK    7  A    between atoms: O5'_18  and  P_19 
ROOT
ATOM      1  C1' S5P d   1       4.654   8.242  26.751  0.00  0.00     0.142 C 
ATOM      2  O4' S5P d   1       3.592   8.665  27.653  0.00  0.00    -0.353 OA
ATOM      3  C2' S5P d   1       5.765   9.319  26.769  0.00  0.00     0.105 C 
ATOM      4  C3' S5P d   1       5.562   9.901  28.175  0.00  0.00     0.091 C 
ATOM      5  C4' S5P d   1       4.093   9.683  28.534  0.00  0.00     0.089 C 
ATOM      6  H4  S5P d   1       5.074   7.290  27.108  0.00  0.00     0.123 H 
ATOM      7  H5  S5P d   1       5.596  10.069  25.983  0.00  0.00     0.093 H 
ATOM      8  H7  S5P d   1       5.817  10.970  28.215  0.00  0.00     0.091 H 
ATOM      9  H9  S5P d   1       3.985   9.391  29.589  0.00  0.00     0.090 H 
ENDROOT
BRANCH   1  10
ATOM     10  N1  S5P d   1       4.100   8.030  25.351  0.00  0.00    -0.264 N 
ATOM     11  C6  S5P d   1       4.012   6.765  24.854  0.00  0.00     0.081 C 
ATOM     12  C5  S5P d   1       3.552   6.564  23.518  0.00  0.00     0.015 C 
ATOM     13  C4  S5P d   1       3.165   7.673  22.737  0.00  0.00     0.251 C 
ATOM     14  H1  S5P d   1       3.500   5.558  23.103  0.00  0.00     0.096 H 
ATOM     15  O4  S5P d   1       2.769   7.501  21.563  0.00  0.00    -0.268 OA
ATOM     16  N3  S5P d   1       3.124   8.923  23.298  0.00  0.00    -0.275 N 
ATOM     17  C2  S5P d   1       3.580   9.115  24.620  0.00  0.00     0.332 C 
ATOM     18  H3  S5P d   1       2.772   9.697  22.772  0.00  0.00     0.173 HD
ATOM     19  O2  S5P d   1       3.595  10.293  25.121  0.00  0.00    -0.246 OA
BRANCH  11  20
ATOM     20  S22 S5P d   1       4.015   5.376  25.999  0.00  0.00    -0.125 SA
ATOM     21  H2  S5P d   1       4.872   5.381  26.529  0.00  0.00     0.108 HD
ENDBRANCH  11  20
ENDBRANCH   1  10
BRANCH   3  22
ATOM     22  O2' S5P d   1       7.133   8.798  26.652  0.00  0.00    -0.388 OA
ATOM     23  H6  S5P d   1       7.222   8.327  25.832  0.00  0.00     0.210 HD
ENDBRANCH   3  22
BRANCH   5  24
ATOM     24  C5' S5P d   1       3.305  10.956  28.237  0.00  0.00     0.059 C 
ATOM     25  H10 S5P d   1       2.232  10.753  28.372  0.00  0.00     0.079 H 
ATOM     26  H11 S5P d   1       3.493  11.259  27.196  0.00  0.00     0.079 H 
BRANCH  24  27
ATOM     27  O5' S5P d   1       3.681  11.996  29.087  0.00  0.00    -0.280 OA
BRANCH  27  28
ATOM     28  P   S5P d   1       2.797  13.367  29.165  0.00  0.00     0.422 P 
ATOM     29  O3P S5P d   1       3.621  14.101  30.213  0.00  0.00    -0.617 OA
ATOM     30  O1P S5P d   1       2.810  14.053  27.874  0.00  0.00    -0.617 OA
ATOM     31  O2P S5P d   1       1.462  13.019  29.606  0.00  0.00    -0.617 OA
ENDBRANCH  27  28
ENDBRANCH  24  27
ENDBRANCH   5  24
BRANCH   4  32
ATOM     32  O3' S5P d   1       6.387   9.167  28.999  0.00  0.00    -0.390 OA
ATOM     33  H8  S5P d   1       7.287   9.262  28.710  0.00  0.00     0.210 HD
ENDBRANCH   4  32
TORSDOF 7
