REMARK  8 active torsions:
REMARK  status: ('A' for Active; 'I' for Inactive)
REMARK    1  A    between atoms: C2_5  and  C12_23 
REMARK    2  A    between atoms: N5_16  and  S2_8 
REMARK    3  A    between atoms: S2_8  and  C17_28 
REMARK    4  A    between atoms: C6_17  and  N3_10 
REMARK    5  A    between atoms: C12_23  and  N4_13 
REMARK    6  A    between atoms: C23_34  and  O4_14 
REMARK    7  A    between atoms: C7_18  and  C5_15 
REMARK    8  A    between atoms: C21_32  and  C23_34 
ROOT
ATOM      1  C1  JZW d   1      22.758  64.939  20.994  0.00  0.00    -0.039 A 
ATOM      2  N1  JZW d   1      24.227  63.136  21.020  0.00  0.00    -0.227 NA
ATOM      3  S1  JZW d   1      20.681  63.949  22.001  0.00  0.00    -0.087 SA
ATOM      4  C2  JZW d   1      21.504  65.230  21.321  0.00  0.00     0.003 A 
ATOM      5  N2  JZW d   1      23.303  61.068  21.959  0.00  0.00    -0.210 NA
ATOM      6  C3  JZW d   1      23.037  63.670  21.272  0.00  0.00     0.081 A 
ATOM      7  C4  JZW d   1      22.036  62.985  21.830  0.00  0.00     0.080 A 
ATOM      8  C5  JZW d   1      24.417  61.748  21.356  0.00  0.00     0.162 A 
ATOM      9  C6  JZW d   1      22.145  61.677  22.179  0.00  0.00     0.147 A 
ATOM     10  H   JZW d   1      23.463  65.646  20.557  0.00  0.00     0.088 H 
ENDROOT
BRANCH   4  11
ATOM     11  C12 JZW d   1      20.930  66.619  21.169  0.00  0.00     0.020 C 
ATOM     12  H   JZW d   1      21.801  67.262  21.039  0.00  0.00     0.071 H 
ATOM     13  H   JZW d   1      20.286  66.745  22.039  0.00  0.00     0.071 H 
BRANCH  11  14
ATOM     14  N4  JZW d   1      20.078  66.929  20.039  0.00  0.00    -0.405 N 
ATOM     15  C13 JZW d   1      19.785  68.345  19.859  0.00  0.00     0.006 C 
ATOM     16  C14 JZW d   1      19.543  68.616  18.373  0.00  0.00     0.019 C 
ATOM     17  H   JZW d   1      20.626  68.943  20.210  0.00  0.00     0.066 H 
ATOM     18  H   JZW d   1      18.897  68.613  20.432  0.00  0.00     0.066 H 
ATOM     19  N5  JZW d   1      18.665  67.569  17.849  0.00  0.00    -0.308 N 
ATOM     20  H   JZW d   1      19.077  69.593  18.243  0.00  0.00     0.067 H 
ATOM     21  H   JZW d   1      20.491  68.612  17.834  0.00  0.00     0.067 H 
ATOM     22  C15 JZW d   1      19.041  66.201  18.146  0.00  0.00     0.019 C 
ATOM     23  C16 JZW d   1      19.005  66.042  19.652  0.00  0.00     0.006 C 
ATOM     24  H   JZW d   1      20.038  65.985  17.762  0.00  0.00     0.067 H 
ATOM     25  H   JZW d   1      18.353  65.502  17.670  0.00  0.00     0.067 H 
ATOM     26  H   JZW d   1      18.043  66.286  20.102  0.00  0.00     0.066 H 
ATOM     27  H   JZW d   1      19.132  65.015  19.994  0.00  0.00     0.066 H 
BRANCH  19  28
ATOM     28  S2  JZW d   1      17.851  67.728  16.559  0.00  0.00     0.224 S 
ATOM     29  O2  JZW d   1      18.457  66.896  15.548  0.00  0.00    -0.206 OA
ATOM     30  O3  JZW d   1      16.518  67.233  16.800  0.00  0.00    -0.206 OA
BRANCH  28  31
ATOM     31  C17 JZW d   1      17.758  69.302  15.998  0.00  0.00     0.032 C 
ATOM     32  H   JZW d   1      18.761  69.667  15.777  0.00  0.00     0.051 H 
ATOM     33  H   JZW d   1      17.152  69.328  15.092  0.00  0.00     0.051 H 
ATOM     34  H   JZW d   1      17.300  69.932  16.761  0.00  0.00     0.051 H 
ENDBRANCH  28  31
ENDBRANCH  19  28
ENDBRANCH  11  14
ENDBRANCH   4  11
BRANCH   9  35
ATOM     35  N3  JZW d   1      21.196  60.926  22.758  0.00  0.00    -0.361 N 
ATOM     36  C8  JZW d   1      19.759  60.961  22.481  0.00  0.00     0.016 C 
ATOM     37  C9  JZW d   1      19.072  60.951  23.837  0.00  0.00     0.034 C 
ATOM     38  H   JZW d   1      19.452  60.108  21.876  0.00  0.00     0.067 H 
ATOM     39  H   JZW d   1      19.488  61.847  21.907  0.00  0.00     0.067 H 
ATOM     40  O1  JZW d   1      19.415  59.732  24.477  0.00  0.00    -0.388 OA
ATOM     41  H   JZW d   1      19.397  61.802  24.436  0.00  0.00     0.076 H 
ATOM     42  H   JZW d   1      17.991  61.029  23.718  0.00  0.00     0.076 H 
ATOM     43  C10 JZW d   1      20.797  59.691  24.790  0.00  0.00     0.034 C 
ATOM     44  C11 JZW d   1      21.615  59.743  23.516  0.00  0.00     0.016 C 
ATOM     45  H   JZW d   1      21.018  58.766  25.322  0.00  0.00     0.076 H 
ATOM     46  H   JZW d   1      21.050  60.547  25.415  0.00  0.00     0.076 H 
ATOM     47  H   JZW d   1      22.677  59.803  23.752  0.00  0.00     0.067 H 
ATOM     48  H   JZW d   1      21.453  58.841  22.927  0.00  0.00     0.067 H 
ENDBRANCH   9  35
BRANCH   8  49
ATOM     49  C7  JZW d   1      25.694  61.051  21.160  0.00  0.00     0.012 A 
ATOM     50  C18 JZW d   1      26.641  61.514  20.266  0.00  0.00    -0.069 A 
ATOM     51  C19 JZW d   1      27.839  60.836  20.135  0.00  0.00    -0.081 A 
ATOM     52  H   JZW d   1      26.445  62.405  19.670  0.00  0.00     0.085 H 
ATOM     53  C20 JZW d   1      28.099  59.717  20.909  0.00  0.00    -0.075 A 
ATOM     54  H   JZW d   1      28.583  61.184  19.419  0.00  0.00     0.083 H 
ATOM     55  C21 JZW d   1      27.154  59.267  21.819  0.00  0.00    -0.034 A 
ATOM     56  H   JZW d   1      29.047  59.190  20.803  0.00  0.00     0.084 H 
ATOM     57  C22 JZW d   1      25.954  59.937  21.946  0.00  0.00    -0.061 A 
ATOM     58  H   JZW d   1      25.210  59.591  22.664  0.00  0.00     0.085 H 
BRANCH  55  59
ATOM     59  C23 JZW d   1      27.410  58.043  22.663  0.00  0.00     0.040 C 
ATOM     60  H   JZW d   1      26.502  57.441  22.698  0.00  0.00     0.081 H 
ATOM     61  H   JZW d   1      28.229  57.474  22.223  0.00  0.00     0.081 H 
BRANCH  59  62
ATOM     62  O4  JZW d   1      27.765  58.415  23.981  0.00  0.00    -0.396 OA
ATOM     63  H   JZW d   1      27.049  58.921  24.373  0.00  0.00     0.209 HD
ENDBRANCH  59  62
ENDBRANCH  55  59
ENDBRANCH   8  49
TORSDOF 8
