REMARK  7 active torsions:
REMARK  status: ('A' for Active; 'I' for Inactive)
REMARK    1  A    between atoms: C1_1  and  C8_20 
REMARK    2  A    between atoms: N4_13  and  C2_5 
REMARK    3  A    between atoms: N5_15  and  S2_8 
REMARK    4  A    between atoms: S2_8  and  C21_33 
REMARK    5  A    between atoms: C7_18  and  N3_10 
REMARK    6  A    between atoms: C5_14  and  C7_18 
REMARK    7  A    between atoms: C18_30  and  N7_19 
ROOT
ATOM      1  C1  JZX d   1      22.887  62.178  21.022  0.00  0.00     0.164 A 
ATOM      2  N1  JZX d   1      22.687  63.465  20.623  0.00  0.00    -0.227 NA
ATOM      3  S1  JZX d   1      19.084  64.236  21.636  0.00  0.00    -0.087 SA
ATOM      4  C2  JZX d   1      20.677  62.006  21.870  0.00  0.00     0.147 A 
ATOM      5  N2  JZX d   1      21.899  61.483  21.642  0.00  0.00    -0.209 NA
ATOM      6  C3  JZX d   1      21.477  64.031  20.853  0.00  0.00     0.081 A 
ATOM      7  C4  JZX d   1      20.482  63.318  21.477  0.00  0.00     0.080 A 
ATOM      8  C5  JZX d   1      19.909  65.473  20.862  0.00  0.00     0.014 A 
ATOM      9  C6  JZX d   1      21.118  65.232  20.544  0.00  0.00    -0.039 A 
ATOM     10  H   JZX d   1      21.776  65.957  20.065  0.00  0.00     0.088 H 
ENDROOT
BRANCH   8  11
ATOM     11  C7  JZX d   1      19.253  66.838  20.673  0.00  0.00     0.143 C 
ATOM     12  H   JZX d   1      18.603  66.913  21.545  0.00  0.00     0.088 H 
ATOM     13  H   JZX d   1      20.107  67.489  20.487  0.00  0.00     0.088 H 
BRANCH  11  14
ATOM     14  N3  JZX d   1      18.342  67.175  19.561  0.00  0.00     0.095 N 
ATOM     15  C9  JZX d   1      17.191  66.256  19.471  0.00  0.00     0.125 C 
ATOM     16  C10 JZX d   1      16.262  66.755  18.376  0.00  0.00     0.018 C 
ATOM     17  H   JZX d   1      16.662  66.227  20.424  0.00  0.00     0.081 H 
ATOM     18  H   JZX d   1      17.536  65.249  19.237  0.00  0.00     0.081 H 
ATOM     19  N5  JZX d   1      17.045  66.838  17.122  0.00  0.00    -0.208 NA
ATOM     20  H   JZX d   1      15.421  66.073  18.253  0.00  0.00     0.060 H 
ATOM     21  H   JZX d   1      15.861  67.734  18.637  0.00  0.00     0.060 H 
ATOM     22  C11 JZX d   1      18.130  67.836  17.234  0.00  0.00     0.018 C 
ATOM     23  C12 JZX d   1      19.090  67.337  18.299  0.00  0.00     0.125 C 
ATOM     24  H   JZX d   1      17.728  68.812  17.506  0.00  0.00     0.060 H 
ATOM     25  H   JZX d   1      18.643  67.954  16.280  0.00  0.00     0.060 H 
ATOM     26  H   JZX d   1      19.521  66.383  17.995  0.00  0.00     0.081 H 
ATOM     27  H   JZX d   1      19.901  68.052  18.435  0.00  0.00     0.081 H 
BRANCH  19  28
ATOM     28  S2  JZX d   1      16.112  67.148  15.847  0.00  0.00     0.207 S 
ATOM     29  O2  JZX d   1      14.958  66.291  15.876  0.00  0.00    -0.212 OA
ATOM     30  O3  JZX d   1      16.896  66.880  14.674  0.00  0.00    -0.212 OA
BRANCH  28  31
ATOM     31  C21 JZX d   1      15.577  68.729  15.840  0.00  0.00     0.028 C 
ATOM     32  H   JZX d   1      14.959  68.898  14.959  0.00  0.00     0.050 H 
ATOM     33  H   JZX d   1      14.990  68.916  16.739  0.00  0.00     0.050 H 
ATOM     34  H   JZX d   1      16.435  69.401  15.818  0.00  0.00     0.050 H 
ENDBRANCH  28  31
ENDBRANCH  19  28
ENDBRANCH  11  14
ENDBRANCH   8  11
BRANCH   4  35
ATOM     35  N4  JZX d   1      19.744  61.227  22.594  0.00  0.00    -0.361 N 
ATOM     36  C13 JZX d   1      20.188  59.846  22.892  0.00  0.00     0.016 C 
ATOM     37  C14 JZX d   1      19.483  59.421  24.172  0.00  0.00     0.034 C 
ATOM     38  H   JZX d   1      21.270  59.806  23.015  0.00  0.00     0.067 H 
ATOM     39  H   JZX d   1      19.938  59.174  22.071  0.00  0.00     0.067 H 
ATOM     40  O1  JZX d   1      18.062  59.557  24.048  0.00  0.00    -0.388 OA
ATOM     41  H   JZX d   1      19.717  58.375  24.368  0.00  0.00     0.076 H 
ATOM     42  H   JZX d   1      19.825  60.059  24.987  0.00  0.00     0.076 H 
ATOM     43  C15 JZX d   1      17.624  60.839  23.573  0.00  0.00     0.034 C 
ATOM     44  C16 JZX d   1      18.315  61.245  22.261  0.00  0.00     0.016 C 
ATOM     45  H   JZX d   1      17.874  61.583  24.330  0.00  0.00     0.076 H 
ATOM     46  H   JZX d   1      16.552  60.781  23.386  0.00  0.00     0.076 H 
ATOM     47  H   JZX d   1      18.073  60.570  21.440  0.00  0.00     0.067 H 
ATOM     48  H   JZX d   1      17.985  62.221  21.905  0.00  0.00     0.067 H 
ENDBRANCH   4  35
BRANCH   1  49
ATOM     49  C8  JZX d   1      24.192  61.491  20.813  0.00  0.00     0.029 A 
ATOM     50  C17 JZX d   1      25.102  61.960  19.882  0.00  0.00     0.018 A 
ATOM     51  N6  JZX d   1      26.273  61.334  19.714  0.00  0.00    -0.243 NA
ATOM     52  H   JZX d   1      24.865  62.840  19.285  0.00  0.00     0.116 H 
ATOM     53  C18 JZX d   1      26.617  60.246  20.427  0.00  0.00     0.120 A 
ATOM     54  C20 JZX d   1      25.752  59.733  21.377  0.00  0.00    -0.038 A 
ATOM     55  C19 JZX d   1      24.530  60.363  21.572  0.00  0.00    -0.064 A 
ATOM     56  H   JZX d   1      26.024  58.853  21.960  0.00  0.00     0.089 H 
ATOM     57  H   JZX d   1      23.833  59.979  22.317  0.00  0.00     0.085 H 
BRANCH  53  58
ATOM     58  N7  JZX d   1      27.812  59.669  20.199  0.00  0.00    -0.384 N 
ATOM     59  H   JZX d   1      28.440  60.057  19.495  0.00  0.00     0.157 HD
ATOM     60  H   JZX d   1      28.089  58.844  20.730  0.00  0.00     0.157 HD
ENDBRANCH  53  58
ENDBRANCH   1  49
TORSDOF 7
