REMARK  8 active torsions:
REMARK  status: ('A' for Active; 'I' for Inactive)
REMARK    1  A    between atoms: C1_1  and  N10_10 
REMARK    2  A    between atoms: C3_3  and  C16_16 
REMARK    3  A    between atoms: C8_8  and  C24_24 
REMARK    4  A    between atoms: C19_19  and  N23_23 
REMARK    5  A    between atoms: C21_21  and  C22_22 
REMARK    6  A    between atoms: C24_24  and  N25_25 
REMARK    7  A    between atoms: N28_28  and  S31_31 
REMARK    8  A    between atoms: S31_31  and  C34_34 
ROOT
ATOM      1  C1  JZY d   1      21.360  62.633  22.226  0.00  0.00     0.147 A 
ATOM      2  N2  JZY d   1      22.594  62.171  21.925  0.00  0.00    -0.209 NA
ATOM      3  C3  JZY d   1      23.558  62.936  21.349  0.00  0.00     0.166 A 
ATOM      4  N4  JZY d   1      23.378  64.252  21.031  0.00  0.00    -0.227 NA
ATOM      5  C5  JZY d   1      22.194  64.835  21.269  0.00  0.00     0.081 A 
ATOM      6  C6  JZY d   1      21.123  64.051  21.876  0.00  0.00     0.080 A 
ATOM      7  S7  JZY d   1      19.777  65.014  22.042  0.00  0.00    -0.087 SA
ATOM      8  C8  JZY d   1      20.513  66.435  21.368  0.00  0.00     0.003 A 
ATOM      9  C9  JZY d   1      21.837  66.191  20.980  0.00  0.00    -0.039 A 
ATOM     10  H   JZY d   1      22.499  66.927  20.524  0.00  0.00     0.088 H 
ENDROOT
BRANCH   8  11
ATOM     11  C24 JZY d   1      19.598  67.637  21.332  0.00  0.00     0.020 C 
ATOM     12  H   JZY d   1      20.177  68.545  21.500  0.00  0.00     0.071 H 
ATOM     13  H   JZY d   1      18.843  67.549  22.113  0.00  0.00     0.071 H 
BRANCH  11  14
ATOM     14  N25 JZY d   1      18.951  67.700  20.028  0.00  0.00    -0.405 N 
ATOM     15  C26 JZY d   1      17.538  67.342  19.888  0.00  0.00     0.006 C 
ATOM     16  C27 JZY d   1      16.856  68.438  19.059  0.00  0.00     0.019 C 
ATOM     17  H   JZY d   1      17.069  67.263  20.869  0.00  0.00     0.066 H 
ATOM     18  H   JZY d   1      17.440  66.376  19.392  0.00  0.00     0.066 H 
ATOM     19  N28 JZY d   1      17.701  68.644  17.885  0.00  0.00    -0.308 N 
ATOM     20  H   JZY d   1      16.750  69.358  19.634  0.00  0.00     0.067 H 
ATOM     21  H   JZY d   1      15.847  68.143  18.771  0.00  0.00     0.067 H 
ATOM     22  C29 JZY d   1      19.020  69.202  18.140  0.00  0.00     0.019 C 
ATOM     23  C30 JZY d   1      19.756  68.088  18.869  0.00  0.00     0.006 C 
ATOM     24  H   JZY d   1      18.974  70.120  18.726  0.00  0.00     0.067 H 
ATOM     25  H   JZY d   1      19.527  69.501  17.222  0.00  0.00     0.067 H 
ATOM     26  H   JZY d   1      19.900  67.234  18.207  0.00  0.00     0.066 H 
ATOM     27  H   JZY d   1      20.739  68.432  19.191  0.00  0.00     0.066 H 
BRANCH  19  28
ATOM     28  S31 JZY d   1      17.239  68.291  16.465  0.00  0.00     0.224 S 
ATOM     29  O32 JZY d   1      16.359  67.142  16.428  0.00  0.00    -0.206 OA
ATOM     30  O33 JZY d   1      18.391  67.948  15.677  0.00  0.00    -0.206 OA
BRANCH  28  31
ATOM     31  C34 JZY d   1      16.473  69.651  15.876  0.00  0.00     0.032 C 
ATOM     32  H   JZY d   1      16.168  69.477  14.844  0.00  0.00     0.051 H 
ATOM     33  H   JZY d   1      15.594  69.864  16.485  0.00  0.00     0.051 H 
ATOM     34  H   JZY d   1      17.158  70.498  15.916  0.00  0.00     0.051 H 
ENDBRANCH  28  31
ENDBRANCH  19  28
ENDBRANCH  11  14
ENDBRANCH   8  11
BRANCH   1  35
ATOM     35  N10 JZY d   1      20.443  61.742  22.816  0.00  0.00    -0.361 N 
ATOM     36  C11 JZY d   1      19.012  62.015  22.897  0.00  0.00     0.016 C 
ATOM     37  C12 JZY d   1      18.606  61.678  24.318  0.00  0.00     0.034 C 
ATOM     38  H   JZY d   1      18.454  61.420  22.174  0.00  0.00     0.067 H 
ATOM     39  H   JZY d   1      18.793  63.056  22.659  0.00  0.00     0.067 H 
ATOM     40  O13 JZY d   1      18.925  60.322  24.573  0.00  0.00    -0.388 OA
ATOM     41  H   JZY d   1      17.535  61.836  24.444  0.00  0.00     0.076 H 
ATOM     42  H   JZY d   1      19.140  62.321  25.018  0.00  0.00     0.076 H 
ATOM     43  C14 JZY d   1      20.331  60.142  24.643  0.00  0.00     0.034 C 
ATOM     44  C15 JZY d   1      20.973  60.459  23.308  0.00  0.00     0.016 C 
ATOM     45  H   JZY d   1      20.543  59.104  24.901  0.00  0.00     0.076 H 
ATOM     46  H   JZY d   1      20.737  60.813  25.400  0.00  0.00     0.076 H 
ATOM     47  H   JZY d   1      22.054  60.528  23.427  0.00  0.00     0.067 H 
ATOM     48  H   JZY d   1      20.746  59.668  22.593  0.00  0.00     0.067 H 
ENDBRANCH   1  35
BRANCH   3  49
ATOM     49  C16 JZY d   1      24.872  62.287  21.084  0.00  0.00     0.055 A 
ATOM     50  C17 JZY d   1      25.472  61.498  22.057  0.00  0.00     0.037 A 
ATOM     51  N18 JZY d   1      26.656  60.930  21.803  0.00  0.00    -0.074 NA
ATOM     52  H   JZY d   1      24.983  61.343  23.018  0.00  0.00     0.117 H 
ATOM     53  C19 JZY d   1      27.283  61.101  20.616  0.00  0.00     0.720 A 
ATOM     54  N20 JZY d   1      26.760  61.839  19.612  0.00  0.00    -0.067 NA
ATOM     55  C21 JZY d   1      25.574  62.449  19.777  0.00  0.00     0.065 A 
BRANCH  53  56
ATOM     56  N23 JZY d   1      28.470  60.500  20.430  0.00  0.00    -0.231 N 
ATOM     57  H   JZY d   1      28.876  59.932  21.174  0.00  0.00     0.174 HD
ATOM     58  H   JZY d   1      28.965  60.611  19.545  0.00  0.00     0.174 HD
ENDBRANCH  53  56
BRANCH  55  59
ATOM     59  C22 JZY d   1      25.002  63.275  18.661  0.00  0.00    -0.034 C 
ATOM     60  H   JZY d   1      25.689  64.086  18.422  0.00  0.00     0.035 H 
ATOM     61  H   JZY d   1      24.860  62.647  17.782  0.00  0.00     0.035 H 
ATOM     62  H   JZY d   1      24.043  63.689  18.972  0.00  0.00     0.035 H 
ENDBRANCH  55  59
ENDBRANCH   3  49
TORSDOF 8
