REMARK  15 active torsions:
REMARK  status: ('A' for Active; 'I' for Inactive)
REMARK    1  A    between atoms: C1_1  and  C2_4 
REMARK    2  A    between atoms: C2_4  and  C3_5 
REMARK    3  A    between atoms: C3_5  and  C4_6 
REMARK    4  A    between atoms: C4_6  and  C5_7 
REMARK    5  A    between atoms: C5_7  and  C6_8 
REMARK    6  A    between atoms: C6_8  and  C7_9 
REMARK    7  A    between atoms: C7_9  and  C8_10 
REMARK    8  A    between atoms: C8_10  and  C9_11 
REMARK    9  A    between atoms: C9_11  and  CA_12 
REMARK   10  A    between atoms: CA_12  and  CB_13 
REMARK   11  A    between atoms: CB_13  and  CC_14 
REMARK   12  A    between atoms: CC_14  and  CD_15 
REMARK   13  A    between atoms: CD_15  and  CE_16 
REMARK   14  A    between atoms: CE_16  and  CF_17 
REMARK   15  A    between atoms: CF_17  and  CG_18 
ROOT
ATOM      1  C9  PLM d   1       5.269  15.587  46.104  0.00  0.00    -0.065 C 
ATOM      2  H15 PLM d   1       4.766  16.544  46.307  0.00  0.00     0.033 H 
ATOM      3  H16 PLM d   1       6.338  15.676  46.346  0.00  0.00     0.033 H 
ENDROOT
BRANCH   1   4
ATOM      4  C8  PLM d   1       5.126  15.261  44.620  0.00  0.00    -0.065 C 
ATOM      5  H13 PLM d   1       5.909  14.542  44.336  0.00  0.00     0.033 H 
ATOM      6  H14 PLM d   1       4.137  14.812  44.448  0.00  0.00     0.033 H 
BRANCH   4   7
ATOM      7  C7  PLM d   1       5.261  16.508  43.750  0.00  0.00    -0.065 C 
ATOM      8  H11 PLM d   1       4.357  17.124  43.864  0.00  0.00     0.033 H 
ATOM      9  H12 PLM d   1       6.140  17.081  44.080  0.00  0.00     0.033 H 
BRANCH   7  10
ATOM     10  C6  PLM d   1       5.430  16.142  42.278  0.00  0.00    -0.065 C 
ATOM     11  H9  PLM d   1       6.238  15.401  42.191  0.00  0.00     0.033 H 
ATOM     12  H10 PLM d   1       4.489  15.703  41.915  0.00  0.00     0.033 H 
BRANCH  10  13
ATOM     13  C5  PLM d   1       5.775  17.345  41.405  0.00  0.00    -0.065 C 
ATOM     14  H7  PLM d   1       5.103  18.177  41.663  0.00  0.00     0.033 H 
ATOM     15  H8  PLM d   1       6.816  17.640  41.600  0.00  0.00     0.033 H 
BRANCH  13  16
ATOM     16  C4  PLM d   1       5.620  17.024  39.919  0.00  0.00    -0.065 C 
ATOM     17  H5  PLM d   1       4.949  16.158  39.816  0.00  0.00     0.033 H 
ATOM     18  H6  PLM d   1       5.173  17.895  39.417  0.00  0.00     0.033 H 
BRANCH  16  19
ATOM     19  C3  PLM d   1       6.946  16.696  39.235  0.00  0.00    -0.056 C 
ATOM     20  H3  PLM d   1       7.649  17.527  39.391  0.00  0.00     0.033 H 
ATOM     21  H4  PLM d   1       7.362  15.777  39.674  0.00  0.00     0.033 H 
BRANCH  19  22
ATOM     22  C2  PLM d   1       6.739  16.488  37.736  0.00  0.00     0.016 C 
ATOM     23  H1  PLM d   1       6.018  15.671  37.590  0.00  0.00     0.049 H 
ATOM     24  H2  PLM d   1       6.335  17.415  37.304  0.00  0.00     0.049 H 
BRANCH  22  25
ATOM     25  C1  PLM d   1       8.024  16.136  37.017  0.00  0.00     0.172 C 
ATOM     26  O1  PLM d   1       8.803  15.259  37.457  0.00  0.00    -0.648 OA
ATOM     27  O2  PLM d   1       8.320  16.710  35.946  0.00  0.00    -0.648 OA
ENDBRANCH  22  25
ENDBRANCH  19  22
ENDBRANCH  16  19
ENDBRANCH  13  16
ENDBRANCH  10  13
ENDBRANCH   7  10
ENDBRANCH   4   7
ENDBRANCH   1   4
BRANCH   1  28
ATOM     28  CA  PLM d   1       4.652  14.510  46.990  0.00  0.00    -0.065 C 
ATOM     29  H17 PLM d   1       5.177  13.559  46.817  0.00  0.00     0.033 H 
ATOM     30  H18 PLM d   1       3.590  14.395  46.728  0.00  0.00     0.033 H 
BRANCH  28  31
ATOM     31  CB  PLM d   1       4.763  14.879  48.469  0.00  0.00    -0.065 C 
ATOM     32  H19 PLM d   1       5.688  15.454  48.622  0.00  0.00     0.033 H 
ATOM     33  H20 PLM d   1       4.804  13.954  49.063  0.00  0.00     0.033 H 
BRANCH  31  34
ATOM     34  CC  PLM d   1       3.578  15.718  48.946  0.00  0.00    -0.065 C 
ATOM     35  H21 PLM d   1       3.063  16.140  48.070  0.00  0.00     0.033 H 
ATOM     36  H22 PLM d   1       3.952  16.535  49.580  0.00  0.00     0.033 H 
BRANCH  34  37
ATOM     37  CD  PLM d   1       2.585  14.882  49.749  0.00  0.00    -0.065 C 
ATOM     38  H23 PLM d   1       3.091  14.500  50.648  0.00  0.00     0.033 H 
ATOM     39  H24 PLM d   1       2.252  14.037  49.129  0.00  0.00     0.033 H 
BRANCH  37  40
ATOM     40  CE  PLM d   1       1.363  15.686  50.179  0.00  0.00    -0.065 C 
ATOM     41  H25 PLM d   1       0.807  16.002  49.284  0.00  0.00     0.033 H 
ATOM     42  H26 PLM d   1       1.694  16.574  50.737  0.00  0.00     0.033 H 
BRANCH  40  43
ATOM     43  CF  PLM d   1       0.447  14.851  51.067  0.00  0.00    -0.069 C 
ATOM     44  H27 PLM d   1       1.026  14.479  51.925  0.00  0.00     0.032 H 
ATOM     45  H28 PLM d   1       0.066  13.999  50.484  0.00  0.00     0.032 H 
BRANCH  43  46
ATOM     46  CG  PLM d   1      -0.734  15.663  51.584  0.00  0.00    -0.077 C 
ATOM     47  H29 PLM d   1      -1.368  15.026  52.218  0.00  0.00     0.027 H 
ATOM     48  H30 PLM d   1      -1.323  16.035  50.733  0.00  0.00     0.027 H 
ATOM     49  H31 PLM d   1      -0.363  16.514  52.174  0.00  0.00     0.027 H 
ENDBRANCH  43  46
ENDBRANCH  40  43
ENDBRANCH  37  40
ENDBRANCH  34  37
ENDBRANCH  31  34
ENDBRANCH  28  31
ENDBRANCH   1  28
TORSDOF 15
