REMARK  8 active torsions:
REMARK  status: ('A' for Active; 'I' for Inactive)
REMARK    1  A    between atoms: C1_1  and  O2_2 
REMARK    2  A    between atoms: O2_2  and  C3_3 
REMARK    3  A    between atoms: C6_6  and  C11_11 
REMARK    4  A    between atoms: C8_8  and  O9_9 
REMARK    5  A    between atoms: O9_9  and  C10_10 
REMARK    6  A    between atoms: C16_16  and  N17_17 
REMARK    7  A    between atoms: N17_17  and  N18_18 
REMARK    8  A    between atoms: N18_18  and  C19_19 
ROOT
ATOM      1  C11 Z92 d   1      38.490  33.615  51.835  0.00  0.00     0.123 A 
ATOM      2  N12 Z92 d   1      38.527  32.766  50.896  0.00  0.00    -0.169 NA
ATOM      3  N13 Z92 d   1      39.350  33.131  49.874  0.00  0.00    -0.241 N 
ATOM      4  C14 Z92 d   1      39.859  34.277  50.157  0.00  0.00     0.294 A 
ATOM      5  O15 Z92 d   1      40.619  34.930  49.558  0.00  0.00    -0.264 OA
ATOM      6  C16 Z92 d   1      39.384  34.678  51.403  0.00  0.00     0.177 A 
ATOM      7  H   Z92 d   1      39.531  32.589  49.029  0.00  0.00     0.192 HD
ENDROOT
BRANCH   1   8
ATOM      8  C6  Z92 d   1      37.669  33.432  53.034  0.00  0.00    -0.000 A 
ATOM      9  C5  Z92 d   1      37.740  34.297  54.082  0.00  0.00    -0.068 A 
ATOM     10  C4  Z92 d   1      36.954  34.070  55.167  0.00  0.00    -0.047 A 
ATOM     11  H   Z92 d   1      38.413  35.154  54.052  0.00  0.00     0.085 H 
ATOM     12  C3  Z92 d   1      36.103  33.015  55.240  0.00  0.00     0.101 A 
ATOM     13  H   Z92 d   1      37.009  34.760  56.009  0.00  0.00     0.087 H 
ATOM     14  C8  Z92 d   1      36.035  32.147  54.193  0.00  0.00     0.102 A 
ATOM     15  C7  Z92 d   1      36.813  32.363  53.103  0.00  0.00    -0.036 A 
ATOM     16  H   Z92 d   1      36.756  31.671  52.263  0.00  0.00     0.089 H 
BRANCH  12  17
ATOM     17  O2  Z92 d   1      35.348  32.875  56.342  0.00  0.00    -0.353 OA
BRANCH  17  18
ATOM     18  C1  Z92 d   1      35.088  31.550  56.703  0.00  0.00     0.010 C 
ATOM     19  H   Z92 d   1      34.560  31.050  55.891  0.00  0.00     0.066 H 
ATOM     20  H   Z92 d   1      36.030  31.036  56.896  0.00  0.00     0.066 H 
ATOM     21  H   Z92 d   1      34.473  31.534  57.603  0.00  0.00     0.066 H 
ENDBRANCH  17  18
ENDBRANCH  12  17
BRANCH  14  22
ATOM     22  O9  Z92 d   1      35.180  31.119  54.256  0.00  0.00    -0.353 OA
BRANCH  22  23
ATOM     23  C10 Z92 d   1      35.356  29.958  53.492  0.00  0.00     0.010 C 
ATOM     24  H   Z92 d   1      35.348  30.217  52.433  0.00  0.00     0.066 H 
ATOM     25  H   Z92 d   1      36.310  29.497  53.748  0.00  0.00     0.066 H 
ATOM     26  H   Z92 d   1      34.546  29.260  53.703  0.00  0.00     0.066 H 
ENDBRANCH  22  23
ENDBRANCH  14  22
ENDBRANCH   1   8
BRANCH   6  27
ATOM     27  N17 Z92 d   1      39.751  35.817  51.828  0.00  0.00    -0.166 NA
BRANCH  27  28
ATOM     28  N18 Z92 d   1      39.426  36.244  52.930  0.00  0.00    -0.278 N 
ATOM     29  H   Z92 d   1      38.889  35.680  53.589  0.00  0.00     0.189 HD
BRANCH  28  30
ATOM     30  C19 Z92 d   1      39.822  37.514  53.227  0.00  0.00     0.050 A 
ATOM     31  C20 Z92 d   1      39.600  37.901  54.507  0.00  0.00    -0.054 A 
ATOM     32  C21 Z92 d   1      39.930  39.154  54.866  0.00  0.00    -0.060 A 
ATOM     33  H   Z92 d   1      39.163  37.211  55.230  0.00  0.00     0.087 H 
ATOM     34  C22 Z92 d   1      40.448  40.028  53.973  0.00  0.00     0.034 A 
ATOM     35  H   Z92 d   1      39.777  39.472  55.897  0.00  0.00     0.086 H 
ATOM     36 CL23 Z92 d   1      40.777  41.598  54.598  0.00  0.00    -0.084 Cl
ATOM     37  C24 Z92 d   1      40.662  39.650  52.680  0.00  0.00    -0.060 A 
ATOM     38  C25 Z92 d   1      40.340  38.381  52.297  0.00  0.00    -0.054 A 
ATOM     39  H   Z92 d   1      41.085  40.353  51.962  0.00  0.00     0.086 H 
ATOM     40  H   Z92 d   1      40.492  38.060  51.267  0.00  0.00     0.087 H 
ENDBRANCH  28  30
ENDBRANCH  27  28
ENDBRANCH   6  27
TORSDOF 8
