REMARK  7 active torsions:
REMARK  status: ('A' for Active; 'I' for Inactive)
REMARK    1  A    between atoms: C19_26  and  O1_3 
REMARK    2  A    between atoms: O1_3  and  C20_27 
REMARK    3  A    between atoms: C26_33  and  N4_10 
REMARK    4  A    between atoms: C25_32  and  N5_12 
REMARK    5  A    between atoms: C22_29  and  C17_24 
REMARK    6  A    between atoms: C23_30  and  C18_25 
REMARK    7  A    between atoms: C24_31  and  C26_33 
ROOT
ATOM      1  N4  879 d   1      13.838  -9.686  17.348  0.00  0.00    -0.340 N 
ATOM      2  C10 879 d   1      12.300 -10.112  18.900  0.00  0.00    -0.054 A 
ATOM      3  C11 879 d   1      13.437 -10.905  19.170  0.00  0.00    -0.054 A 
ATOM      4  C22 879 d   1      12.553  -9.355  17.767  0.00  0.00     0.045 A 
ATOM      5  C23 879 d   1      14.385 -10.630  18.199  0.00  0.00     0.047 A 
ATOM      6  H   879 d   1      11.380 -10.098  19.484  0.00  0.00     0.087 H 
ATOM      7  H   879 d   1      13.548 -11.608  19.995  0.00  0.00     0.087 H 
ENDROOT
BRANCH   4   8
ATOM      8  C17 879 d   1      11.655  -8.393  17.119  0.00  0.00    -0.009 A 
ATOM      9  C5  879 d   1      12.091  -7.141  16.649  0.00  0.00    -0.068 A 
ATOM     10  C7  879 d   1      11.201  -6.255  16.028  0.00  0.00    -0.049 A 
ATOM     11  H   879 d   1      13.136  -6.856  16.770  0.00  0.00     0.085 H 
ATOM     12  C19 879 d   1       9.862  -6.626  15.873  0.00  0.00     0.076 A 
ATOM     13  H   879 d   1      11.549  -5.286  15.669  0.00  0.00     0.087 H 
ATOM     14  C8  879 d   1       9.421  -7.864  16.334  0.00  0.00    -0.049 A 
ATOM     15  C6  879 d   1      10.313  -8.740  16.951  0.00  0.00    -0.068 A 
ATOM     16  H   879 d   1       8.376  -8.149  16.212  0.00  0.00     0.087 H 
ATOM     17  H   879 d   1       9.959  -9.707  17.306  0.00  0.00     0.085 H 
BRANCH  12  18
ATOM     18  O1  879 d   1       8.901  -5.838  15.277  0.00  0.00    -0.308 OA
BRANCH  18  19
ATOM     19  C20 879 d   1       9.095  -4.503  15.050  0.00  0.00     0.111 A 
ATOM     20  C14 879 d   1       9.380  -3.942  13.819  0.00  0.00     0.037 A 
ATOM     21  N1  879 d   1       9.550  -2.617  13.626  0.00  0.00    -0.251 NA
ATOM     22  H   879 d   1       9.472  -4.605  12.959  0.00  0.00     0.119 H 
ATOM     23  C16 879 d   1       9.426  -1.860  14.734  0.00  0.00     0.086 A 
ATOM     24  N2  879 d   1       9.151  -2.287  15.981  0.00  0.00    -0.251 NA
ATOM     25  H   879 d   1       9.563  -0.786  14.607  0.00  0.00     0.146 H 
ATOM     26  C15 879 d   1       8.993  -3.620  16.107  0.00  0.00     0.037 A 
ATOM     27  H   879 d   1       8.773  -4.022  17.096  0.00  0.00     0.119 H 
ENDBRANCH  18  19
ENDBRANCH  12  18
ENDBRANCH   4   8
BRANCH   1  28
ATOM     28  C26 879 d   1      14.535  -9.124  16.193  0.00  0.00     0.040 C 
ATOM     29  H   879 d   1      13.841  -9.011  15.360  0.00  0.00     0.074 H 
ATOM     30  H   879 d   1      15.342  -9.790  15.887  0.00  0.00     0.074 H 
BRANCH  28  31
ATOM     31  C24 879 d   1      15.096  -7.783  16.576  0.00  0.00     0.055 A 
ATOM     32  N3  879 d   1      15.444  -6.937  15.577  0.00  0.00    -0.235 NA
ATOM     33  C25 879 d   1      15.951  -5.722  15.894  0.00  0.00     0.121 A 
ATOM     34  C13 879 d   1      16.127  -5.326  17.219  0.00  0.00    -0.039 A 
ATOM     35  C3  879 d   1      15.765  -6.206  18.234  0.00  0.00    -0.077 A 
ATOM     36  H   879 d   1      16.540  -4.346  17.455  0.00  0.00     0.089 H 
ATOM     37  C12 879 d   1      15.244  -7.454  17.917  0.00  0.00    -0.057 A 
ATOM     38  H   879 d   1      15.890  -5.916  19.277  0.00  0.00     0.083 H 
ATOM     39  H   879 d   1      14.959  -8.156  18.700  0.00  0.00     0.086 H 
BRANCH  33  40
ATOM     40  N5  879 d   1      16.306  -4.858  14.863  0.00  0.00    -0.384 N 
ATOM     41  H   879 d   1      16.693  -3.939  15.078  0.00  0.00     0.157 HD
ATOM     42  H   879 d   1      16.179  -5.143  13.892  0.00  0.00     0.157 HD
ENDBRANCH  33  40
ENDBRANCH  28  31
ENDBRANCH   1  28
BRANCH   5  43
ATOM     43  C18 879 d   1      15.726 -11.192  18.036  0.00  0.00     0.013 A 
ATOM     44  C4  879 d   1      16.689 -11.015  19.040  0.00  0.00    -0.069 A 
ATOM     45  C1  879 d   1      17.967 -11.550  18.884  0.00  0.00    -0.082 A 
ATOM     46  H   879 d   1      16.438 -10.459  19.943  0.00  0.00     0.085 H 
ATOM     47  C2  879 d   1      18.299 -12.261  17.733  0.00  0.00    -0.081 A 
ATOM     48  H   879 d   1      18.711 -11.411  19.668  0.00  0.00     0.083 H 
ATOM     49  C9  879 d   1      17.352 -12.444  16.727  0.00  0.00    -0.061 A 
ATOM     50  H   879 d   1      19.301 -12.675  17.619  0.00  0.00     0.083 H 
ATOM     51  C21 879 d   1      16.071 -11.909  16.880  0.00  0.00     0.046 A 
ATOM     52  H   879 d   1      17.610 -13.001  15.826  0.00  0.00     0.086 H 
ATOM     53 CL1  879 d   1      14.933 -12.163  15.605  0.00  0.00    -0.083 Cl
ENDBRANCH   5  43
TORSDOF 7
