REMARK  9 active torsions:
REMARK  status: ('A' for Active; 'I' for Inactive)
REMARK    1  A    between atoms: O1_3  and  C17_23 
REMARK    2  A    between atoms: C26_32  and  O1_3 
REMARK    3  A    between atoms: N3_8  and  C24_30 
REMARK    4  A    between atoms: C22_28  and  N4_10 
REMARK    5  A    between atoms: C15_21  and  C19_25 
REMARK    6  A    between atoms: C20_26  and  C16_22 
REMARK    7  A    between atoms: C24_30  and  C21_27 
REMARK    8  A    between atoms: C25_31  and  C23_29 
REMARK    9  A    between atoms: C25_31  and  C26_32 
ROOT
ATOM      1  C1  625 d   1       9.834  -1.663  13.387  0.00  0.00     0.059 C 
ATOM      2  N1  625 d   1      10.477  -1.502  12.429  0.00  0.00    -0.197 NA
ATOM      3  C23 625 d   1       9.021  -1.822  14.608  0.00  0.00     0.017 C 
ATOM      4  H16 625 d   1       8.190  -1.102  14.571  0.00  0.00     0.055 H 
ATOM      5  H17 625 d   1       9.655  -1.605  15.481  0.00  0.00     0.055 H 
ENDROOT
BRANCH   3   6
ATOM      6  C25 625 d   1       8.441  -3.225  14.766  0.00  0.00    -0.033 C 
ATOM      7  H20 625 d   1       8.391  -3.701  13.775  0.00  0.00     0.037 H 
ATOM      8  H21 625 d   1       7.427  -3.144  15.186  0.00  0.00     0.037 H 
BRANCH   6   9
ATOM      9  C26 625 d   1       9.286  -4.100  15.689  0.00  0.00     0.027 C 
ATOM     10  H22 625 d   1      10.308  -3.699  15.758  0.00  0.00     0.075 H 
ATOM     11  H23 625 d   1       8.837  -4.135  16.692  0.00  0.00     0.075 H 
BRANCH   9  12
ATOM     12  O1  625 d   1       9.310  -5.412  15.115  0.00  0.00    -0.351 OA
BRANCH  12  13
ATOM     13  C17 625 d   1      10.048  -6.398  15.730  0.00  0.00     0.068 A 
ATOM     14  C8  625 d   1      11.421  -6.148  15.838  0.00  0.00    -0.050 A 
ATOM     15  C6  625 d   1      12.263  -7.083  16.445  0.00  0.00    -0.068 A 
ATOM     16  H9  625 d   1      11.833  -5.224  15.449  0.00  0.00     0.087 H 
ATOM     17  C15 625 d   1      11.765  -8.286  16.962  0.00  0.00    -0.009 A 
ATOM     18  H7  625 d   1      13.324  -6.873  16.517  0.00  0.00     0.085 H 
ATOM     19  C7  625 d   1      10.388  -8.533  16.853  0.00  0.00    -0.068 A 
ATOM     20  C9  625 d   1       9.541  -7.596  16.245  0.00  0.00    -0.050 A 
ATOM     21  H8  625 d   1       9.976  -9.457  17.242  0.00  0.00     0.085 H 
ATOM     22  H10 625 d   1       8.479  -7.802  16.173  0.00  0.00     0.087 H 
BRANCH  17  23
ATOM     23  C19 625 d   1      12.644  -9.272  17.609  0.00  0.00     0.045 A 
ATOM     24  N3  625 d   1      13.925  -9.647  17.198  0.00  0.00    -0.340 N 
ATOM     25  C20 625 d   1      14.441 -10.603  18.060  0.00  0.00     0.047 A 
ATOM     26  C12 625 d   1      13.486 -10.839  19.030  0.00  0.00    -0.054 A 
ATOM     27  C11 625 d   1      12.371 -10.019  18.744  0.00  0.00    -0.054 A 
ATOM     28  H13 625 d   1      13.576 -11.532  19.865  0.00  0.00     0.087 H 
ATOM     29  H12 625 d   1      11.448  -9.980  19.321  0.00  0.00     0.087 H 
BRANCH  24  30
ATOM     30  C24 625 d   1      14.641  -9.114  16.047  0.00  0.00     0.040 C 
ATOM     31  H18 625 d   1      13.970  -9.059  15.177  0.00  0.00     0.074 H 
ATOM     32  H19 625 d   1      15.501  -9.756  15.807  0.00  0.00     0.074 H 
BRANCH  30  33
ATOM     33  C21 625 d   1      15.112  -7.741  16.422  0.00  0.00     0.055 A 
ATOM     34  N2  625 d   1      15.471  -6.910  15.419  0.00  0.00    -0.235 NA
ATOM     35  C22 625 d   1      15.893  -5.669  15.738  0.00  0.00     0.121 A 
ATOM     36  C14 625 d   1      15.972  -5.225  17.056  0.00  0.00    -0.039 A 
ATOM     37  C4  625 d   1      15.593  -6.093  18.076  0.00  0.00    -0.077 A 
ATOM     38  H15 625 d   1      16.321  -4.224  17.283  0.00  0.00     0.089 H 
ATOM     39  C13 625 d   1      15.154  -7.371  17.761  0.00  0.00    -0.057 A 
ATOM     40  H3  625 d   1      15.640  -5.772  19.110  0.00  0.00     0.083 H 
ATOM     41  H14 625 d   1      14.852  -8.063  18.539  0.00  0.00     0.086 H 
BRANCH  35  42
ATOM     42  N4  625 d   1      16.272  -4.831  14.703  0.00  0.00    -0.384 N 
ATOM     43  H4  625 d   1      16.600  -3.876  14.907  0.00  0.00     0.157 HD
ATOM     44  H5  625 d   1      16.226  -5.162  13.729  0.00  0.00     0.157 HD
ENDBRANCH  35  42
ENDBRANCH  30  33
ENDBRANCH  24  30
BRANCH  25  45
ATOM     45  C16 625 d   1      15.765 -11.222  17.943  0.00  0.00     0.013 A 
ATOM     46  C5  625 d   1      16.662 -11.017  19.004  0.00  0.00    -0.069 A 
ATOM     47  C2  625 d   1      17.938 -11.577  18.963  0.00  0.00    -0.082 A 
ATOM     48  H6  625 d   1      16.361 -10.421  19.858  0.00  0.00     0.085 H 
ATOM     49  C3  625 d   1      18.337 -12.351  17.872  0.00  0.00    -0.081 A 
ATOM     50  H1  625 d   1      18.625 -11.410  19.784  0.00  0.00     0.083 H 
ATOM     51  C10 625 d   1      17.461 -12.567  16.810  0.00  0.00    -0.061 A 
ATOM     52  H2  625 d   1      19.330 -12.785  17.851  0.00  0.00     0.083 H 
ATOM     53  C18 625 d   1      16.177 -12.007  16.843  0.00  0.00     0.046 A 
ATOM     54  H11 625 d   1      17.772 -13.166  15.962  0.00  0.00     0.086 H 
ATOM     55 CL1  625 d   1      15.149 -12.330  15.485  0.00  0.00    -0.083 Cl
ENDBRANCH  25  45
ENDBRANCH  17  23
ENDBRANCH  12  13
ENDBRANCH   9  12
ENDBRANCH   6   9
ENDBRANCH   3   6
TORSDOF 9
