REMARK WARNING: 32 MAX_TORS EXCEEDED!!!
REMARK  46 active torsions:
REMARK  status: ('A' for Active; 'I' for Inactive)
REMARK    1  A    between atoms: CA_2  and  C_3 
REMARK       I    between atoms: C_3  and  N_8 
REMARK    2  A    between atoms: N_8  and  CA_9 
REMARK    3  A    between atoms: CA_9  and  C_10 
REMARK    4  A    between atoms: CA_9  and  CB_12 
REMARK       I    between atoms: C_10  and  N_19 
REMARK    5  A    between atoms: CB_12  and  CG_13 
REMARK    6  A    between atoms: N_19  and  CA_20 
REMARK    7  A    between atoms: CA_20  and  C_21 
REMARK    8  A    between atoms: CA_20  and  CB_23 
REMARK       I    between atoms: C_21  and  N_28 
REMARK    9  A    between atoms: CB_23  and  CG_24 
REMARK   10  A    between atoms: CG_24  and  CD_25 
REMARK   11  A    between atoms: CD_25  and  CE_26 
REMARK   12  A    between atoms: CE_26  and  NZ_27 
REMARK   13  A    between atoms: N_28  and  CA_29 
REMARK   14  A    between atoms: CA_29  and  C_30 
REMARK   15  A    between atoms: CA_29  and  CB_32 
REMARK       I    between atoms: C_30  and  N_37 
REMARK   16  A    between atoms: CB_32  and  CG_33 
REMARK   17  A    between atoms: CG_33  and  CD_34 
REMARK   18  A    between atoms: CD_34  and  CE_35 
REMARK   19  A    between atoms: CE_35  and  NZ_36 
REMARK   20  A    between atoms: N_37  and  CA_38 
REMARK   21  A    between atoms: CA_38  and  C_39 
REMARK   22  A    between atoms: CA_38  and  CB_41 
REMARK       I    between atoms: C_39  and  N_46 
REMARK   23  A    between atoms: CB_41  and  CG_42 
REMARK   24  A    between atoms: CG_42  and  CD_43 
REMARK   25  A    between atoms: CD_43  and  CE_44 
REMARK   26  A    between atoms: CE_44  and  NZ_45 
REMARK   27  A    between atoms: N_46  and  CA_47 
REMARK   28  A    between atoms: CA_47  and  C_48 
REMARK   29  A    between atoms: CA_47  and  CB_50 
REMARK       I    between atoms: C_48  and  N_57 
REMARK   30  A    between atoms: CB_50  and  CG_51 
REMARK   31  A    between atoms: CG_51  and  CD_52 
REMARK   32  A    between atoms: CD_52  and  NE_53 
REMARK       I    between atoms: NE_53  and  CZ_54 
REMARK       I    between atoms: CZ_54  and  NH1_55 
REMARK       I    between atoms: CZ_54  and  NH2_56 
REMARK   33  A    between atoms: N_57  and  CA_58 
REMARK   34  A    between atoms: CA_58  and  C_59 
REMARK   35  A    between atoms: CA_58  and  CB_61 
REMARK       I    between atoms: C_59  and  N_68 
REMARK   36  A    between atoms: CB_61  and  CG_62 
REMARK   37  A    between atoms: CG_62  and  CD_63 
REMARK   38  A    between atoms: CD_63  and  NE_64 
REMARK       I    between atoms: NE_64  and  CZ_65 
REMARK       I    between atoms: CZ_65  and  NH1_66 
REMARK   39  A    between atoms: N_68  and  CA_69 
REMARK   40  A    between atoms: CA_69  and  C_70 
REMARK   41  A    between atoms: CA_69  and  CB_72 
REMARK       I    between atoms: C_70  and  N_77 
REMARK   42  A    between atoms: CB_72  and  CG_73 
REMARK   43  A    between atoms: CG_73  and  CD_74 
REMARK   44  A    between atoms: N_77  and  CA_78 
REMARK   45  A    between atoms: CA_78  and  C_79 
REMARK   46  A    between atoms: CA_78  and  CB_81 
ROOT
ATOM      1  CA  LYS d   1      38.005  38.976   8.328  0.00  0.00     0.089 C 
ATOM      2  H   LYS d   1      37.376  39.030   7.440  0.00  0.00     0.087 H 
ENDROOT
BRANCH   1   3
ATOM      3  N   LYS d   1      39.311  38.444   7.926  0.00  0.00    -0.346 N 
ATOM      4  C   LYS d   1      39.570  37.929   6.718  0.00  0.00     0.241 C 
ATOM      5  O   LYS d   1      38.734  37.842   5.821  0.00  0.00    -0.271 OA
ATOM      6  H   LYS d   1      40.068  38.468   8.609  0.00  0.00     0.163 HD
BRANCH   4   7
ATOM      7  CA  LYS d   1      40.930  37.317   6.513  0.00  0.00     0.089 C 
ATOM      8  H   LYS d   1      41.406  37.041   7.454  0.00  0.00     0.087 H 
BRANCH   7   9
ATOM      9  N   LYS d   1      40.703  36.145   5.660  0.00  0.00    -0.346 N 
ATOM     10  C   LYS d   1      41.324  34.991   5.820  0.00  0.00     0.241 C 
ATOM     11  O   LYS d   1      42.092  34.760   6.770  0.00  0.00    -0.271 OA
ATOM     12  H   LYS d   1      40.027  36.226   4.900  0.00  0.00     0.163 HD
BRANCH  10  13
ATOM     13  CA  LYS d   1      41.056  33.934   4.719  0.00  0.00     0.089 C 
ATOM     14  H   LYS d   1      40.984  32.983   5.247  0.00  0.00     0.087 H 
BRANCH  13  15
ATOM     15  N   LYS d   1      39.716  34.059   4.004  0.00  0.00    -0.346 N 
ATOM     16  C   PHE d   1      38.510  34.191   4.592  0.00  0.00     0.241 C 
ATOM     17  O   PHE d   1      38.322  34.063   5.808  0.00  0.00    -0.271 OA
ATOM     18  H   LYS d   1      39.733  34.041   2.984  0.00  0.00     0.163 HD
BRANCH  16  19
ATOM     19  CA  PHE d   1      37.305  34.470   3.668  0.00  0.00     0.093 C 
ATOM     20  H   PHE d   1      37.701  34.761   2.695  0.00  0.00     0.088 H 
BRANCH  19  21
ATOM     21  N   PHE d   1      36.464  33.255   3.536  0.00  0.00    -0.346 N 
ATOM     22  C   PRO d   1      36.817  32.062   4.023  0.00  0.00     0.249 C 
ATOM     23  O   PRO d   1      37.913  31.844   4.550  0.00  0.00    -0.271 OA
ATOM     24  H   PHE d   1      35.571  33.334   3.049  0.00  0.00     0.163 HD
BRANCH  22  25
ATOM     25  CA  PRO d   1      35.792  30.926   3.906  0.00  0.00     0.178 C 
ATOM     26  N   PRO d   1      35.953  30.140   2.687  0.00  0.00    -0.062 N 
ATOM     27  CD  PRO d   1      36.938  29.059   2.865  0.00  0.00     0.083 C 
ATOM     28  H   PRO d   1      36.283  30.758   1.946  0.00  0.00     0.278 HD
ATOM     29  H   PRO d   1      35.053  29.721   2.453  0.00  0.00     0.278 HD
ATOM     30  CG  PRO d   1      36.818  28.760   4.337  0.00  0.00    -0.040 C 
ATOM     31  H   PRO d   1      37.947  29.342   2.564  0.00  0.00     0.075 H 
ATOM     32  H   PRO d   1      36.745  28.192   2.233  0.00  0.00     0.075 H 
ATOM     33  CB  PRO d   1      36.025  29.888   5.016  0.00  0.00    -0.028 C 
ATOM     34  H   PRO d   1      36.300  27.811   4.478  0.00  0.00     0.035 H 
ATOM     35  H   PRO d   1      37.812  28.692   4.780  0.00  0.00     0.035 H 
ATOM     36  H   PRO d   1      35.087  29.528   5.439  0.00  0.00     0.036 H 
ATOM     37  H   PRO d   1      36.566  30.312   5.862  0.00  0.00     0.036 H 
ATOM     38  H   PRO d   1      34.821  31.420   3.945  0.00  0.00     0.099 H 
ENDBRANCH  22  25
ENDBRANCH  19  21
BRANCH  19  39
ATOM     39  CB  PHE d   1      36.423  35.617   4.229  0.00  0.00    -0.014 C 
ATOM     40  H   PHE d   1      36.705  35.743   5.274  0.00  0.00     0.043 H 
ATOM     41  H   PHE d   1      35.387  35.326   4.056  0.00  0.00     0.043 H 
BRANCH  39  42
ATOM     42  CG  PHE d   1      36.612  36.981   3.557  0.00  0.00    -0.056 A 
ATOM     43  CD1 PHE d   1      37.030  37.100   2.228  0.00  0.00    -0.077 A 
ATOM     44  CE1 PHE d   1      37.184  38.357   1.631  0.00  0.00    -0.082 A 
ATOM     45  H   PHE d   1      37.239  36.201   1.648  0.00  0.00     0.084 H 
ATOM     46  CZ  PHE d   1      36.900  39.513   2.352  0.00  0.00    -0.083 A 
ATOM     47  H   PHE d   1      37.527  38.430   0.599  0.00  0.00     0.083 H 
ATOM     48  CE2 PHE d   1      36.469  39.418   3.670  0.00  0.00    -0.082 A 
ATOM     49  H   PHE d   1      37.015  40.491   1.884  0.00  0.00     0.083 H 
ATOM     50  CD2 PHE d   1      36.307  38.153   4.261  0.00  0.00    -0.077 A 
ATOM     51  H   PHE d   1      36.258  40.321   4.243  0.00  0.00     0.083 H 
ATOM     52  H   PHE d   1      35.938  38.083   5.284  0.00  0.00     0.084 H 
ENDBRANCH  39  42
ENDBRANCH  19  39
ENDBRANCH  16  19
ENDBRANCH  13  15
BRANCH  13  53
ATOM     53  CB  LYS d   1      42.245  33.883   3.708  0.00  0.00    -0.038 C 
ATOM     54  H   LYS d   1      42.608  32.856   3.663  0.00  0.00     0.036 H 
ATOM     55  H   LYS d   1      43.013  34.576   4.052  0.00  0.00     0.036 H 
BRANCH  53  56
ATOM     56  CG  LYS d   1      41.819  34.305   2.285  0.00  0.00    -0.061 C 
ATOM     57  H   LYS d   1      41.989  35.378   2.200  0.00  0.00     0.033 H 
ATOM     58  H   LYS d   1      40.777  34.013   2.158  0.00  0.00     0.033 H 
BRANCH  56  59
ATOM     59  CD  LYS d   1      42.629  33.621   1.163  0.00  0.00    -0.043 C 
ATOM     60  H   LYS d   1      43.035  32.682   1.539  0.00  0.00     0.035 H 
ATOM     61  H   LYS d   1      43.436  34.284   0.852  0.00  0.00     0.035 H 
BRANCH  59  62
ATOM     62  CE  LYS d   1      41.720  33.327  -0.052  0.00  0.00     0.080 C 
ATOM     63  H   LYS d   1      41.275  34.269  -0.372  0.00  0.00     0.075 H 
ATOM     64  H   LYS d   1      40.976  32.593   0.257  0.00  0.00     0.075 H 
BRANCH  62  65
ATOM     65  NZ  LYS d   1      42.472  32.758  -1.211  0.00  0.00    -0.079 N 
ATOM     66  H   LYS d   1      41.826  32.584  -1.981  0.00  0.00     0.274 HD
ATOM     67  H   LYS d   1      43.188  33.421  -1.509  0.00  0.00     0.274 HD
ATOM     68  H   LYS d   1      42.913  31.882  -0.931  0.00  0.00     0.274 HD
ENDBRANCH  62  65
ENDBRANCH  59  62
ENDBRANCH  56  59
ENDBRANCH  53  56
ENDBRANCH  13  53
ENDBRANCH  10  13
ENDBRANCH   7   9
BRANCH   7  69
ATOM     69  CB  LYS d   1      41.834  38.297   5.838  0.00  0.00    -0.038 C 
ATOM     70  H   LYS d   1      41.778  39.232   6.395  0.00  0.00     0.036 H 
ATOM     71  H   LYS d   1      41.505  38.387   4.803  0.00  0.00     0.036 H 
BRANCH  69  72
ATOM     72  CG  LYS d   1      43.246  37.877   5.819  0.00  0.00    -0.061 C 
ATOM     73  H   LYS d   1      43.322  36.879   5.388  0.00  0.00     0.033 H 
ATOM     74  H   LYS d   1      43.635  37.864   6.837  0.00  0.00     0.033 H 
BRANCH  72  75
ATOM     75  CD  LYS d   1      44.032  38.828   5.003  0.00  0.00    -0.043 C 
ATOM     76  H   LYS d   1      43.914  39.832   5.411  0.00  0.00     0.035 H 
ATOM     77  H   LYS d   1      43.674  38.797   3.974  0.00  0.00     0.035 H 
BRANCH  75  78
ATOM     78  CE  LYS d   1      45.464  38.458   5.030  0.00  0.00     0.080 C 
ATOM     79  H   LYS d   1      45.593  37.455   4.624  0.00  0.00     0.075 H 
ATOM     80  H   LYS d   1      45.829  38.474   6.057  0.00  0.00     0.075 H 
BRANCH  78  81
ATOM     81  NZ  LYS d   1      46.221  39.421   4.220  0.00  0.00    -0.079 N 
ATOM     82  H   LYS d   1      47.210  39.172   4.234  0.00  0.00     0.274 HD
ATOM     83  H   LYS d   1      45.877  39.400   3.260  0.00  0.00     0.274 HD
ATOM     84  H   LYS d   1      46.099  40.358   4.606  0.00  0.00     0.274 HD
ENDBRANCH  78  81
ENDBRANCH  75  78
ENDBRANCH  72  75
ENDBRANCH  69  72
ENDBRANCH   7  69
ENDBRANCH   4   7
ENDBRANCH   1   3
BRANCH   1  85
ATOM     85  C   LYS d   1      38.281  40.318   9.019  0.00  0.00     0.241 C 
ATOM     86  O   LYS d   1      38.973  40.401  10.004  0.00  0.00    -0.271 OA
ATOM     87  N   ARG d   1      37.697  41.363   8.502  0.00  0.00    -0.346 N 
ATOM     88  H   ARG d   1      37.255  41.298   7.585  0.00  0.00     0.163 HD
BRANCH  87  89
ATOM     89  CA  ARG d   1      37.676  42.605   9.222  0.00  0.00     0.089 C 
ATOM     90  H   ARG d   1      38.650  42.839   9.652  0.00  0.00     0.087 H 
BRANCH  89  91
ATOM     91  C   ARG d   1      36.678  42.534  10.434  0.00  0.00     0.241 C 
ATOM     92  O   ARG d   1      35.664  41.804  10.410  0.00  0.00    -0.271 OA
ATOM     93  N   ARG d   1      36.989  43.276  11.497  0.00  0.00    -0.346 N 
ATOM     94  H   ARG d   1      37.928  43.664  11.588  0.00  0.00     0.163 HD
BRANCH  93  95
ATOM     95  CA  ARG d   1      35.986  43.537  12.538  0.00  0.00     0.089 C 
ATOM     96  H   ARG d   1      35.249  42.735  12.486  0.00  0.00     0.087 H 
BRANCH  95  97
ATOM     97  C   ARG d   1      35.225  44.856  12.295  0.00  0.00     0.241 C 
ATOM     98  O   ARG d   1      35.733  45.956  12.552  0.00  0.00    -0.271 OA
ATOM     99  N   GLU d   1      34.030  44.765  11.733  0.00  0.00    -0.346 N 
ATOM    100  H   GLU d   1      33.574  43.855  11.674  0.00  0.00     0.163 HD
BRANCH  99 101
ATOM    101  CA  GLU d   1      33.340  45.962  11.186  0.00  0.00     0.090 C 
ATOM    102  H   GLU d   1      34.082  46.759  11.150  0.00  0.00     0.087 H 
BRANCH 101 103
ATOM    103  C   GLU d   1      32.206  46.526  12.115  0.00  0.00     0.241 C 
ATOM    104  O   GLU d   1      31.697  45.818  12.988  0.00  0.00    -0.271 OA
ATOM    105  N   ALA d   1      31.864  47.807  11.900  0.00  0.00    -0.345 N 
ATOM    106  H   ALA d   1      32.433  48.314  11.222  0.00  0.00     0.163 HD
BRANCH 105 107
ATOM    107  CA  ALA d   1      30.749  48.582  12.534  0.00  0.00     0.093 C 
ATOM    108  H   ALA d   1      30.992  49.606  12.250  0.00  0.00     0.089 H 
BRANCH 107 109
ATOM    109  C   ALA d   1      30.719  48.633  14.064  0.00  0.00     0.196 C 
ATOM    110  O   ALA d   1      31.457  49.403  14.689  0.00  0.00    -0.646 OA
ATOM    111  OXT ALA d   1      29.960  47.915  14.716  0.00  0.00    -0.646 OA
ENDBRANCH 107 109
BRANCH 107 112
ATOM    112  CB  ALA d   1      29.338  48.208  11.941  0.00  0.00    -0.048 C 
ATOM    113  H   ALA d   1      29.327  48.419  10.872  0.00  0.00     0.030 H 
ATOM    114  H   ALA d   1      29.145  47.148  12.106  0.00  0.00     0.030 H 
ATOM    115  H   ALA d   1      28.569  48.800  12.437  0.00  0.00     0.030 H 
ENDBRANCH 107 112
ENDBRANCH 105 107
ENDBRANCH 101 103
BRANCH 101 116
ATOM    116  CB  GLU d   1      32.840  45.691   9.727  0.00  0.00    -0.029 C 
ATOM    117  H   GLU d   1      31.914  45.122   9.811  0.00  0.00     0.037 H 
ATOM    118  H   GLU d   1      33.648  45.176   9.206  0.00  0.00     0.037 H 
BRANCH 116 119
ATOM    119  CG  GLU d   1      32.514  46.961   8.906  0.00  0.00     0.018 C 
ATOM    120  H   GLU d   1      33.453  47.321   8.485  0.00  0.00     0.049 H 
ATOM    121  H   GLU d   1      32.028  47.664   9.582  0.00  0.00     0.049 H 
BRANCH 119 122
ATOM    122  CD  GLU d   1      31.551  46.723   7.730  0.00  0.00     0.172 C 
ATOM    123  OE1 GLU d   1      30.894  47.696   7.271  0.00  0.00    -0.648 OA
ATOM    124  OE2 GLU d   1      31.448  45.568   7.260  0.00  0.00    -0.648 OA
ENDBRANCH 119 122
ENDBRANCH 116 119
ENDBRANCH 101 116
ENDBRANCH  99 101
ENDBRANCH  95  97
BRANCH  95 125
ATOM    125  CB  ARG d   1      36.608  43.510  13.894  0.00  0.00    -0.036 C 
ATOM    126  H   ARG d   1      37.325  44.325  13.993  0.00  0.00     0.036 H 
ATOM    127  H   ARG d   1      37.137  42.569  14.044  0.00  0.00     0.036 H 
BRANCH 125 128
ATOM    128  CG  ARG d   1      35.540  43.654  14.894  0.00  0.00    -0.048 C 
ATOM    129  H   ARG d   1      34.831  42.834  14.787  0.00  0.00     0.035 H 
ATOM    130  H   ARG d   1      35.027  44.603  14.742  0.00  0.00     0.035 H 
BRANCH 128 131
ATOM    131  CD  ARG d   1      36.104  43.625  16.204  0.00  0.00     0.009 C 
ATOM    132  H   ARG d   1      36.744  44.488  16.388  0.00  0.00     0.064 H 
ATOM    133  H   ARG d   1      36.751  42.760  16.347  0.00  0.00     0.064 H 
BRANCH 131 134
ATOM    134  NE  ARG d   1      34.968  43.599  17.097  0.00  0.00    -0.227 N 
ATOM    135  CZ  ARG d   1      35.088  43.727  18.389  0.00  0.00     0.665 C 
ATOM    136  NH1 ARG d   1      36.307  43.908  18.875  0.00  0.00    -0.235 N 
ATOM    137  NH2 ARG d   1      34.027  43.700  19.183  0.00  0.00    -0.235 N 
ATOM    138  H   ARG d   1      37.108  43.943  18.244  0.00  0.00     0.174 HD
ATOM    139  H   ARG d   1      36.445  44.013  19.880  0.00  0.00     0.174 HD
ATOM    140  H   ARG d   1      33.096  43.577  18.786  0.00  0.00     0.174 HD
ATOM    141  H   ARG d   1      34.142  43.802  20.191  0.00  0.00     0.174 HD
ATOM    142  H   ARG d   1      34.036  43.476  16.701  0.00  0.00     0.177 HD
ENDBRANCH 131 134
ENDBRANCH 128 131
ENDBRANCH 125 128
ENDBRANCH  95 125
ENDBRANCH  93  95
ENDBRANCH  89  91
BRANCH  89 143
ATOM    143  CB  ARG d   1      37.256  43.669   8.205  0.00  0.00    -0.036 C 
ATOM    144  H   ARG d   1      36.184  43.618   8.016  0.00  0.00     0.036 H 
ATOM    145  H   ARG d   1      37.758  43.508   7.251  0.00  0.00     0.036 H 
BRANCH 143 146
ATOM    146  CG  ARG d   1      37.630  45.005   8.783  0.00  0.00    -0.048 C 
ATOM    147  H   ARG d   1      38.394  44.813   9.537  0.00  0.00     0.035 H 
ATOM    148  H   ARG d   1      36.706  45.452   9.150  0.00  0.00     0.035 H 
BRANCH 146 149
ATOM    149  CD  ARG d   1      38.224  45.988   7.817  0.00  0.00     0.009 C 
ATOM    150  H   ARG d   1      38.168  45.596   6.801  0.00  0.00     0.064 H 
ATOM    151  H   ARG d   1      39.273  46.162   8.057  0.00  0.00     0.064 H 
BRANCH 149 152
ATOM    152  NE  ARG d   1      37.474  47.232   7.916  0.00  0.00    -0.227 N 
ATOM    153  CZ  ARG d   1      36.673  47.673   6.959  0.00  0.00     0.665 C 
ATOM    154  NH1 ARG d   1      36.581  46.971   5.833  0.00  0.00    -0.235 N 
ATOM    155  NH2 ARG d   1      35.989  48.807   7.121  0.00  0.00    -0.235 N 
ATOM    156  H   ARG d   1      37.121  46.113   5.721  0.00  0.00     0.174 HD
ATOM    157  H   ARG d   1      35.970  47.291   5.081  0.00  0.00     0.174 HD
ATOM    158  H   ARG d   1      36.082  49.339   7.986  0.00  0.00     0.174 HD
ATOM    159  H   ARG d   1      35.373  49.142   6.380  0.00  0.00     0.174 HD
ATOM    160  H   ARG d   1      37.571  47.791   8.764  0.00  0.00     0.177 HD
ENDBRANCH 149 152
ENDBRANCH 146 149
ENDBRANCH 143 146
ENDBRANCH  89 143
ENDBRANCH  87  89
ENDBRANCH   1  85
BRANCH   1 161
ATOM    161  CB  LYS d   1      37.303  38.114   9.376  0.00  0.00    -0.038 C 
ATOM    162  H   LYS d   1      36.457  38.718   9.703  0.00  0.00     0.036 H 
ATOM    163  H   LYS d   1      38.090  37.849  10.082  0.00  0.00     0.036 H 
BRANCH 161 164
ATOM    164  CG  LYS d   1      36.696  36.802   8.983  0.00  0.00    -0.061 C 
ATOM    165  H   LYS d   1      37.368  36.276   8.305  0.00  0.00     0.033 H 
ATOM    166  H   LYS d   1      35.744  36.975   8.481  0.00  0.00     0.033 H 
BRANCH 164 167
ATOM    167  CD  LYS d   1      36.466  35.950  10.249  0.00  0.00    -0.043 C 
ATOM    168  H   LYS d   1      37.461  35.723  10.632  0.00  0.00     0.035 H 
ATOM    169  H   LYS d   1      35.843  35.115   9.929  0.00  0.00     0.035 H 
BRANCH 167 170
ATOM    170  CE  LYS d   1      35.712  36.600  11.423  0.00  0.00     0.080 C 
ATOM    171  H   LYS d   1      34.666  36.318  11.303  0.00  0.00     0.075 H 
ATOM    172  H   LYS d   1      35.937  37.665  11.374  0.00  0.00     0.075 H 
BRANCH 170 173
ATOM    173  NZ  LYS d   1      36.119  36.142  12.839  0.00  0.00    -0.079 N 
ATOM    174  H   LYS d   1      35.556  36.637  13.530  0.00  0.00     0.274 HD
ATOM    175  H   LYS d   1      35.963  35.138  12.928  0.00  0.00     0.274 HD
ATOM    176  H   LYS d   1      37.106  36.349  12.991  0.00  0.00     0.274 HD
ENDBRANCH 170 173
ENDBRANCH 167 170
ENDBRANCH 164 167
ENDBRANCH 161 164
ENDBRANCH   1 161
TORSDOF 46
