REMARK WARNING: 32 MAX_TORS EXCEEDED!!!
REMARK  64 active torsions:
REMARK  status: ('A' for Active; 'I' for Inactive)
REMARK    1  A    between atoms: N_1  and  CA_2 
REMARK    2  A    between atoms: CA_2  and  C_3 
REMARK    3  A    between atoms: CA_2  and  CB_5 
REMARK       I    between atoms: C_3  and  N_11 
REMARK    4  A    between atoms: CB_5  and  CG_6 
REMARK    5  A    between atoms: N_11  and  CA_12 
REMARK    6  A    between atoms: CA_12  and  C_13 
REMARK    7  A    between atoms: CA_12  and  CB_15 
REMARK       I    between atoms: C_13  and  N_20 
REMARK    8  A    between atoms: CB_15  and  CG_16 
REMARK    9  A    between atoms: CG_16  and  CD_17 
REMARK   10  A    between atoms: CD_17  and  CE_18 
REMARK   11  A    between atoms: CE_18  and  NZ_19 
REMARK   12  A    between atoms: N_20  and  CA_21 
REMARK   13  A    between atoms: CA_21  and  C_22 
REMARK   14  A    between atoms: CA_21  and  CB_24 
REMARK       I    between atoms: C_22  and  N_29 
REMARK   15  A    between atoms: CB_24  and  CG_25 
REMARK   16  A    between atoms: CG_25  and  CD_26 
REMARK   17  A    between atoms: CD_26  and  CE_27 
REMARK   18  A    between atoms: CE_27  and  NZ_28 
REMARK   19  A    between atoms: N_29  and  CA_30 
REMARK   20  A    between atoms: CA_30  and  C_31 
REMARK   21  A    between atoms: CA_30  and  CB_33 
REMARK       I    between atoms: C_31  and  N_37 
REMARK   22  A    between atoms: CB_33  and  CG_34 
REMARK   23  A    between atoms: CG_34  and  CD1_35 
REMARK   24  A    between atoms: CG_34  and  CD2_36 
REMARK   25  A    between atoms: N_37  and  CA_38 
REMARK   26  A    between atoms: CA_38  and  C_39 
REMARK   27  A    between atoms: CA_38  and  CB_41 
REMARK       I    between atoms: C_39  and  N_45 
REMARK   28  A    between atoms: CB_41  and  CG_42 
REMARK   29  A    between atoms: CG_42  and  CD1_43 
REMARK   30  A    between atoms: CG_42  and  CD2_44 
REMARK   31  A    between atoms: N_45  and  CA_46 
REMARK   32  A    between atoms: CA_46  and  C_47 
REMARK   33  A    between atoms: CA_46  and  CB_49 
REMARK       I    between atoms: C_47  and  N_54 
REMARK   34  A    between atoms: CB_49  and  CG_50 
REMARK   35  A    between atoms: CG_50  and  CD_51 
REMARK       I    between atoms: CD_51  and  NE2_53 
REMARK   36  A    between atoms: N_54  and  CA_55 
REMARK   37  A    between atoms: CA_55  and  C_56 
REMARK   38  A    between atoms: CA_55  and  CB_58 
REMARK       I    between atoms: C_56  and  N_62 
REMARK   39  A    between atoms: CB_58  and  CG_59 
REMARK   40  A    between atoms: CG_59  and  CD1_60 
REMARK   41  A    between atoms: CG_59  and  CD2_61 
REMARK   42  A    between atoms: N_62  and  CA_63 
REMARK   43  A    between atoms: CA_63  and  C_64 
REMARK   44  A    between atoms: CA_63  and  CB_66 
REMARK       I    between atoms: C_64  and  N_70 
REMARK   45  A    between atoms: CB_66  and  CG_67 
REMARK   46  A    between atoms: CG_67  and  CD1_68 
REMARK   47  A    between atoms: CG_67  and  CD2_69 
REMARK   48  A    between atoms: N_70  and  CA_71 
REMARK   49  A    between atoms: CA_71  and  C_72 
REMARK   50  A    between atoms: CA_71  and  CB_74 
REMARK       I    between atoms: C_72  and  N_77 
REMARK   51  A    between atoms: CB_74  and  OG1_75 
REMARK   52  A    between atoms: CB_74  and  CG2_76 
REMARK   53  A    between atoms: N_77  and  CA_78 
REMARK   54  A    between atoms: CA_78  and  C_79 
REMARK   55  A    between atoms: CA_78  and  CB_81 
REMARK       I    between atoms: C_79  and  N_83 
REMARK   56  A    between atoms: CB_81  and  SG_82 
REMARK   57  A    between atoms: N_83  and  CA_84 
REMARK   58  A    between atoms: CA_84  and  C_85 
REMARK   59  A    between atoms: CA_84  and  CB_87 
REMARK       I    between atoms: C_85  and  N_89 
REMARK   60  A    between atoms: CB_87  and  OG_88 
REMARK   61  A    between atoms: N_89  and  CA_90 
REMARK   62  A    between atoms: CA_90  and  C_91 
REMARK   63  A    between atoms: CA_90  and  CB_93 
REMARK   64  A    between atoms: CB_93  and  OG_94 
ROOT
ATOM      1  C   LEU d   1     -10.890  23.672  21.033  0.00  0.00     0.241 C 
ATOM      2  O   LEU d   1     -10.543  22.827  21.861  0.00  0.00    -0.271 OA
ATOM      3  N   GLN d   1     -11.761  23.422  20.054  0.00  0.00    -0.346 N 
ATOM      4  H58 GLN d   1     -12.047  24.176  19.463  0.00  0.00     0.163 HD
ENDROOT
BRANCH   3   5
ATOM      5  CA  GLN d   1     -12.317  22.085  19.808  0.00  0.00     0.090 C 
ATOM      6  H59 GLN d   1     -12.864  21.771  20.709  0.00  0.00     0.087 H 
BRANCH   5   7
ATOM      7  C   GLN d   1     -11.219  21.050  19.529  0.00  0.00     0.241 C 
ATOM      8  O   GLN d   1     -11.361  19.880  19.894  0.00  0.00    -0.271 OA
ATOM      9  N   LEU d   1     -10.134  21.485  18.884  0.00  0.00    -0.346 N 
ATOM     10  H66 LEU d   1     -10.108  22.434  18.570  0.00  0.00     0.163 HD
BRANCH   9  11
ATOM     11  CA  LEU d   1      -8.978  20.619  18.619  0.00  0.00     0.089 C 
ATOM     12  H67 LEU d   1      -9.361  19.685  18.181  0.00  0.00     0.087 H 
BRANCH  11  13
ATOM     13  C   LEU d   1      -8.196  20.244  19.894  0.00  0.00     0.241 C 
ATOM     14  O   LEU d   1      -7.420  19.284  19.877  0.00  0.00    -0.271 OA
ATOM     15  N   LEU d   1      -8.401  20.997  20.981  0.00  0.00    -0.346 N 
ATOM     16  H77 LEU d   1      -8.991  21.801  20.900  0.00  0.00     0.163 HD
BRANCH  15  17
ATOM     17  CA  LEU d   1      -7.798  20.697  22.293  0.00  0.00     0.089 C 
ATOM     18  H78 LEU d   1      -6.902  20.085  22.109  0.00  0.00     0.087 H 
BRANCH  17  19
ATOM     19  C   LEU d   1      -8.729  19.892  23.218  0.00  0.00     0.241 C 
ATOM     20  O   LEU d   1      -8.273  19.003  23.943  0.00  0.00    -0.271 OA
ATOM     21  N   THR d   1     -10.021  20.216  23.196  0.00  0.00    -0.344 N 
ATOM     22  H88 THR d   1     -10.324  20.949  22.587  0.00  0.00     0.163 HD
BRANCH  21  23
ATOM     23  CA  THR d   1     -11.014  19.536  24.034  0.00  0.00     0.113 C 
ATOM     24  H89 THR d   1     -10.641  19.546  25.069  0.00  0.00     0.091 H 
BRANCH  23  25
ATOM     25  C   THR d   1     -11.232  18.078  23.617  0.00  0.00     0.243 C 
ATOM     26  O   THR d   1     -11.461  17.217  24.469  0.00  0.00    -0.271 OA
ATOM     27  N   CYS d   1     -11.165  17.809  22.313  0.00  0.00    -0.345 N 
ATOM     28  H95 CYS d   1     -10.960  18.550  21.674  0.00  0.00     0.163 HD
BRANCH  27  29
ATOM     29  CA  CYS d   1     -11.383  16.458  21.790  0.00  0.00     0.097 C 
ATOM     30  H96 CYS d   1     -12.309  16.070  22.238  0.00  0.00     0.088 H 
BRANCH  29  31
ATOM     31  C   CYS d   1     -10.240  15.518  22.185  0.00  0.00     0.242 C 
ATOM     32  O   CYS d   1      -9.089  15.716  21.785  0.00  0.00    -0.271 OA
ATOM     33  N   SER d   1     -10.576  14.508  22.989  0.00  0.00    -0.344 N 
ATOM     34 0H10 SER d   1     -11.532  14.421  23.270  0.00  0.00     0.163 HD
BRANCH  33  35
ATOM     35  CA  SER d   1      -9.612  13.519  23.480  0.00  0.00     0.109 C 
ATOM     36 1H10 SER d   1     -10.137  12.861  24.188  0.00  0.00     0.090 H 
BRANCH  35  37
ATOM     37  C   SER d   1      -8.453  14.185  24.236  0.00  0.00     0.243 C 
ATOM     38  O   SER d   1      -7.279  13.979  23.915  0.00  0.00    -0.271 OA
ATOM     39  N   SER d   1      -8.801  14.985  25.241  0.00  0.00    -0.343 N 
ATOM     40 5H10 SER d   1      -9.771  15.100  25.453  0.00  0.00     0.163 HD
BRANCH  39  41
ATOM     41  CA  SER d   1      -7.813  15.701  26.045  0.00  0.00     0.116 C 
ATOM     42 6H10 SER d   1      -7.114  16.209  25.364  0.00  0.00     0.093 H 
BRANCH  41  43
ATOM     43  C   SER d   1      -7.020  14.740  26.926  0.00  0.00     0.198 C 
ATOM     44  O   SER d   1      -5.932  15.075  27.401  0.00  0.00    -0.646 OA
ATOM     45  OXT SER d   1      -7.455  13.613  27.177  0.00  0.00    -0.646 OA
ENDBRANCH  41  43
BRANCH  41  46
ATOM     46  CB  SER d   1      -8.498  16.753  26.919  0.00  0.00     0.045 C 
ATOM     47 7H10 SER d   1      -7.735  17.283  27.508  0.00  0.00     0.077 H 
ATOM     48 8H10 SER d   1      -9.204  16.252  27.598  0.00  0.00     0.077 H 
BRANCH  46  49
ATOM     49  OG  SER d   1      -9.204  17.689  26.126  0.00  0.00    -0.398 OA
ATOM     50 9H10 SER d   1      -8.598  18.127  25.540  0.00  0.00     0.209 HD
ENDBRANCH  46  49
ENDBRANCH  41  46
ENDBRANCH  39  41
ENDBRANCH  35  37
BRANCH  35  51
ATOM     51  CB  SER d   1      -9.095  12.650  22.324  0.00  0.00     0.044 C 
ATOM     52 2H10 SER d   1      -8.528  11.803  22.738  0.00  0.00     0.077 H 
ATOM     53 3H10 SER d   1      -8.435  13.257  21.687  0.00  0.00     0.077 H 
BRANCH  51  54
ATOM     54  OG  SER d   1     -10.165  12.150  21.538  0.00  0.00    -0.398 OA
ATOM     55 4H10 SER d   1      -9.816  11.618  20.833  0.00  0.00     0.209 HD
ENDBRANCH  51  54
ENDBRANCH  35  51
ENDBRANCH  33  35
ENDBRANCH  29  31
BRANCH  29  56
ATOM     56  CB  CYS d   1     -11.569  16.476  20.264  0.00  0.00     0.001 C 
ATOM     57  H97 CYS d   1     -12.438  17.110  20.037  0.00  0.00     0.052 H 
ATOM     58  H98 CYS d   1     -11.771  15.446  19.936  0.00  0.00     0.052 H 
BRANCH  56  59
ATOM     59  SG  CYS d   1     -10.162  17.098  19.307  0.00  0.00    -0.180 SA
ATOM     60  H99 CYS d   1      -9.966  18.049  19.579  0.00  0.00     0.101 HD
ENDBRANCH  56  59
ENDBRANCH  29  56
ENDBRANCH  27  29
ENDBRANCH  23  25
BRANCH  23  61
ATOM     61  CB  THR d   1     -12.375  20.267  23.997  0.00  0.00     0.060 C 
ATOM     62  H90 THR d   1     -12.788  20.196  22.980  0.00  0.00     0.086 H 
BRANCH  61  63
ATOM     63  OG1 THR d   1     -12.189  21.647  24.333  0.00  0.00    -0.393 OA
ATOM     64  H91 THR d   1     -11.598  22.047  23.706  0.00  0.00     0.210 HD
ENDBRANCH  61  63
BRANCH  61  65
ATOM     65  CG2 THR d   1     -13.364  19.636  24.976  0.00  0.00    -0.050 C 
ATOM     66  H92 THR d   1     -14.322  20.175  24.928  0.00  0.00     0.031 H 
ATOM     67  H93 THR d   1     -12.959  19.697  25.997  0.00  0.00     0.031 H 
ATOM     68  H94 THR d   1     -13.523  18.581  24.707  0.00  0.00     0.031 H 
ENDBRANCH  61  65
ENDBRANCH  23  61
ENDBRANCH  21  23
ENDBRANCH  17  19
BRANCH  17  69
ATOM     69  CB  LEU d   1      -7.356  21.984  23.006  0.00  0.00    -0.035 C 
ATOM     70  H79 LEU d   1      -7.186  21.736  24.064  0.00  0.00     0.037 H 
ATOM     71  H80 LEU d   1      -8.181  22.708  22.927  0.00  0.00     0.037 H 
BRANCH  69  72
ATOM     72  CG  LEU d   1      -6.088  22.667  22.481  0.00  0.00    -0.059 C 
ATOM     73  H81 LEU d   1      -5.359  21.885  22.221  0.00  0.00     0.038 H 
BRANCH  72  74
ATOM     74  CD1 LEU d   1      -6.384  23.477  21.229  0.00  0.00    -0.073 C 
ATOM     75  H82 LEU d   1      -5.459  23.955  20.875  0.00  0.00     0.028 H 
ATOM     76  H83 LEU d   1      -7.131  24.250  21.461  0.00  0.00     0.028 H 
ATOM     77  H84 LEU d   1      -6.776  22.811  20.446  0.00  0.00     0.028 H 
ENDBRANCH  72  74
BRANCH  72  78
ATOM     78  CD2 LEU d   1      -5.474  23.554  23.553  0.00  0.00    -0.073 C 
ATOM     79  H85 LEU d   1      -5.266  22.954  24.451  0.00  0.00     0.028 H 
ATOM     80  H86 LEU d   1      -6.176  24.362  23.807  0.00  0.00     0.028 H 
ATOM     81  H87 LEU d   1      -4.536  23.988  23.177  0.00  0.00     0.028 H 
ENDBRANCH  72  78
ENDBRANCH  69  72
ENDBRANCH  17  69
ENDBRANCH  15  17
ENDBRANCH  11  13
BRANCH  11  82
ATOM     82  CB  LEU d   1      -8.040  21.273  17.593  0.00  0.00    -0.035 C 
ATOM     83  H68 LEU d   1      -7.135  20.652  17.521  0.00  0.00     0.037 H 
ATOM     84  H69 LEU d   1      -7.771  22.270  17.971  0.00  0.00     0.037 H 
BRANCH  82  85
ATOM     85  CG  LEU d   1      -8.605  21.445  16.176  0.00  0.00    -0.059 C 
ATOM     86  H70 LEU d   1      -9.667  21.717  16.266  0.00  0.00     0.038 H 
BRANCH  85  87
ATOM     87  CD1 LEU d   1      -7.898  22.565  15.423  0.00  0.00    -0.073 C 
ATOM     88  H71 LEU d   1      -8.329  22.658  14.415  0.00  0.00     0.028 H 
ATOM     89  H72 LEU d   1      -6.826  22.334  15.344  0.00  0.00     0.028 H 
ATOM     90  H73 LEU d   1      -8.029  23.512  15.967  0.00  0.00     0.028 H 
ENDBRANCH  85  87
BRANCH  85  91
ATOM     91  CD2 LEU d   1      -8.517  20.132  15.405  0.00  0.00    -0.073 C 
ATOM     92  H74 LEU d   1      -9.034  19.341  15.968  0.00  0.00     0.028 H 
ATOM     93  H75 LEU d   1      -7.461  19.856  15.270  0.00  0.00     0.028 H 
ATOM     94  H76 LEU d   1      -8.993  20.252  14.421  0.00  0.00     0.028 H 
ENDBRANCH  85  91
ENDBRANCH  82  85
ENDBRANCH  11  82
ENDBRANCH   9  11
ENDBRANCH   5   7
BRANCH   5  95
ATOM     95  CB  GLN d   1     -13.301  22.128  18.631  0.00  0.00    -0.030 C 
ATOM     96  H60 GLN d   1     -12.732  22.369  17.721  0.00  0.00     0.037 H 
ATOM     97  H61 GLN d   1     -14.033  22.925  18.828  0.00  0.00     0.037 H 
BRANCH  95  98
ATOM     98  CG  GLN d   1     -14.070  20.834  18.378  0.00  0.00     0.011 C 
ATOM     99  H62 GLN d   1     -14.688  20.614  19.261  0.00  0.00     0.047 H 
ATOM    100  H63 GLN d   1     -13.346  20.020  18.225  0.00  0.00     0.047 H 
BRANCH  98 101
ATOM    101  CD  GLN d   1     -14.977  20.912  17.159  0.00  0.00     0.215 C 
ATOM    102  OE1 GLN d   1     -15.869  20.077  16.985  0.00  0.00    -0.274 OA
ATOM    103  NE2 GLN d   1     -14.754  21.916  16.310  0.00  0.00    -0.370 N 
ATOM    104  H64 GLN d   1     -15.321  22.015  15.492  0.00  0.00     0.159 HD
ATOM    105  H65 GLN d   1     -14.020  22.570  16.491  0.00  0.00     0.159 HD
ENDBRANCH  98 101
ENDBRANCH  95  98
ENDBRANCH   5  95
ENDBRANCH   3   5
BRANCH   1 106
ATOM    106  CA  LEU d   1     -10.320  25.094  21.093  0.00  0.00     0.089 C 
ATOM    107  H48 LEU d   1      -9.307  25.038  21.519  0.00  0.00     0.087 H 
BRANCH 106 108
ATOM    108  N   LEU d   1     -10.218  25.701  19.757  0.00  0.00    -0.346 N 
ATOM    109  C   LEU d   1      -9.336  25.284  18.846  0.00  0.00     0.241 C 
ATOM    110  O   LEU d   1      -8.519  24.385  19.058  0.00  0.00    -0.271 OA
ATOM    111  H47 LEU d   1     -10.832  26.454  19.523  0.00  0.00     0.163 HD
BRANCH 109 112
ATOM    112  CA  LEU d   1      -9.389  25.977  17.480  0.00  0.00     0.089 C 
ATOM    113  H37 LEU d   1      -8.764  25.402  16.781  0.00  0.00     0.087 H 
BRANCH 112 114
ATOM    114  N   LEU d   1     -10.756  26.013  16.949  0.00  0.00    -0.346 N 
ATOM    115  C   LYS d   1     -11.421  24.906  16.622  0.00  0.00     0.241 C 
ATOM    116  O   LYS d   1     -10.946  23.776  16.754  0.00  0.00    -0.271 OA
ATOM    117  H36 LEU d   1     -11.204  26.899  16.828  0.00  0.00     0.163 HD
BRANCH 115 118
ATOM    118  CA  LYS d   1     -12.837  25.095  16.064  0.00  0.00     0.089 C 
ATOM    119  H24 LYS d   1     -13.404  24.172  16.258  0.00  0.00     0.087 H 
BRANCH 118 120
ATOM    120  N   LYS d   1     -13.543  26.204  16.718  0.00  0.00    -0.346 N 
ATOM    121  C   LYS d   1     -13.809  26.207  18.025  0.00  0.00     0.241 C 
ATOM    122  O   LYS d   1     -13.467  25.300  18.786  0.00  0.00    -0.271 OA
ATOM    123  H23 LYS d   1     -13.835  26.984  16.164  0.00  0.00     0.163 HD
BRANCH 121 124
ATOM    124  CA  LYS d   1     -14.579  27.415  18.565  0.00  0.00     0.089 C 
ATOM    125  H11 LYS d   1     -14.750  27.259  19.640  0.00  0.00     0.087 H 
BRANCH 124 126
ATOM    126  N   LYS d   1     -13.807  28.652  18.405  0.00  0.00    -0.346 N 
ATOM    127  C   HIS d   1     -12.636  28.842  19.018  0.00  0.00     0.249 C 
ATOM    128  O   HIS d   1     -12.121  28.001  19.760  0.00  0.00    -0.271 OA
ATOM    129  H10 LYS d   1     -14.169  29.376  17.818  0.00  0.00     0.163 HD
BRANCH 127 130
ATOM    130  CA  HIS d   1     -11.929  30.176  18.755  0.00  0.00     0.181 C 
ATOM    131  H4  HIS d   1     -10.849  30.024  18.895  0.00  0.00     0.099 H 
BRANCH 130 132
ATOM    132  N   HIS d   1     -12.157  30.639  17.355  0.00  0.00    -0.066 N 
ATOM    133  H1  HIS d   1     -11.682  31.516  17.210  0.00  0.00     0.275 HD
ATOM    134  H2  HIS d   1     -13.145  30.762  17.198  0.00  0.00     0.275 HD
ATOM    135  H3  HIS d   1     -11.798  29.952  16.711  0.00  0.00     0.275 HD
ENDBRANCH 130 132
BRANCH 130 136
ATOM    136  CB  HIS d   1     -12.398  31.248  19.753  0.00  0.00     0.011 C 
ATOM    137  H5  HIS d   1     -13.475  31.413  19.603  0.00  0.00     0.046 H 
ATOM    138  H6  HIS d   1     -11.852  32.179  19.542  0.00  0.00     0.046 H 
BRANCH 136 139
ATOM    139  CG  HIS d   1     -12.173  30.885  21.191  0.00  0.00     0.053 A 
ATOM    140  ND1 HIS d   1     -10.941  30.507  21.682  0.00  0.00    -0.247 NA
ATOM    141  CE1 HIS d   1     -11.044  30.252  22.975  0.00  0.00     0.064 A 
ATOM    142  NE2 HIS d   1     -12.297  30.455  23.341  0.00  0.00    -0.359 N 
ATOM    143  H8  HIS d   1     -10.234  29.930  23.627  0.00  0.00     0.143 H 
ATOM    144  CD2 HIS d   1     -13.023  30.855  22.245  0.00  0.00     0.002 A 
ATOM    145  H9  HIS d   1     -12.669  30.333  24.294  0.00  0.00     0.166 HD
ATOM    146  H7  HIS d   1     -14.084  31.102  22.227  0.00  0.00     0.114 H 
ENDBRANCH 136 139
ENDBRANCH 130 136
ENDBRANCH 127 130
ENDBRANCH 124 126
BRANCH 124 147
ATOM    147  CB  LYS d   1     -15.949  27.527  17.873  0.00  0.00    -0.038 C 
ATOM    148  H12 LYS d   1     -15.782  27.828  16.828  0.00  0.00     0.036 H 
ATOM    149  H13 LYS d   1     -16.532  28.304  18.390  0.00  0.00     0.036 H 
BRANCH 147 150
ATOM    150  CG  LYS d   1     -16.774  26.233  17.871  0.00  0.00    -0.061 C 
ATOM    151  H14 LYS d   1     -17.105  26.023  18.899  0.00  0.00     0.033 H 
ATOM    152  H15 LYS d   1     -16.139  25.409  17.515  0.00  0.00     0.033 H 
BRANCH 150 153
ATOM    153  CD  LYS d   1     -18.001  26.331  16.970  0.00  0.00    -0.043 C 
ATOM    154  H16 LYS d   1     -17.691  26.688  15.977  0.00  0.00     0.035 H 
ATOM    155  H17 LYS d   1     -18.715  27.044  17.409  0.00  0.00     0.035 H 
BRANCH 153 156
ATOM    156  CE  LYS d   1     -18.678  24.972  16.824  0.00  0.00     0.080 C 
ATOM    157  H18 LYS d   1     -18.888  24.575  17.828  0.00  0.00     0.075 H 
ATOM    158  H19 LYS d   1     -17.991  24.293  16.297  0.00  0.00     0.075 H 
BRANCH 156 159
ATOM    159  NZ  LYS d   1     -19.957  25.040  16.062  0.00  0.00    -0.079 N 
ATOM    160  H20 LYS d   1     -20.359  24.118  15.997  0.00  0.00     0.274 HD
ATOM    161  H21 LYS d   1     -19.778  25.395  15.136  0.00  0.00     0.274 HD
ATOM    162  H22 LYS d   1     -20.600  25.653  16.538  0.00  0.00     0.274 HD
ENDBRANCH 156 159
ENDBRANCH 153 156
ENDBRANCH 150 153
ENDBRANCH 147 150
ENDBRANCH 124 147
ENDBRANCH 121 124
ENDBRANCH 118 120
BRANCH 118 163
ATOM    163  CB  LYS d   1     -12.782  25.316  14.543  0.00  0.00    -0.038 C 
ATOM    164  H25 LYS d   1     -12.187  26.220  14.348  0.00  0.00     0.036 H 
ATOM    165  H26 LYS d   1     -13.809  25.468  14.180  0.00  0.00     0.036 H 
BRANCH 163 166
ATOM    166  CG  LYS d   1     -12.164  24.158  13.758  0.00  0.00    -0.061 C 
ATOM    167  H27 LYS d   1     -12.772  23.255  13.919  0.00  0.00     0.033 H 
ATOM    168  H28 LYS d   1     -11.143  23.983  14.127  0.00  0.00     0.033 H 
BRANCH 166 169
ATOM    169  CD  LYS d   1     -12.104  24.451  12.266  0.00  0.00    -0.043 C 
ATOM    170  H29 LYS d   1     -11.597  25.415  12.110  0.00  0.00     0.035 H 
ATOM    171  H30 LYS d   1     -13.129  24.508  11.870  0.00  0.00     0.035 H 
BRANCH 169 172
ATOM    172  CE  LYS d   1     -11.344  23.364  11.520  0.00  0.00     0.080 C 
ATOM    173  H31 LYS d   1     -11.910  22.423  11.589  0.00  0.00     0.075 H 
ATOM    174  H32 LYS d   1     -10.358  23.234  11.990  0.00  0.00     0.075 H 
BRANCH 172 175
ATOM    175  NZ  LYS d   1     -11.151  23.704  10.083  0.00  0.00    -0.079 N 
ATOM    176  H33 LYS d   1     -10.645  22.961   9.627  0.00  0.00     0.274 HD
ATOM    177  H34 LYS d   1     -10.627  24.562  10.008  0.00  0.00     0.274 HD
ATOM    178  H35 LYS d   1     -12.050  23.819   9.641  0.00  0.00     0.274 HD
ENDBRANCH 172 175
ENDBRANCH 169 172
ENDBRANCH 166 169
ENDBRANCH 163 166
ENDBRANCH 118 163
ENDBRANCH 115 118
ENDBRANCH 112 114
BRANCH 112 179
ATOM    179  CB  LEU d   1      -8.823  27.400  17.575  0.00  0.00    -0.035 C 
ATOM    180  H38 LEU d   1      -9.430  27.942  18.315  0.00  0.00     0.037 H 
ATOM    181  H39 LEU d   1      -8.949  27.865  16.586  0.00  0.00     0.037 H 
BRANCH 179 182
ATOM    182  CG  LEU d   1      -7.355  27.582  17.976  0.00  0.00    -0.059 C 
ATOM    183  H40 LEU d   1      -7.237  27.230  19.011  0.00  0.00     0.038 H 
BRANCH 182 184
ATOM    184  CD1 LEU d   1      -6.412  26.771  17.096  0.00  0.00    -0.073 C 
ATOM    185  H41 LEU d   1      -5.374  26.935  17.422  0.00  0.00     0.028 H 
ATOM    186  H42 LEU d   1      -6.522  27.090  16.049  0.00  0.00     0.028 H 
ATOM    187  H43 LEU d   1      -6.659  25.703  17.181  0.00  0.00     0.028 H 
ENDBRANCH 182 184
BRANCH 182 188
ATOM    188  CD2 LEU d   1      -6.996  29.058  17.927  0.00  0.00    -0.073 C 
ATOM    189  H44 LEU d   1      -7.687  29.625  18.568  0.00  0.00     0.028 H 
ATOM    190  H45 LEU d   1      -7.075  29.421  16.892  0.00  0.00     0.028 H 
ATOM    191  H46 LEU d   1      -5.966  29.197  18.286  0.00  0.00     0.028 H 
ENDBRANCH 182 188
ENDBRANCH 179 182
ENDBRANCH 112 179
ENDBRANCH 109 112
ENDBRANCH 106 108
BRANCH 106 192
ATOM    192  CB  LEU d   1     -11.184  25.968  22.012  0.00  0.00    -0.035 C 
ATOM    193  H49 LEU d   1     -12.190  26.010  21.569  0.00  0.00     0.037 H 
ATOM    194  H50 LEU d   1     -10.741  26.975  22.013  0.00  0.00     0.037 H 
BRANCH 192 195
ATOM    195  CG  LEU d   1     -11.352  25.546  23.478  0.00  0.00    -0.059 C 
ATOM    196  H51 LEU d   1     -11.866  24.574  23.498  0.00  0.00     0.038 H 
BRANCH 195 197
ATOM    197  CD1 LEU d   1     -10.007  25.383  24.181  0.00  0.00    -0.073 C 
ATOM    198  H52 LEU d   1     -10.174  25.081  25.226  0.00  0.00     0.028 H 
ATOM    199  H53 LEU d   1      -9.463  26.339  24.158  0.00  0.00     0.028 H 
ATOM    200  H54 LEU d   1      -9.415  24.612  23.666  0.00  0.00     0.028 H 
ENDBRANCH 195 197
BRANCH 195 201
ATOM    201  CD2 LEU d   1     -12.220  26.567  24.211  0.00  0.00    -0.073 C 
ATOM    202  H55 LEU d   1     -13.183  26.670  23.690  0.00  0.00     0.028 H 
ATOM    203  H56 LEU d   1     -11.707  27.540  24.229  0.00  0.00     0.028 H 
ATOM    204  H57 LEU d   1     -12.395  26.226  25.242  0.00  0.00     0.028 H 
ENDBRANCH 195 201
ENDBRANCH 192 195
ENDBRANCH 106 192
ENDBRANCH   1 106
TORSDOF 64
