REMARK WARNING: 32 MAX_TORS EXCEEDED!!!
REMARK  60 active torsions:
REMARK  status: ('A' for Active; 'I' for Inactive)
REMARK    1  A    between atoms: N_1  and  CA_2 
REMARK    2  A    between atoms: CA_2  and  C_3 
REMARK    3  A    between atoms: CA_2  and  CB_5 
REMARK       I    between atoms: C_3  and  N_9 
REMARK    4  A    between atoms: CB_5  and  CG_6 
REMARK       I    between atoms: CG_6  and  ND2_8 
REMARK    5  A    between atoms: N_9  and  CA_10 
REMARK    6  A    between atoms: CA_10  and  C_11 
REMARK    7  A    between atoms: CA_10  and  CB_13 
REMARK       I    between atoms: C_11  and  N_14 
REMARK    8  A    between atoms: N_14  and  CA_15 
REMARK    9  A    between atoms: CA_15  and  C_16 
REMARK   10  A    between atoms: CA_15  and  CB_18 
REMARK       I    between atoms: C_16  and  N_22 
REMARK   11  A    between atoms: CB_18  and  CG_19 
REMARK   12  A    between atoms: CG_19  and  CD1_20 
REMARK   13  A    between atoms: CG_19  and  CD2_21 
REMARK   14  A    between atoms: N_22  and  CA_23 
REMARK   15  A    between atoms: CA_23  and  C_24 
REMARK   16  A    between atoms: CA_23  and  CB_26 
REMARK       I    between atoms: C_24  and  N_30 
REMARK   17  A    between atoms: CB_26  and  CG_27 
REMARK   18  A    between atoms: CG_27  and  CD1_28 
REMARK   19  A    between atoms: CG_27  and  CD2_29 
REMARK   20  A    between atoms: N_30  and  CA_31 
REMARK   21  A    between atoms: CA_31  and  C_32 
REMARK   22  A    between atoms: CA_31  and  CB_34 
REMARK       I    between atoms: C_32  and  N_41 
REMARK   23  A    between atoms: CB_34  and  CG_35 
REMARK   24  A    between atoms: CG_35  and  CD_36 
REMARK   25  A    between atoms: CD_36  and  NE_37 
REMARK       I    between atoms: NE_37  and  CZ_38 
REMARK       I    between atoms: CZ_38  and  NH1_39 
REMARK       I    between atoms: CZ_38  and  NH2_40 
REMARK   26  A    between atoms: N_41  and  CA_42 
REMARK   27  A    between atoms: CA_42  and  C_43 
REMARK   28  A    between atoms: CA_42  and  CB_45 
REMARK       I    between atoms: C_43  and  N_53 
REMARK   29  A    between atoms: CB_45  and  CG_46 
REMARK   30  A    between atoms: CZ_51  and  OH_52 
REMARK   31  A    between atoms: N_53  and  CA_54 
REMARK   32  A    between atoms: CA_54  and  C_55 
REMARK   33  A    between atoms: CA_54  and  CB_57 
REMARK       I    between atoms: C_55  and  N_61 
REMARK   34  A    between atoms: CB_57  and  CG_58 
REMARK   35  A    between atoms: CG_58  and  CD1_59 
REMARK   36  A    between atoms: CG_58  and  CD2_60 
REMARK   37  A    between atoms: N_61  and  CA_62 
REMARK   38  A    between atoms: CA_62  and  C_63 
REMARK   39  A    between atoms: CA_62  and  CB_65 
REMARK       I    between atoms: C_63  and  N_69 
REMARK   40  A    between atoms: CB_65  and  CG_66 
REMARK   41  A    between atoms: CG_66  and  CD1_67 
REMARK   42  A    between atoms: CG_66  and  CD2_68 
REMARK   43  A    between atoms: N_69  and  CA_70 
REMARK   44  A    between atoms: CA_70  and  C_71 
REMARK   45  A    between atoms: CA_70  and  CB_73 
REMARK       I    between atoms: C_71  and  N_77 
REMARK   46  A    between atoms: CB_73  and  CG_74 
REMARK   47  A    between atoms: N_77  and  CA_78 
REMARK   48  A    between atoms: CA_78  and  C_79 
REMARK   49  A    between atoms: CA_78  and  CB_81 
REMARK       I    between atoms: C_79  and  N_88 
REMARK   50  A    between atoms: CB_81  and  CG_82 
REMARK   51  A    between atoms: CG_82  and  CD_83 
REMARK   52  A    between atoms: CD_83  and  NE_84 
REMARK       I    between atoms: NE_84  and  CZ_85 
REMARK       I    between atoms: CZ_85  and  NH1_86 
REMARK   53  A    between atoms: N_88  and  CA_89 
REMARK   54  A    between atoms: CA_89  and  C_90 
REMARK   55  A    between atoms: CA_89  and  CB_92 
REMARK       I    between atoms: C_90  and  N_96 
REMARK   56  A    between atoms: CB_92  and  CG_93 
REMARK   57  A    between atoms: N_96  and  CA_97 
REMARK   58  A    between atoms: CA_97  and  C_98 
REMARK   59  A    between atoms: CA_97  and  CB_100 
REMARK   60  A    between atoms: CB_100  and  CG_101 
ROOT
ATOM      1  CA  TYR d   1     -12.599  21.648  19.695  0.00  0.00     0.093 C 
ATOM      2  H50 TYR d   1     -13.101  21.205  20.568  0.00  0.00     0.088 H 
ENDROOT
BRANCH   1   3
ATOM      3  N   TYR d   1     -12.043  22.936  20.089  0.00  0.00    -0.346 N 
ATOM      4  C   ARG d   1     -11.143  23.057  21.055  0.00  0.00     0.241 C 
ATOM      5  O   ARG d   1     -10.746  22.126  21.743  0.00  0.00    -0.271 OA
ATOM      6  H49 TYR d   1     -12.352  23.759  19.613  0.00  0.00     0.163 HD
BRANCH   4   7
ATOM      7  CA  ARG d   1     -10.660  24.465  21.307  0.00  0.00     0.089 C 
ATOM      8  H37 ARG d   1      -9.736  24.426  21.902  0.00  0.00     0.087 H 
BRANCH   7   9
ATOM      9  N   ARG d   1     -10.371  25.165  20.047  0.00  0.00    -0.346 N 
ATOM     10  C   LEU d   1      -9.516  24.719  19.124  0.00  0.00     0.241 C 
ATOM     11  O   LEU d   1      -8.874  23.684  19.233  0.00  0.00    -0.271 OA
ATOM     12  H36 ARG d   1     -10.844  26.028  19.870  0.00  0.00     0.163 HD
BRANCH  10  13
ATOM     13  CA  LEU d   1      -9.369  25.573  17.872  0.00  0.00     0.089 C 
ATOM     14  H26 LEU d   1      -8.861  24.971  17.104  0.00  0.00     0.087 H 
BRANCH  13  15
ATOM     15  N   LEU d   1     -10.669  26.010  17.312  0.00  0.00    -0.346 N 
ATOM     16  C   LEU d   1     -11.601  25.137  16.938  0.00  0.00     0.241 C 
ATOM     17  O   LEU d   1     -11.420  23.923  16.978  0.00  0.00    -0.271 OA
ATOM     18  H25 LEU d   1     -10.851  26.988  17.212  0.00  0.00     0.163 HD
BRANCH  16  19
ATOM     19  CA  LEU d   1     -12.954  25.705  16.471  0.00  0.00     0.089 C 
ATOM     20  H15 LEU d   1     -13.689  24.888  16.515  0.00  0.00     0.087 H 
BRANCH  19  21
ATOM     21  N   LEU d   1     -13.432  26.776  17.340  0.00  0.00    -0.346 N 
ATOM     22  C   ALA d   1     -13.645  26.599  18.647  0.00  0.00     0.240 C 
ATOM     23  O   ALA d   1     -13.383  25.547  19.245  0.00  0.00    -0.271 OA
ATOM     24  H14 LEU d   1     -13.607  27.677  16.942  0.00  0.00     0.163 HD
BRANCH  22  25
ATOM     25  CA  ALA d   1     -14.207  27.806  19.414  0.00  0.00     0.086 C 
ATOM     26  H10 ALA d   1     -14.095  27.606  20.490  0.00  0.00     0.086 H 
BRANCH  25  27
ATOM     27  N   ALA d   1     -13.446  29.016  19.100  0.00  0.00    -0.346 N 
ATOM     28  C   ASN d   1     -12.149  29.099  19.386  0.00  0.00     0.249 C 
ATOM     29  O   ASN d   1     -11.517  28.153  19.862  0.00  0.00    -0.271 OA
ATOM     30  H9  ALA d   1     -13.906  29.790  18.665  0.00  0.00     0.163 HD
BRANCH  28  31
ATOM     31  CA  ASN d   1     -11.461  30.441  19.091  0.00  0.00     0.183 C 
ATOM     32  H4  ASN d   1     -11.148  30.433  18.037  0.00  0.00     0.099 H 
BRANCH  31  33
ATOM     33  N   ASN d   1     -12.378  31.609  19.284  0.00  0.00    -0.066 N 
ATOM     34  H1  ASN d   1     -11.883  32.463  19.079  0.00  0.00     0.275 HD
ATOM     35  H2  ASN d   1     -12.701  31.629  20.239  0.00  0.00     0.275 HD
ATOM     36  H3  ASN d   1     -13.168  31.522  18.664  0.00  0.00     0.275 HD
ENDBRANCH  31  33
BRANCH  31  37
ATOM     37  CB  ASN d   1     -10.200  30.595  19.965  0.00  0.00     0.044 C 
ATOM     38  H5  ASN d   1      -9.643  31.481  19.626  0.00  0.00     0.051 H 
ATOM     39  H6  ASN d   1      -9.574  29.699  19.841  0.00  0.00     0.051 H 
BRANCH  37  40
ATOM     40  CG  ASN d   1     -10.523  30.760  21.437  0.00  0.00     0.217 C 
ATOM     41  OD1 ASN d   1     -11.246  29.950  22.021  0.00  0.00    -0.274 OA
ATOM     42  ND2 ASN d   1      -9.989  31.815  22.045  0.00  0.00    -0.370 N 
ATOM     43  H7  ASN d   1     -10.167  31.976  23.016  0.00  0.00     0.159 HD
ATOM     44  H8  ASN d   1      -9.409  32.448  21.531  0.00  0.00     0.159 HD
ENDBRANCH  37  40
ENDBRANCH  31  37
ENDBRANCH  28  31
ENDBRANCH  25  27
BRANCH  25  45
ATOM     45  CB  ALA d   1     -15.699  27.996  19.126  0.00  0.00    -0.049 C 
ATOM     46  H11 ALA d   1     -16.241  27.071  19.372  0.00  0.00     0.030 H 
ATOM     47  H12 ALA d   1     -15.840  28.231  18.061  0.00  0.00     0.030 H 
ATOM     48  H13 ALA d   1     -16.088  28.823  19.738  0.00  0.00     0.030 H 
ENDBRANCH  25  45
ENDBRANCH  22  25
ENDBRANCH  19  21
BRANCH  19  49
ATOM     49  CB  LEU d   1     -12.872  26.186  15.012  0.00  0.00    -0.035 C 
ATOM     50  H16 LEU d   1     -12.089  26.956  14.949  0.00  0.00     0.037 H 
ATOM     51  H17 LEU d   1     -13.843  26.627  14.742  0.00  0.00     0.037 H 
BRANCH  49  52
ATOM     52  CG  LEU d   1     -12.544  25.084  13.988  0.00  0.00    -0.059 C 
ATOM     53  H18 LEU d   1     -11.473  24.853  14.086  0.00  0.00     0.038 H 
BRANCH  52  54
ATOM     54  CD1 LEU d   1     -13.335  23.780  14.282  0.00  0.00    -0.073 C 
ATOM     55  H19 LEU d   1     -13.076  23.017  13.533  0.00  0.00     0.028 H 
ATOM     56  H20 LEU d   1     -14.414  23.988  14.236  0.00  0.00     0.028 H 
ATOM     57  H21 LEU d   1     -13.075  23.412  15.285  0.00  0.00     0.028 H 
ENDBRANCH  52  54
BRANCH  52  58
ATOM     58  CD2 LEU d   1     -12.785  25.546  12.558  0.00  0.00    -0.073 C 
ATOM     59  H22 LEU d   1     -12.217  26.469  12.370  0.00  0.00     0.028 H 
ATOM     60  H23 LEU d   1     -13.858  25.739  12.411  0.00  0.00     0.028 H 
ATOM     61  H24 LEU d   1     -12.454  24.764  11.859  0.00  0.00     0.028 H 
ENDBRANCH  52  58
ENDBRANCH  49  52
ENDBRANCH  19  49
ENDBRANCH  16  19
ENDBRANCH  13  15
BRANCH  13  62
ATOM     62  CB  LEU d   1      -8.490  26.768  18.212  0.00  0.00    -0.035 C 
ATOM     63  H27 LEU d   1      -8.898  27.244  19.116  0.00  0.00     0.037 H 
ATOM     64  H28 LEU d   1      -8.539  27.476  17.371  0.00  0.00     0.037 H 
BRANCH  62  65
ATOM     65  CG  LEU d   1      -7.020  26.445  18.472  0.00  0.00    -0.059 C 
ATOM     66  H29 LEU d   1      -6.951  25.657  19.236  0.00  0.00     0.038 H 
BRANCH  65  67
ATOM     67  CD1 LEU d   1      -6.388  25.966  17.208  0.00  0.00    -0.073 C 
ATOM     68  H30 LEU d   1      -5.329  25.733  17.393  0.00  0.00     0.028 H 
ATOM     69  H31 LEU d   1      -6.462  26.751  16.441  0.00  0.00     0.028 H 
ATOM     70  H32 LEU d   1      -6.907  25.061  16.858  0.00  0.00     0.028 H 
ENDBRANCH  65  67
BRANCH  65  71
ATOM     71  CD2 LEU d   1      -6.301  27.675  18.961  0.00  0.00    -0.073 C 
ATOM     72  H33 LEU d   1      -6.768  28.027  19.893  0.00  0.00     0.028 H 
ATOM     73  H34 LEU d   1      -6.365  28.465  18.198  0.00  0.00     0.028 H 
ATOM     74  H35 LEU d   1      -5.245  27.432  19.149  0.00  0.00     0.028 H 
ENDBRANCH  65  71
ENDBRANCH  62  65
ENDBRANCH  13  62
ENDBRANCH  10  13
ENDBRANCH   7   9
BRANCH   7  75
ATOM     75  CB  ARG d   1     -11.744  25.198  22.110  0.00  0.00    -0.036 C 
ATOM     76  H38 ARG d   1     -12.406  24.442  22.558  0.00  0.00     0.036 H 
ATOM     77  H39 ARG d   1     -12.321  25.823  21.413  0.00  0.00     0.036 H 
BRANCH  75  78
ATOM     78  CG  ARG d   1     -11.229  26.087  23.220  0.00  0.00    -0.048 C 
ATOM     79  H40 ARG d   1     -11.991  26.846  23.450  0.00  0.00     0.035 H 
ATOM     80  H41 ARG d   1     -10.308  26.583  22.880  0.00  0.00     0.035 H 
BRANCH  78  81
ATOM     81  CD  ARG d   1     -10.923  25.291  24.491  0.00  0.00     0.009 C 
ATOM     82  H42 ARG d   1     -10.049  24.649  24.307  0.00  0.00     0.064 H 
ATOM     83  H43 ARG d   1     -11.793  24.665  24.737  0.00  0.00     0.064 H 
BRANCH  81  84
ATOM     84  NE  ARG d   1     -10.633  26.177  25.635  0.00  0.00    -0.227 N 
ATOM     85  CZ  ARG d   1     -10.470  25.761  26.892  0.00  0.00     0.665 C 
ATOM     86  NH1 ARG d   1     -10.571  24.465  27.200  0.00  0.00    -0.235 N 
ATOM     87  NH2 ARG d   1     -10.215  26.643  27.850  0.00  0.00    -0.235 N 
ATOM     88  H45 ARG d   1     -10.443  24.156  28.174  0.00  0.00     0.174 HD
ATOM     89  H46 ARG d   1     -10.777  23.775  26.463  0.00  0.00     0.174 HD
ATOM     90  H47 ARG d   1     -10.136  27.644  27.621  0.00  0.00     0.174 HD
ATOM     91  H48 ARG d   1     -10.096  26.327  28.823  0.00  0.00     0.174 HD
ATOM     92  H44 ARG d   1     -10.551  27.187  25.450  0.00  0.00     0.177 HD
ENDBRANCH  81  84
ENDBRANCH  78  81
ENDBRANCH  75  78
ENDBRANCH   7  75
ENDBRANCH   4   7
ENDBRANCH   1   3
BRANCH   1  93
ATOM     93  C   TYR d   1     -11.502  20.700  19.230  0.00  0.00     0.241 C 
ATOM     94  O   TYR d   1     -11.514  19.547  19.631  0.00  0.00    -0.271 OA
ATOM     95  N   LEU d   1     -10.573  21.190  18.388  0.00  0.00    -0.346 N 
ATOM     96  H58 LEU d   1     -10.649  22.142  18.091  0.00  0.00     0.163 HD
BRANCH  95  97
ATOM     97  CA  LEU d   1      -9.445  20.377  17.885  0.00  0.00     0.089 C 
ATOM     98  H59 LEU d   1      -9.874  19.487  17.402  0.00  0.00     0.087 H 
BRANCH  97  99
ATOM     99  C   LEU d   1      -8.502  19.889  19.008  0.00  0.00     0.241 C 
ATOM    100  O   LEU d   1      -7.932  18.792  18.928  0.00  0.00    -0.271 OA
ATOM    101  N   LEU d   1      -8.357  20.717  20.042  0.00  0.00    -0.346 N 
ATOM    102  H69 LEU d   1      -8.803  21.611  20.008  0.00  0.00     0.163 HD
BRANCH 101 103
ATOM    103  CA  LEU d   1      -7.571  20.370  21.225  0.00  0.00     0.089 C 
ATOM    104  H70 LEU d   1      -6.628  19.923  20.877  0.00  0.00     0.087 H 
BRANCH 103 105
ATOM    105  C   LEU d   1      -8.261  19.362  22.145  0.00  0.00     0.241 C 
ATOM    106  O   LEU d   1      -7.609  18.425  22.620  0.00  0.00    -0.271 OA
ATOM    107  N   ASP d   1      -9.556  19.581  22.421  0.00  0.00    -0.346 N 
ATOM    108  H80 ASP d   1     -10.012  20.362  21.993  0.00  0.00     0.163 HD
BRANCH 107 109
ATOM    109  CA  ASP d   1     -10.335  18.718  23.329  0.00  0.00     0.098 C 
ATOM    110  H81 ASP d   1      -9.759  18.607  24.259  0.00  0.00     0.088 H 
BRANCH 109 111
ATOM    111  C   ASP d   1     -10.593  17.327  22.760  0.00  0.00     0.241 C 
ATOM    112  O   ASP d   1     -10.487  16.341  23.495  0.00  0.00    -0.271 OA
ATOM    113  N   ARG d   1     -10.955  17.270  21.472  0.00  0.00    -0.346 N 
ATOM    114  H84 ARG d   1     -10.961  18.116  20.938  0.00  0.00     0.163 HD
BRANCH 113 115
ATOM    115  CA  ARG d   1     -11.343  16.020  20.811  0.00  0.00     0.089 C 
ATOM    116  H85 ARG d   1     -12.158  15.556  21.386  0.00  0.00     0.087 H 
BRANCH 115 117
ATOM    117  C   ARG d   1     -10.157  15.078  20.790  0.00  0.00     0.241 C 
ATOM    118  O   ARG d   1      -9.092  15.448  20.304  0.00  0.00    -0.271 OA
ATOM    119  N   ASP d   1     -10.338  13.879  21.343  0.00  0.00    -0.346 N 
ATOM    120  H97 ASP d   1     -11.256  13.626  21.650  0.00  0.00     0.163 HD
BRANCH 119 121
ATOM    121  CA  ASP d   1      -9.247  12.915  21.520  0.00  0.00     0.098 C 
ATOM    122  H98 ASP d   1      -9.647  12.042  22.056  0.00  0.00     0.088 H 
BRANCH 121 123
ATOM    123  C   ASP d   1      -8.080  13.497  22.363  0.00  0.00     0.241 C 
ATOM    124  O   ASP d   1      -7.452  14.503  21.982  0.00  0.00    -0.271 OA
ATOM    125  N   ASP d   1      -7.805  12.882  23.512  0.00  0.00    -0.344 N 
ATOM    126 1H10 ASP d   1      -8.378  12.118  23.808  0.00  0.00     0.163 HD
BRANCH 125 127
ATOM    127  CA  ASP d   1      -6.675  13.304  24.354  0.00  0.00     0.105 C 
ATOM    128 2H10 ASP d   1      -5.792  13.407  23.706  0.00  0.00     0.090 H 
BRANCH 127 129
ATOM    129  C   ASP d   1      -6.340  12.243  25.431  0.00  0.00     0.197 C 
ATOM    130  O   ASP d   1      -5.553  11.322  25.205  0.00  0.00    -0.646 OA
ATOM    131  OXT ASP d   1      -6.848  12.281  26.553  0.00  0.00    -0.646 OA
ENDBRANCH 127 129
BRANCH 127 132
ATOM    132  CB  ASP d   1      -6.963  14.686  24.979  0.00  0.00     0.044 C 
ATOM    133 3H10 ASP d   1      -7.076  15.422  24.170  0.00  0.00     0.053 H 
ATOM    134 4H10 ASP d   1      -6.112  14.969  25.616  0.00  0.00     0.053 H 
BRANCH 132 135
ATOM    135  CG  ASP d   1      -8.222  14.691  25.820  0.00  0.00     0.175 C 
ATOM    136  OD1 ASP d   1      -8.346  13.808  26.695  0.00  0.00    -0.648 OA
ATOM    137  OD2 ASP d   1      -9.083  15.576  25.619  0.00  0.00    -0.648 OA
ENDBRANCH 132 135
ENDBRANCH 127 132
ENDBRANCH 125 127
ENDBRANCH 121 123
BRANCH 121 138
ATOM    138  CB  ASP d   1      -8.746  12.451  20.152  0.00  0.00     0.043 C 
ATOM    139  H99 ASP d   1      -7.915  11.745  20.300  0.00  0.00     0.052 H 
ATOM    140 0H10 ASP d   1      -8.387  13.327  19.591  0.00  0.00     0.052 H 
BRANCH 138 141
ATOM    141  CG  ASP d   1      -9.813  11.775  19.355  0.00  0.00     0.175 C 
ATOM    142  OD1 ASP d   1     -10.315  10.750  19.844  0.00  0.00    -0.648 OA
ATOM    143  OD2 ASP d   1     -10.145  12.265  18.254  0.00  0.00    -0.648 OA
ENDBRANCH 138 141
ENDBRANCH 121 138
ENDBRANCH 119 121
ENDBRANCH 115 117
BRANCH 115 144
ATOM    144  CB  ARG d   1     -11.836  16.270  19.386  0.00  0.00    -0.036 C 
ATOM    145  H86 ARG d   1     -12.649  17.010  19.424  0.00  0.00     0.036 H 
ATOM    146  H87 ARG d   1     -12.222  15.323  18.981  0.00  0.00     0.036 H 
BRANCH 144 147
ATOM    147  CG  ARG d   1     -10.748  16.794  18.441  0.00  0.00    -0.048 C 
ATOM    148  H88 ARG d   1     -10.015  15.993  18.262  0.00  0.00     0.035 H 
ATOM    149  H89 ARG d   1     -10.247  17.651  18.915  0.00  0.00     0.035 H 
BRANCH 147 150
ATOM    150  CD  ARG d   1     -11.317  17.229  17.133  0.00  0.00     0.009 C 
ATOM    151  H90 ARG d   1     -10.493  17.423  16.431  0.00  0.00     0.064 H 
ATOM    152  H91 ARG d   1     -11.895  18.152  17.284  0.00  0.00     0.064 H 
BRANCH 150 153
ATOM    153  NE  ARG d   1     -12.192  16.208  16.567  0.00  0.00    -0.227 N 
ATOM    154  CZ  ARG d   1     -12.878  16.351  15.436  0.00  0.00     0.665 C 
ATOM    155  NH1 ARG d   1     -12.791  17.474  14.728  0.00  0.00    -0.235 N 
ATOM    156  NH2 ARG d   1     -13.655  15.360  15.005  0.00  0.00    -0.235 N 
ATOM    157  H93 ARG d   1     -13.326  17.574  13.854  0.00  0.00     0.174 HD
ATOM    158  H94 ARG d   1     -12.188  18.243  15.054  0.00  0.00     0.174 HD
ATOM    159  H95 ARG d   1     -13.727  14.488  15.549  0.00  0.00     0.174 HD
ATOM    160  H96 ARG d   1     -14.185  15.465  14.128  0.00  0.00     0.174 HD
ATOM    161  H92 ARG d   1     -12.285  15.318  17.077  0.00  0.00     0.177 HD
ENDBRANCH 150 153
ENDBRANCH 147 150
ENDBRANCH 144 147
ENDBRANCH 115 144
ENDBRANCH 113 115
ENDBRANCH 109 111
BRANCH 109 162
ATOM    162  CB  ASP d   1     -11.689  19.354  23.664  0.00  0.00     0.043 C 
ATOM    163  H82 ASP d   1     -12.273  18.642  24.265  0.00  0.00     0.052 H 
ATOM    164  H83 ASP d   1     -12.221  19.564  22.724  0.00  0.00     0.052 H 
BRANCH 162 165
ATOM    165  CG  ASP d   1     -11.553  20.636  24.436  0.00  0.00     0.175 C 
ATOM    166  OD1 ASP d   1     -12.479  21.455  24.365  0.00  0.00    -0.648 OA
ATOM    167  OD2 ASP d   1     -10.512  20.837  25.103  0.00  0.00    -0.648 OA
ENDBRANCH 162 165
ENDBRANCH 109 162
ENDBRANCH 107 109
ENDBRANCH 103 105
BRANCH 103 168
ATOM    168  CB  LEU d   1      -7.243  21.624  22.048  0.00  0.00    -0.035 C 
ATOM    169  H71 LEU d   1      -7.167  21.305  23.098  0.00  0.00     0.037 H 
ATOM    170  H72 LEU d   1      -8.094  22.311  21.934  0.00  0.00     0.037 H 
BRANCH 168 171
ATOM    171  CG  LEU d   1      -5.983  22.426  21.738  0.00  0.00    -0.059 C 
ATOM    172  H73 LEU d   1      -6.032  22.792  20.702  0.00  0.00     0.038 H 
BRANCH 171 173
ATOM    173  CD1 LEU d   1      -5.945  23.603  22.705  0.00  0.00    -0.073 C 
ATOM    174  H74 LEU d   1      -5.047  24.207  22.512  0.00  0.00     0.028 H 
ATOM    175  H75 LEU d   1      -5.919  23.228  23.739  0.00  0.00     0.028 H 
ATOM    176  H76 LEU d   1      -6.842  24.224  22.563  0.00  0.00     0.028 H 
ENDBRANCH 171 173
BRANCH 171 177
ATOM    177  CD2 LEU d   1      -4.715  21.607  21.911  0.00  0.00    -0.073 C 
ATOM    178  H77 LEU d   1      -4.732  20.754  21.217  0.00  0.00     0.028 H 
ATOM    179  H78 LEU d   1      -4.656  21.237  22.945  0.00  0.00     0.028 H 
ATOM    180  H79 LEU d   1      -3.839  22.237  21.696  0.00  0.00     0.028 H 
ENDBRANCH 171 177
ENDBRANCH 168 171
ENDBRANCH 103 168
ENDBRANCH 101 103
ENDBRANCH  97  99
BRANCH  97 181
ATOM    181  CB  LEU d   1      -8.631  21.147  16.824  0.00  0.00    -0.035 C 
ATOM    182  H60 LEU d   1      -7.693  20.594  16.665  0.00  0.00     0.037 H 
ATOM    183  H61 LEU d   1      -8.405  22.140  17.240  0.00  0.00     0.037 H 
BRANCH 181 184
ATOM    184  CG  LEU d   1      -9.275  21.362  15.450  0.00  0.00    -0.059 C 
ATOM    185  H62 LEU d   1     -10.281  21.779  15.603  0.00  0.00     0.038 H 
BRANCH 184 186
ATOM    186  CD1 LEU d   1      -8.444  22.364  14.656  0.00  0.00    -0.073 C 
ATOM    187  H63 LEU d   1      -8.903  22.521  13.669  0.00  0.00     0.028 H 
ATOM    188  H64 LEU d   1      -7.423  21.974  14.528  0.00  0.00     0.028 H 
ATOM    189  H65 LEU d   1      -8.406  23.320  15.199  0.00  0.00     0.028 H 
ENDBRANCH 184 186
BRANCH 184 190
ATOM    190  CD2 LEU d   1      -9.415  20.062  14.659  0.00  0.00    -0.073 C 
ATOM    191  H66 LEU d   1     -10.015  19.344  15.237  0.00  0.00     0.028 H 
ATOM    192  H67 LEU d   1      -8.418  19.638  14.470  0.00  0.00     0.028 H 
ATOM    193  H68 LEU d   1      -9.913  20.268  13.700  0.00  0.00     0.028 H 
ENDBRANCH 184 190
ENDBRANCH 181 184
ENDBRANCH  97 181
ENDBRANCH  95  97
ENDBRANCH   1  93
BRANCH   1 194
ATOM    194  CB  TYR d   1     -13.623  21.819  18.574  0.00  0.00    -0.014 C 
ATOM    195  H51 TYR d   1     -13.088  22.125  17.663  0.00  0.00     0.043 H 
ATOM    196  H52 TYR d   1     -14.327  22.611  18.869  0.00  0.00     0.043 H 
BRANCH 194 197
ATOM    197  CG  TYR d   1     -14.422  20.570  18.257  0.00  0.00    -0.056 A 
ATOM    198  CD1 TYR d   1     -15.157  19.927  19.252  0.00  0.00    -0.074 A 
ATOM    199  CE1 TYR d   1     -15.899  18.804  18.985  0.00  0.00    -0.051 A 
ATOM    200  H53 TYR d   1     -15.142  20.324  20.261  0.00  0.00     0.084 H 
ATOM    201  CZ  TYR d   1     -15.933  18.286  17.706  0.00  0.00     0.065 A 
ATOM    202  H55 TYR d   1     -16.459  18.323  19.779  0.00  0.00     0.087 H 
ATOM    203  CE2 TYR d   1     -15.222  18.899  16.688  0.00  0.00    -0.051 A 
ATOM    204  CD2 TYR d   1     -14.468  20.050  16.966  0.00  0.00    -0.074 A 
ATOM    205  H56 TYR d   1     -15.248  18.493  15.683  0.00  0.00     0.087 H 
ATOM    206  H54 TYR d   1     -13.917  20.538  16.170  0.00  0.00     0.084 H 
BRANCH 201 207
ATOM    207  OH  TYR d   1     -16.686  17.167  17.434  0.00  0.00    -0.361 OA
ATOM    208  H57 TYR d   1     -17.108  16.870  18.231  0.00  0.00     0.217 HD
ENDBRANCH 201 207
ENDBRANCH 194 197
ENDBRANCH   1 194
TORSDOF 60
