REMARK  2 active torsions:
REMARK  status: ('A' for Active; 'I' for Inactive)
REMARK    1  A    between atoms: C7_7  and  C10_10 
REMARK    2  A    between atoms: C17_17  and  C18_18 
ROOT
ATOM      1  C10 LXX d   1      24.167  13.054  22.732  0.00  0.00    -0.024 A 
ATOM      2  C11 LXX d   1      23.810  11.971  23.492  0.00  0.00    -0.070 A 
ATOM      3  C12 LXX d   1      22.564  11.909  24.061  0.00  0.00    -0.053 A 
ATOM      4  C13 LXX d   1      21.644  12.917  23.900  0.00  0.00     0.067 A 
ATOM      5  N14 LXX d   1      20.447  12.803  24.479  0.00  0.00    -0.260 NA
ATOM      6  C15 LXX d   1      19.603  13.814  24.292  0.00  0.00     0.004 A 
ATOM      7  C16 LXX d   1      19.891  14.935  23.557  0.00  0.00    -0.054 A 
ATOM      8  C17 LXX d   1      21.126  15.046  22.965  0.00  0.00    -0.012 A 
ATOM      9  C24 LXX d   1      22.019  14.013  23.149  0.00  0.00     0.005 A 
ATOM     10  C25 LXX d   1      23.263  14.074  22.566  0.00  0.00    -0.059 A 
ATOM     11  H5  LXX d   1      24.515  11.161  23.644  0.00  0.00     0.084 H 
ATOM     12  H6  LXX d   1      22.297  11.041  24.654  0.00  0.00     0.087 H 
ATOM     13  H7  LXX d   1      18.623  13.747  24.751  0.00  0.00     0.114 H 
ATOM     14  H8  LXX d   1      19.155  15.723  23.445  0.00  0.00     0.087 H 
ATOM     15  H13 LXX d   1      23.533  14.937  21.968  0.00  0.00     0.086 H 
ENDROOT
BRANCH   1  16
ATOM     16  C7  LXX d   1      25.447  13.070  22.086  0.00  0.00    -0.007 A 
ATOM     17  C6  LXX d   1      26.596  12.750  22.788  0.00  0.00     0.015 A 
ATOM     18  N5  LXX d   1      27.869  12.671  22.376  0.00  0.00    -0.240 NA
ATOM     19  H3  LXX d   1      26.442  12.528  23.838  0.00  0.00     0.116 H 
ATOM     20  C4  LXX d   1      27.949  12.963  21.073  0.00  0.00     0.155 A 
ATOM     21  N3  LXX d   1      29.036  12.993  20.295  0.00  0.00    -0.261 N 
ATOM     22  C9  LXX d   1      26.797  13.294  20.341  0.00  0.00     0.031 A 
ATOM     23  N2  LXX d   1      28.553  13.340  19.089  0.00  0.00    -0.185 NA
ATOM     24  H2  LXX d   1      30.012  12.797  20.557  0.00  0.00     0.191 HD
ATOM     25  C1  LXX d   1      27.200  13.533  19.052  0.00  0.00     0.035 A 
ATOM     26  H1  LXX d   1      26.585  13.812  18.198  0.00  0.00     0.118 H 
ATOM     27  C8  LXX d   1      25.489  13.374  20.741  0.00  0.00    -0.056 A 
ATOM     28  H4  LXX d   1      24.642  13.630  20.115  0.00  0.00     0.086 H 
ENDBRANCH   1  16
BRANCH   8  29
ATOM     29  C18 LXX d   1      21.430  16.238  22.214  0.00  0.00    -0.022 A 
ATOM     30  C19 LXX d   1      20.580  16.701  21.238  0.00  0.00    -0.055 A 
ATOM     31  C20 LXX d   1      20.906  17.861  20.574  0.00  0.00     0.003 A 
ATOM     32  H9  LXX d   1      19.671  16.163  20.996  0.00  0.00     0.087 H 
ATOM     33  N21 LXX d   1      21.994  18.600  20.802  0.00  0.00    -0.273 NA
ATOM     34  H10 LXX d   1      20.224  18.202  19.803  0.00  0.00     0.114 H 
ATOM     35  C22 LXX d   1      22.797  18.125  21.756  0.00  0.00     0.003 A 
ATOM     36  C23 LXX d   1      22.564  16.975  22.472  0.00  0.00    -0.055 A 
ATOM     37  H11 LXX d   1      23.697  18.686  21.982  0.00  0.00     0.114 H 
ATOM     38  H12 LXX d   1      23.266  16.652  23.232  0.00  0.00     0.087 H 
ENDBRANCH   8  29
TORSDOF 2
