REMARK  20 active torsions:
REMARK  status: ('A' for Active; 'I' for Inactive)
REMARK    1  A    between atoms: C2_2  and  C33_40 
REMARK    2  A    between atoms: C4_4  and  C14_16 
REMARK    3  A    between atoms: C6_6  and  C7_7 
REMARK       I    between atoms: C7_7  and  N1_8 
REMARK    4  A    between atoms: N1_8  and  C8_10 
REMARK    5  A    between atoms: N1_8  and  C11_13 
REMARK    6  A    between atoms: C8_10  and  C9_11 
REMARK    7  A    between atoms: C9_11  and  C10_12 
REMARK    8  A    between atoms: C11_13  and  C12_14 
REMARK    9  A    between atoms: C12_14  and  C13_15 
REMARK       I    between atoms: C14_16  and  N2_17 
REMARK   10  A    between atoms: N2_17  and  C15_19 
REMARK   11  A    between atoms: C15_19  and  C16_20 
REMARK   12  A    between atoms: C15_19  and  C17_21 
REMARK   13  A    between atoms: C16_20  and  O3_22 
REMARK   14  A    between atoms: C16_20  and  C18_23 
REMARK   15  A    between atoms: C17_21  and  C21_27 
REMARK   16  A    between atoms: C18_23  and  N3_24 
REMARK   17  A    between atoms: N3_24  and  C19_25 
REMARK   18  A    between atoms: C19_25  and  C20_26 
REMARK   19  A    between atoms: C30_36  and  O4_38 
REMARK   20  A    between atoms: O4_38  and  C32_39 
ROOT
ATOM      1  C15 CS5 d   1      22.911  10.679  23.113  0.00  0.00     0.042 C 
ATOM      2  H19 CS5 d   1      22.069  11.269  22.722  0.00  0.00     0.077 H 
ENDROOT
BRANCH   1   3
ATOM      3  N2  CS5 d   1      23.979  11.595  23.511  0.00  0.00    -0.349 N 
ATOM      4  C14 CS5 d   1      23.682  12.903  23.652  0.00  0.00     0.252 C 
ATOM      5  O2  CS5 d   1      22.528  13.331  23.551  0.00  0.00    -0.268 OA
ATOM      6  H18 CS5 d   1      24.907  11.260  23.675  0.00  0.00     0.163 HD
BRANCH   4   7
ATOM      7  C4  CS5 d   1      24.845  13.755  23.937  0.00  0.00     0.033 A 
ATOM      8  C3  CS5 d   1      24.677  14.944  24.706  0.00  0.00    -0.062 A 
ATOM      9  C2  CS5 d   1      25.793  15.787  24.977  0.00  0.00    -0.060 A 
ATOM     10  H2  CS5 d   1      23.697  15.207  25.086  0.00  0.00     0.085 H 
ATOM     11  C1  CS5 d   1      27.081  15.443  24.479  0.00  0.00    -0.062 A 
ATOM     12  C6  CS5 d   1      27.262  14.248  23.723  0.00  0.00     0.033 A 
ATOM     13  H1  CS5 d   1      27.927  16.092  24.675  0.00  0.00     0.085 H 
ATOM     14  C5  CS5 d   1      26.139  13.406  23.447  0.00  0.00    -0.052 A 
ATOM     15  H3  CS5 d   1      26.271  12.501  22.865  0.00  0.00     0.086 H 
BRANCH   9  16
ATOM     16  C33 CS5 d   1      25.619  17.008  25.780  0.00  0.00    -0.051 C 
ATOM     17  H40 CS5 d   1      26.586  17.522  25.880  0.00  0.00     0.033 H 
ATOM     18  H41 CS5 d   1      25.242  16.740  26.778  0.00  0.00     0.033 H 
ATOM     19  H42 CS5 d   1      24.899  17.674  25.283  0.00  0.00     0.033 H 
ENDBRANCH   9  16
BRANCH  12  20
ATOM     20  C7  CS5 d   1      28.622  13.862  23.312  0.00  0.00     0.253 C 
ATOM     21  N1  CS5 d   1      28.852  13.680  21.972  0.00  0.00    -0.348 N 
ATOM     22  O1  CS5 d   1      29.525  13.705  24.133  0.00  0.00    -0.267 OA
BRANCH  21  23
ATOM     23  C8  CS5 d   1      27.923  14.111  20.916  0.00  0.00    -0.002 C 
ATOM     24  H4  CS5 d   1      27.049  14.590  21.381  0.00  0.00     0.064 H 
ATOM     25  H5  CS5 d   1      27.597  13.230  20.344  0.00  0.00     0.064 H 
BRANCH  23  26
ATOM     26  C9  CS5 d   1      28.583  15.098  19.970  0.00  0.00    -0.053 C 
ATOM     27  H6  CS5 d   1      27.861  15.376  19.187  0.00  0.00     0.034 H 
ATOM     28  H7  CS5 d   1      29.457  14.616  19.508  0.00  0.00     0.034 H 
BRANCH  26  29
ATOM     29  C10 CS5 d   1      29.038  16.355  20.682  0.00  0.00    -0.075 C 
ATOM     30  H8  CS5 d   1      29.508  17.037  19.958  0.00  0.00     0.027 H 
ATOM     31  H9  CS5 d   1      29.766  16.091  21.463  0.00  0.00     0.027 H 
ATOM     32  H10 CS5 d   1      28.170  16.850  21.142  0.00  0.00     0.027 H 
ENDBRANCH  26  29
ENDBRANCH  23  26
ENDBRANCH  21  23
BRANCH  21  33
ATOM     33  C11 CS5 d   1      30.124  13.059  21.607  0.00  0.00    -0.002 C 
ATOM     34  H11 CS5 d   1      30.794  13.080  22.479  0.00  0.00     0.064 H 
ATOM     35  H12 CS5 d   1      30.576  13.631  20.783  0.00  0.00     0.064 H 
BRANCH  33  36
ATOM     36  C12 CS5 d   1      29.939  11.609  21.160  0.00  0.00    -0.053 C 
ATOM     37  H13 CS5 d   1      30.926  11.185  20.921  0.00  0.00     0.034 H 
ATOM     38  H14 CS5 d   1      29.306  11.596  20.260  0.00  0.00     0.034 H 
BRANCH  36  39
ATOM     39  C13 CS5 d   1      29.292  10.756  22.216  0.00  0.00    -0.075 C 
ATOM     40  H15 CS5 d   1      29.184   9.727  21.841  0.00  0.00     0.027 H 
ATOM     41  H16 CS5 d   1      28.300  11.163  22.459  0.00  0.00     0.027 H 
ATOM     42  H17 CS5 d   1      29.919  10.753  23.120  0.00  0.00     0.027 H 
ENDBRANCH  36  39
ENDBRANCH  33  36
ENDBRANCH  21  33
ENDBRANCH  12  20
ENDBRANCH   4   7
ENDBRANCH   1   3
BRANCH   1  43
ATOM     43  C16 CS5 d   1      22.428   9.891  24.339  0.00  0.00     0.078 C 
ATOM     44  H20 CS5 d   1      21.798   9.053  24.007  0.00  0.00     0.088 H 
BRANCH  43  45
ATOM     45  O3  CS5 d   1      23.564   9.386  25.043  0.00  0.00    -0.392 OA
ATOM     46  H23 CS5 d   1      23.272   8.897  25.803  0.00  0.00     0.210 HD
ENDBRANCH  43  45
BRANCH  43  47
ATOM     47  C18 CS5 d   1      21.615  10.794  25.275  0.00  0.00     0.107 C 
ATOM     48  H24 CS5 d   1      20.831  11.307  24.699  0.00  0.00     0.079 H 
ATOM     49  H25 CS5 d   1      22.280  11.540  25.734  0.00  0.00     0.079 H 
BRANCH  47  50
ATOM     50  N3  CS5 d   1      20.993   9.975  26.331  0.00  0.00    -0.069 N 
ATOM     51  H26 CS5 d   1      21.718   9.597  26.921  0.00  0.00     0.277 HD
ATOM     52  H27 CS5 d   1      20.481   9.220  25.901  0.00  0.00     0.277 HD
BRANCH  50  53
ATOM     53  C19 CS5 d   1      20.064  10.772  27.163  0.00  0.00     0.105 C 
ATOM     54  H28 CS5 d   1      20.614  11.631  27.574  0.00  0.00     0.083 H 
ATOM     55  H29 CS5 d   1      19.703  10.139  27.987  0.00  0.00     0.083 H 
BRANCH  53  56
ATOM     56  C20 CS5 d   1      18.860  11.294  26.394  0.00  0.00    -0.030 A 
ATOM     57  C27 CS5 d   1      18.529  12.682  26.455  0.00  0.00    -0.075 A 
ATOM     58  C28 CS5 d   1      17.411  13.180  25.721  0.00  0.00    -0.080 A 
ATOM     59  H33 CS5 d   1      19.126  13.356  27.058  0.00  0.00     0.084 H 
ATOM     60  C29 CS5 d   1      16.621  12.291  24.924  0.00  0.00    -0.051 A 
ATOM     61  H34 CS5 d   1      17.160  14.233  25.767  0.00  0.00     0.083 H 
ATOM     62  C30 CS5 d   1      16.949  10.903  24.861  0.00  0.00     0.068 A 
ATOM     63  H35 CS5 d   1      15.773  12.672  24.367  0.00  0.00     0.087 H 
ATOM     64  C31 CS5 d   1      18.069  10.406  25.606  0.00  0.00    -0.043 A 
ATOM     65  H36 CS5 d   1      18.316   9.351  25.570  0.00  0.00     0.088 H 
BRANCH  62  66
ATOM     66  O4  CS5 d   1      16.197  10.064  24.049  0.00  0.00    -0.356 OA
BRANCH  66  67
ATOM     67  C32 CS5 d   1      15.795   8.862  24.717  0.00  0.00     0.010 C 
ATOM     68  H37 CS5 d   1      15.205   8.239  24.028  0.00  0.00     0.066 H 
ATOM     69  H38 CS5 d   1      15.184   9.117  25.595  0.00  0.00     0.066 H 
ATOM     70  H39 CS5 d   1      16.687   8.306  25.041  0.00  0.00     0.066 H 
ENDBRANCH  66  67
ENDBRANCH  62  66
ENDBRANCH  53  56
ENDBRANCH  50  53
ENDBRANCH  47  50
ENDBRANCH  43  47
ENDBRANCH   1  43
BRANCH   1  71
ATOM     71  C17 CS5 d   1      23.394   9.732  22.003  0.00  0.00    -0.020 C 
ATOM     72  H21 CS5 d   1      22.544   9.138  21.636  0.00  0.00     0.043 H 
ATOM     73  H22 CS5 d   1      24.164   9.059  22.409  0.00  0.00     0.043 H 
BRANCH  71  74
ATOM     74  C21 CS5 d   1      23.980  10.530  20.856  0.00  0.00    -0.050 A 
ATOM     75  C22 CS5 d   1      25.332  10.321  20.457  0.00  0.00    -0.039 A 
ATOM     76  C23 CS5 d   1      25.883  11.083  19.387  0.00  0.00     0.119 A 
ATOM     77  H30 CS5 d   1      25.940   9.583  20.967  0.00  0.00     0.089 H 
ATOM     78  C24 CS5 d   1      25.084  12.053  18.717  0.00  0.00    -0.009 A 
ATOM     79  F2  CS5 d   1      27.151  10.893  19.013  0.00  0.00    -0.206 F 
ATOM     80  C25 CS5 d   1      23.735  12.262  19.119  0.00  0.00     0.119 A 
ATOM     81  H31 CS5 d   1      25.503  12.632  17.902  0.00  0.00     0.092 H 
ATOM     82  C26 CS5 d   1      23.183  11.499  20.182  0.00  0.00    -0.039 A 
ATOM     83  F1  CS5 d   1      22.991  13.192  18.513  0.00  0.00    -0.206 F 
ATOM     84  H32 CS5 d   1      22.153  11.655  20.481  0.00  0.00     0.089 H 
ENDBRANCH  71  74
ENDBRANCH   1  71
TORSDOF 20
