REMARK  8 active torsions:
REMARK  status: ('A' for Active; 'I' for Inactive)
REMARK    1  A    between atoms: C1_1  and  N3_7 
REMARK    2  A    between atoms: N2_5  and  C6_10 
REMARK    3  A    between atoms: C3_6  and  C4_8 
REMARK    4  A    between atoms: C3_6  and  C5_9 
REMARK    5  A    between atoms: C4_8  and  C15_19 
REMARK    6  A    between atoms: C6_10  and  C7_11 
REMARK    7  A    between atoms: C15_19  and  C13_17 
REMARK    8  A    between atoms: C15_19  and  C14_18 
ROOT
ATOM      1  C1  BDO d   1      22.165   9.813  23.683  0.00  0.00     0.678 A 
ATOM      2  N1  BDO d   1      21.748   9.312  22.499  0.00  0.00    -0.208 N 
ATOM      3  O1  BDO d   1      21.328  12.806  22.337  0.00  0.00    -0.270 OA
ATOM      4  C2  BDO d   1      21.534  11.629  22.632  0.00  0.00     0.267 A 
ATOM      5  N2  BDO d   1      22.027  11.149  23.789  0.00  0.00    -0.145 N 
ATOM      6  C3  BDO d   1      21.256  10.437  21.718  0.00  0.00     0.126 A 
ATOM      7  H   BDO d   1      21.773   8.334  22.209  0.00  0.00     0.179 HD
ENDROOT
BRANCH   6   8
ATOM      8  C4  BDO d   1      22.022  10.580  20.397  0.00  0.00    -0.030 C 
ATOM      9  H   BDO d   1      21.542  11.370  19.819  0.00  0.00     0.037 H 
ATOM     10  H   BDO d   1      22.002   9.612  19.895  0.00  0.00     0.037 H 
BRANCH   8  11
ATOM     11  C15 BDO d   1      23.489  10.973  20.595  0.00  0.00    -0.059 C 
ATOM     12  H   BDO d   1      23.535  11.711  21.396  0.00  0.00     0.039 H 
BRANCH  11  13
ATOM     13  C13 BDO d   1      24.328   9.790  21.046  0.00  0.00    -0.073 C 
ATOM     14  H   BDO d   1      23.941   9.412  21.992  0.00  0.00     0.028 H 
ATOM     15  H   BDO d   1      24.280   9.004  20.292  0.00  0.00     0.028 H 
ATOM     16  H   BDO d   1      25.362  10.108  21.176  0.00  0.00     0.028 H 
ENDBRANCH  11  13
BRANCH  11  17
ATOM     17  C14 BDO d   1      24.049  11.630  19.343  0.00  0.00    -0.073 C 
ATOM     18  H   BDO d   1      23.982  10.933  18.508  0.00  0.00     0.028 H 
ATOM     19  H   BDO d   1      23.473  12.527  19.116  0.00  0.00     0.028 H 
ATOM     20  H   BDO d   1      25.092  11.899  19.511  0.00  0.00     0.028 H 
ENDBRANCH  11  17
ENDBRANCH   8  11
ENDBRANCH   6   8
BRANCH   6  21
ATOM     21  C5  BDO d   1      19.727  10.355  21.539  0.00  0.00    -0.044 C 
ATOM     22  H   BDO d   1      19.370  11.262  21.052  0.00  0.00     0.031 H 
ATOM     23  H   BDO d   1      19.480   9.490  20.924  0.00  0.00     0.031 H 
ATOM     24  H   BDO d   1      19.253  10.255  22.515  0.00  0.00     0.031 H 
ENDBRANCH   6  21
BRANCH   1  25
ATOM     25  N3  BDO d   1      22.660   9.073  24.671  0.00  0.00    -0.234 N 
ATOM     26  H   BDO d   1      22.949   9.515  25.544  0.00  0.00     0.174 HD
ATOM     27  H   BDO d   1      22.750   8.063  24.556  0.00  0.00     0.174 HD
ENDBRANCH   1  25
BRANCH   5  28
ATOM     28  C6  BDO d   1      22.324  11.946  24.979  0.00  0.00     0.043 C 
ATOM     29  H   BDO d   1      22.841  12.855  24.671  0.00  0.00     0.073 H 
ATOM     30  H   BDO d   1      22.944  11.353  25.651  0.00  0.00     0.073 H 
BRANCH  28  31
ATOM     31  C7  BDO d   1      21.054  12.331  25.703  0.00  0.00    -0.038 A 
ATOM     32  C8  BDO d   1      20.648  11.614  26.867  0.00  0.00    -0.075 A 
ATOM     33  C9  BDO d   1      19.431  11.957  27.525  0.00  0.00    -0.081 A 
ATOM     34  H   BDO d   1      21.268  10.805  27.253  0.00  0.00     0.084 H 
ATOM     35  C10 BDO d   1      18.622  13.021  27.024  0.00  0.00    -0.062 A 
ATOM     36  H   BDO d   1      19.118  11.406  28.412  0.00  0.00     0.083 H 
ATOM     37  C11 BDO d   1      19.033  13.744  25.865  0.00  0.00     0.034 A 
ATOM     38  H   BDO d   1      17.691  13.281  27.527  0.00  0.00     0.086 H 
ATOM     39  C12 BDO d   1      20.250  13.400  25.208  0.00  0.00    -0.054 A 
ATOM     40 CL1  BDO d   1      18.053  15.037  25.245  0.00  0.00    -0.084 Cl
ATOM     41  H   BDO d   1      20.567  13.955  24.325  0.00  0.00     0.086 H 
ENDBRANCH  28  31
ENDBRANCH   5  28
TORSDOF 8
