REMARK  11 active torsions:
REMARK  status: ('A' for Active; 'I' for Inactive)
REMARK    1  A    between atoms: C1_1  and  C4_9 
REMARK    2  A    between atoms: C1_1  and  C5_11 
REMARK    3  A    between atoms: C2_4  and  N3_8 
REMARK    4  A    between atoms: C9_17  and  N2_5 
REMARK    5  A    between atoms: N4_10  and  C16_24 
REMARK       I    between atoms: C22_30  and  N4_10 
REMARK    6  A    between atoms: C5_11  and  C6_13 
REMARK    7  A    between atoms: C17_25  and  N5_12 
REMARK       I    between atoms: N5_12  and  C22_30 
REMARK    8  A    between atoms: C6_13  and  C7_15 
REMARK    9  A    between atoms: C6_13  and  C8_16 
REMARK   10  A    between atoms: C10_18  and  C9_17 
REMARK   11  A    between atoms: C16_24  and  C13_21 
ROOT
ATOM      1  N6  BDQ d   1      26.201  21.063  21.496  0.00  0.00    -0.191 NA
ATOM      2  C17 BDQ d   1      25.400  16.444  18.715  0.00  0.00     0.036 A 
ATOM      3  C18 BDQ d   1      24.583  16.755  19.842  0.00  0.00    -0.056 A 
ATOM      4  C19 BDQ d   1      26.430  17.347  18.312  0.00  0.00    -0.056 A 
ATOM      5  C20 BDQ d   1      24.793  17.963  20.569  0.00  0.00    -0.061 A 
ATOM      6  C21 BDQ d   1      26.641  18.557  19.041  0.00  0.00    -0.061 A 
ATOM      7  C23 BDQ d   1      25.823  18.865  20.168  0.00  0.00     0.044 A 
ATOM      8  C24 BDQ d   1      26.034  20.082  20.901  0.00  0.00     0.099 C 
ATOM      9  H   BDQ d   1      23.795  16.067  20.148  0.00  0.00     0.087 H 
ATOM     10  H   BDQ d   1      27.054  17.113  17.450  0.00  0.00     0.087 H 
ATOM     11  H   BDQ d   1      24.167  18.197  21.430  0.00  0.00     0.085 H 
ATOM     12  H   BDQ d   1      27.428  19.246  18.735  0.00  0.00     0.085 H 
ENDROOT
BRANCH   2  13
ATOM     13  N5  BDQ d   1      25.198  15.291  18.021  0.00  0.00    -0.309 N 
ATOM     14  C22 BDQ d   1      25.361  14.078  18.593  0.00  0.00     0.320 C 
ATOM     15  O2  BDQ d   1      25.699  13.926  19.770  0.00  0.00    -0.247 OA
ATOM     16  N4  BDQ d   1      25.119  13.041  17.763  0.00  0.00    -0.339 N 
ATOM     17  H   BDQ d   1      24.840  13.205  16.796  0.00  0.00     0.164 HD
ATOM     18  H   BDQ d   1      24.916  15.344  17.042  0.00  0.00     0.170 HD
BRANCH  16  19
ATOM     19  C16 BDQ d   1      25.263  11.677  18.275  0.00  0.00     0.021 C 
ATOM     20  H   BDQ d   1      26.217  11.614  18.798  0.00  0.00     0.071 H 
ATOM     21  H   BDQ d   1      25.204  10.992  17.429  0.00  0.00     0.071 H 
BRANCH  19  22
ATOM     22  C13 BDQ d   1      24.165  11.304  19.257  0.00  0.00    -0.040 A 
ATOM     23  C12 BDQ d   1      24.309  10.147  20.074  0.00  0.00    -0.075 A 
ATOM     24  C11 BDQ d   1      23.285   9.788  20.997  0.00  0.00    -0.075 A 
ATOM     25  H   BDQ d   1      25.206   9.534  19.993  0.00  0.00     0.084 H 
ATOM     26  C10 BDQ d   1      22.111  10.590  21.106  0.00  0.00    -0.039 A 
ATOM     27  H   BDQ d   1      23.399   8.901  21.620  0.00  0.00     0.084 H 
ATOM     28  C15 BDQ d   1      21.965  11.748  20.292  0.00  0.00    -0.075 A 
ATOM     29  C14 BDQ d   1      22.989  12.105  19.368  0.00  0.00    -0.075 A 
ATOM     30  H   BDQ d   1      21.069  12.363  20.375  0.00  0.00     0.084 H 
ATOM     31  H   BDQ d   1      22.874  12.992  18.745  0.00  0.00     0.084 H 
BRANCH  26  32
ATOM     32  C9  BDQ d   1      21.024  10.215  22.089  0.00  0.00     0.043 C 
ATOM     33  H   BDQ d   1      20.065  10.570  21.711  0.00  0.00     0.073 H 
ATOM     34  H   BDQ d   1      21.009   9.131  22.205  0.00  0.00     0.073 H 
BRANCH  32  35
ATOM     35  N2  BDQ d   1      21.280  10.831  23.392  0.00  0.00    -0.145 N 
ATOM     36  C2  BDQ d   1      21.930  10.252  24.427  0.00  0.00     0.678 A 
ATOM     37  N1  BDQ d   1      22.097  11.064  25.492  0.00  0.00    -0.208 N 
ATOM     38  C1  BDQ d   1      21.488  12.340  25.146  0.00  0.00     0.126 A 
ATOM     39  H   BDQ d   1      22.560  10.829  26.370  0.00  0.00     0.179 HD
ATOM     40  C3  BDQ d   1      20.965  12.097  23.730  0.00  0.00     0.267 A 
ATOM     41  O1  BDQ d   1      20.370  12.933  23.046  0.00  0.00    -0.270 OA
BRANCH  36  42
ATOM     42  N3  BDQ d   1      22.364   8.996  24.383  0.00  0.00    -0.234 N 
ATOM     43  H   BDQ d   1      22.211   8.432  23.547  0.00  0.00     0.174 HD
ATOM     44  H   BDQ d   1      22.850   8.596  25.186  0.00  0.00     0.174 HD
ENDBRANCH  36  42
BRANCH  38  45
ATOM     45  C4  BDQ d   1      22.540  13.460  25.055  0.00  0.00    -0.044 C 
ATOM     46  H   BDQ d   1      23.348  13.145  24.395  0.00  0.00     0.031 H 
ATOM     47  H   BDQ d   1      22.075  14.362  24.657  0.00  0.00     0.031 H 
ATOM     48  H   BDQ d   1      22.939  13.664  26.049  0.00  0.00     0.031 H 
ENDBRANCH  38  45
BRANCH  38  49
ATOM     49  C5  BDQ d   1      20.332  12.659  26.083  0.00  0.00    -0.030 C 
ATOM     50  H   BDQ d   1      19.626  13.298  25.553  0.00  0.00     0.037 H 
ATOM     51  H   BDQ d   1      20.733  13.151  26.969  0.00  0.00     0.037 H 
BRANCH  49  52
ATOM     52  C6  BDQ d   1      19.598  11.392  26.525  0.00  0.00    -0.059 C 
ATOM     53  H   BDQ d   1      19.983  10.551  25.948  0.00  0.00     0.039 H 
BRANCH  52  54
ATOM     54  C7  BDQ d   1      18.106  11.486  26.215  0.00  0.00    -0.073 C 
ATOM     55  H   BDQ d   1      17.680  12.339  26.743  0.00  0.00     0.028 H 
ATOM     56  H   BDQ d   1      17.967  11.614  25.142  0.00  0.00     0.028 H 
ATOM     57  H   BDQ d   1      17.610  10.571  26.540  0.00  0.00     0.028 H 
ENDBRANCH  52  54
BRANCH  52  58
ATOM     58  C8  BDQ d   1      19.880  11.075  27.992  0.00  0.00    -0.073 C 
ATOM     59  H   BDQ d   1      20.951  10.924  28.131  0.00  0.00     0.028 H 
ATOM     60  H   BDQ d   1      19.546  11.906  28.613  0.00  0.00     0.028 H 
ATOM     61  H   BDQ d   1      19.344  10.169  28.276  0.00  0.00     0.028 H 
ENDBRANCH  52  58
ENDBRANCH  49  52
ENDBRANCH  38  49
ENDBRANCH  32  35
ENDBRANCH  26  32
ENDBRANCH  19  22
ENDBRANCH  16  19
ENDBRANCH   2  13
TORSDOF 11
