REMARK  12 active torsions:
REMARK  status: ('A' for Active; 'I' for Inactive)
REMARK    1  A    between atoms: C1_1  and  C4_9 
REMARK    2  A    between atoms: C1_1  and  C5_11 
REMARK    3  A    between atoms: C7_14  and  N2_5 
REMARK    4  A    between atoms: C4_9  and  C6_13 
REMARK    5  A    between atoms: C22_27  and  N4_10 
REMARK    6  A    between atoms: C5_11  and  C19_26 
REMARK    7  A    between atoms: C8_15  and  C7_14 
REMARK    8  A    between atoms: C11_18  and  C22_27 
REMARK    9  A    between atoms: C19_26  and  C29_34 
REMARK   10  A    between atoms: C24_29  and  C26_31 
REMARK   11  A    between atoms: C26_31  and  C27_32 
REMARK   12  A    between atoms: C27_32  and  C28_33 
ROOT
ATOM      1  C1  BDW d   1      20.347  10.887  22.008  0.00  0.00     0.129 A 
ATOM      2  N1  BDW d   1      21.026   9.771  22.668  0.00  0.00    -0.208 N 
ATOM      3  O1  BDW d   1      20.288  13.220  22.777  0.00  0.00    -0.270 OA
ATOM      4  C2  BDW d   1      21.622  10.274  23.784  0.00  0.00     0.678 A 
ATOM      5  N2  BDW d   1      21.418  11.598  23.955  0.00  0.00    -0.145 N 
ATOM      6  C3  BDW d   1      20.665  12.064  22.943  0.00  0.00     0.267 A 
ATOM      7  N3  BDW d   1      22.346   9.550  24.646  0.00  0.00    -0.234 N 
ATOM      8  H1  BDW d   1      21.049   8.792  22.349  0.00  0.00     0.179 HD
ATOM      9  H2  BDW d   1      22.482   8.542  24.485  0.00  0.00     0.174 HD
ATOM     10  H3  BDW d   1      22.768  10.001  25.470  0.00  0.00     0.174 HD
ENDROOT
BRANCH   1  11
ATOM     11  C4  BDW d   1      20.918  11.127  20.588  0.00  0.00    -0.029 C 
ATOM     12  H4  BDW d   1      20.306  11.902  20.103  0.00  0.00     0.037 H 
ATOM     13  H5  BDW d   1      20.833  10.186  20.024  0.00  0.00     0.037 H 
BRANCH  11  14
ATOM     14  C6  BDW d   1      22.387  11.580  20.536  0.00  0.00    -0.051 C 
ATOM     15  C14 BDW d   1      23.336  10.403  20.766  0.00  0.00    -0.062 C 
ATOM     16  C15 BDW d   1      24.796  10.724  20.462  0.00  0.00    -0.065 C 
ATOM     17  H16 BDW d   1      23.021   9.571  20.119  0.00  0.00     0.033 H 
ATOM     18  H17 BDW d   1      23.260  10.096  21.820  0.00  0.00     0.033 H 
ATOM     19  C16 BDW d   1      24.960  11.242  19.045  0.00  0.00    -0.065 C 
ATOM     20  H18 BDW d   1      25.397   9.810  20.582  0.00  0.00     0.033 H 
ATOM     21  H19 BDW d   1      25.149  11.491  21.167  0.00  0.00     0.033 H 
ATOM     22  C17 BDW d   1      24.139  12.504  18.862  0.00  0.00    -0.065 C 
ATOM     23  H20 BDW d   1      24.616  10.476  18.334  0.00  0.00     0.033 H 
ATOM     24  H21 BDW d   1      26.021  11.466  18.858  0.00  0.00     0.033 H 
ATOM     25  C18 BDW d   1      22.667  12.253  19.183  0.00  0.00    -0.062 C 
ATOM     26  H22 BDW d   1      24.227  12.842  17.819  0.00  0.00     0.033 H 
ATOM     27  H23 BDW d   1      24.525  13.285  19.534  0.00  0.00     0.033 H 
ATOM     28  H24 BDW d   1      22.149  13.223  19.174  0.00  0.00     0.033 H 
ATOM     29  H25 BDW d   1      22.254  11.609  18.393  0.00  0.00     0.033 H 
ATOM     30  H9  BDW d   1      22.554  12.317  21.335  0.00  0.00     0.040 H 
ENDBRANCH  11  14
ENDBRANCH   1  11
BRANCH   1  31
ATOM     31  C5  BDW d   1      18.833  10.666  21.934  0.00  0.00    -0.032 C 
ATOM     32  H6  BDW d   1      18.642   9.690  21.463  0.00  0.00     0.037 H 
ATOM     33  H7  BDW d   1      18.390  11.463  21.319  0.00  0.00     0.037 H 
BRANCH  31  34
ATOM     34  C19 BDW d   1      18.175  10.684  23.301  0.00  0.00    -0.059 C 
ATOM     35  H26 BDW d   1      18.212  11.711  23.692  0.00  0.00     0.033 H 
ATOM     36  H27 BDW d   1      18.739  10.017  23.969  0.00  0.00     0.033 H 
BRANCH  34  37
ATOM     37  C29 BDW d   1      16.717  10.226  23.277  0.00  0.00    -0.054 C 
ATOM     38  C30 BDW d   1      16.183  10.101  24.699  0.00  0.00    -0.062 C 
ATOM     39  C31 BDW d   1      14.705   9.725  24.748  0.00  0.00    -0.065 C 
ATOM     40  H41 BDW d   1      16.317  11.066  25.210  0.00  0.00     0.033 H 
ATOM     41  H42 BDW d   1      16.760   9.325  25.224  0.00  0.00     0.033 H 
ATOM     42  C32 BDW d   1      13.856  10.711  23.944  0.00  0.00    -0.065 C 
ATOM     43  H43 BDW d   1      14.368   9.732  25.795  0.00  0.00     0.033 H 
ATOM     44  H44 BDW d   1      14.577   8.716  24.328  0.00  0.00     0.033 H 
ATOM     45  C33 BDW d   1      14.356  10.883  22.512  0.00  0.00    -0.065 C 
ATOM     46  H45 BDW d   1      13.882  11.689  24.446  0.00  0.00     0.033 H 
ATOM     47  H46 BDW d   1      12.820  10.341  23.914  0.00  0.00     0.033 H 
ATOM     48  C34 BDW d   1      15.854  11.184  22.449  0.00  0.00    -0.062 C 
ATOM     49  H47 BDW d   1      13.809  11.715  22.044  0.00  0.00     0.033 H 
ATOM     50  H48 BDW d   1      14.159   9.955  21.955  0.00  0.00     0.033 H 
ATOM     51  H49 BDW d   1      16.176  11.120  21.399  0.00  0.00     0.033 H 
ATOM     52  H50 BDW d   1      16.017  12.206  22.821  0.00  0.00     0.033 H 
ATOM     53  H40 BDW d   1      16.675   9.233  22.805  0.00  0.00     0.040 H 
ENDBRANCH  34  37
ENDBRANCH  31  34
ENDBRANCH   1  31
BRANCH   5  54
ATOM     54  C7  BDW d   1      21.937  12.415  25.059  0.00  0.00     0.043 C 
ATOM     55  H10 BDW d   1      22.294  11.751  25.860  0.00  0.00     0.073 H 
ATOM     56  H11 BDW d   1      21.128  13.052  25.445  0.00  0.00     0.073 H 
BRANCH  54  57
ATOM     57  C8  BDW d   1      23.082  13.295  24.600  0.00  0.00    -0.039 A 
ATOM     58  C9  BDW d   1      22.976  14.714  24.673  0.00  0.00    -0.075 A 
ATOM     59  C10 BDW d   1      24.059  15.538  24.237  0.00  0.00    -0.075 A 
ATOM     60  H12 BDW d   1      22.072  15.169  25.060  0.00  0.00     0.084 H 
ATOM     61  C11 BDW d   1      25.252  14.946  23.726  0.00  0.00    -0.040 A 
ATOM     62  H13 BDW d   1      23.974  16.617  24.295  0.00  0.00     0.084 H 
ATOM     63  C12 BDW d   1      25.349  13.521  23.656  0.00  0.00    -0.075 A 
ATOM     64  C13 BDW d   1      24.272  12.701  24.090  0.00  0.00    -0.075 A 
ATOM     65  H14 BDW d   1      26.252  13.062  23.269  0.00  0.00     0.084 H 
ATOM     66  H15 BDW d   1      24.356  11.622  24.033  0.00  0.00     0.084 H 
BRANCH  61  67
ATOM     67  C22 BDW d   1      26.400  15.840  23.267  0.00  0.00     0.023 C 
ATOM     68  H28 BDW d   1      26.038  16.499  22.464  0.00  0.00     0.071 H 
ATOM     69  H29 BDW d   1      26.737  16.450  24.118  0.00  0.00     0.071 H 
BRANCH  67  70
ATOM     70  N4  BDW d   1      27.537  15.061  22.763  0.00  0.00    -0.328 N 
ATOM     71  C23 BDW d   1      27.715  14.914  21.332  0.00  0.00     0.018 A 
ATOM     72  C24 BDW d   1      28.983  14.028  21.324  0.00  0.00     0.029 A 
ATOM     73  H30 BDW d   1      27.887  15.882  20.838  0.00  0.00     0.067 H 
ATOM     74  H31 BDW d   1      26.858  14.409  20.861  0.00  0.00     0.067 H 
ATOM     75  N5  BDW d   1      29.352  13.820  22.736  0.00  0.00    -0.337 N 
ATOM     76  H32 BDW d   1      29.803  14.511  20.773  0.00  0.00     0.075 H 
ATOM     77  C25 BDW d   1      28.460  14.445  23.511  0.00  0.00     0.319 A 
ATOM     78  H8  BDW d   1      30.140  13.297  23.061  0.00  0.00     0.164 HD
ATOM     79  O2  BDW d   1      28.474  14.455  24.743  0.00  0.00    -0.247 OA
BRANCH  72  80
ATOM     80  C26 BDW d   1      28.616  12.681  20.672  0.00  0.00    -0.045 C 
ATOM     81  H33 BDW d   1      28.950  12.720  19.625  0.00  0.00     0.036 H 
ATOM     82  H34 BDW d   1      27.521  12.586  20.704  0.00  0.00     0.036 H 
BRANCH  80  83
ATOM     83  C27 BDW d   1      29.197  11.430  21.287  0.00  0.00    -0.067 C 
ATOM     84  H35 BDW d   1      29.006  11.443  22.370  0.00  0.00     0.032 H 
ATOM     85  H36 BDW d   1      30.282  11.414  21.106  0.00  0.00     0.032 H 
BRANCH  83  86
ATOM     86  C28 BDW d   1      28.570  10.159  20.683  0.00  0.00    -0.076 C 
ATOM     87  H37 BDW d   1      29.016   9.271  21.154  0.00  0.00     0.027 H 
ATOM     88  H38 BDW d   1      28.761  10.135  19.600  0.00  0.00     0.027 H 
ATOM     89  H39 BDW d   1      27.485  10.164  20.864  0.00  0.00     0.027 H 
ENDBRANCH  83  86
ENDBRANCH  80  83
ENDBRANCH  72  80
ENDBRANCH  67  70
ENDBRANCH  61  67
ENDBRANCH  54  57
ENDBRANCH   5  54
TORSDOF 12
