REMARK  7 active torsions:
REMARK  status: ('A' for Active; 'I' for Inactive)
REMARK    1  A    between atoms: C1_1  and  N3_7 
REMARK    2  A    between atoms: N1_2  and  C19_23 
REMARK    3  A    between atoms: C3_6  and  C4_8 
REMARK    4  A    between atoms: C11_15  and  C3_6 
REMARK    5  A    between atoms: C4_8  and  C12_16 
REMARK    6  A    between atoms: C5_9  and  C11_15 
REMARK    7  A    between atoms: C12_16  and  C13_17 
ROOT
ATOM      1  C1  BDX d   1      21.876  10.068  23.951  0.00  0.00     0.677 A 
ATOM      2  N1  BDX d   1      21.823  11.409  24.102  0.00  0.00    -0.154 N 
ATOM      3  O1  BDX d   1      20.822  13.110  22.907  0.00  0.00    -0.270 OA
ATOM      4  C2  BDX d   1      21.090  11.925  23.095  0.00  0.00     0.266 A 
ATOM      5  N2  BDX d   1      21.203   9.603  22.868  0.00  0.00    -0.208 N 
ATOM      6  C3  BDX d   1      20.617  10.764  22.205  0.00  0.00     0.129 A 
ATOM      7  H1  BDX d   1      21.121   8.620  22.571  0.00  0.00     0.179 HD
ENDROOT
BRANCH   6   8
ATOM      8  C4  BDX d   1      19.083  10.713  22.221  0.00  0.00    -0.032 C 
ATOM      9  H4  BDX d   1      18.760   9.830  21.650  0.00  0.00     0.037 H 
ATOM     10  H5  BDX d   1      18.701  11.624  21.737  0.00  0.00     0.037 H 
BRANCH   8  11
ATOM     11  C12 BDX d   1      18.487  10.626  23.612  0.00  0.00    -0.059 C 
ATOM     12  H19 BDX d   1      18.581  11.610  24.095  0.00  0.00     0.033 H 
ATOM     13  H20 BDX d   1      19.052   9.879  24.189  0.00  0.00     0.033 H 
BRANCH  11  14
ATOM     14  C13 BDX d   1      17.004  10.222  23.608  0.00  0.00    -0.054 C 
ATOM     15  C14 BDX d   1      16.447  10.044  25.017  0.00  0.00    -0.062 C 
ATOM     16  C15 BDX d   1      14.970   9.664  25.033  0.00  0.00    -0.065 C 
ATOM     17  H22 BDX d   1      16.571  10.990  25.565  0.00  0.00     0.033 H 
ATOM     18  H23 BDX d   1      17.018   9.251  25.521  0.00  0.00     0.033 H 
ATOM     19  C16 BDX d   1      14.138  10.663  24.238  0.00  0.00    -0.065 C 
ATOM     20  H24 BDX d   1      14.614   9.648  26.074  0.00  0.00     0.033 H 
ATOM     21  H25 BDX d   1      14.851   8.664  24.590  0.00  0.00     0.033 H 
ATOM     22  C17 BDX d   1      14.657  10.836  22.807  0.00  0.00    -0.065 C 
ATOM     23  H26 BDX d   1      14.171  11.637  24.747  0.00  0.00     0.033 H 
ATOM     24  H27 BDX d   1      13.098  10.306  24.197  0.00  0.00     0.033 H 
ATOM     25  C18 BDX d   1      16.147  11.182  22.780  0.00  0.00    -0.062 C 
ATOM     26  H28 BDX d   1      14.095  11.646  22.320  0.00  0.00     0.033 H 
ATOM     27  H29 BDX d   1      14.500   9.897  22.255  0.00  0.00     0.033 H 
ATOM     28  H30 BDX d   1      16.494  11.150  21.737  0.00  0.00     0.033 H 
ATOM     29  H31 BDX d   1      16.277  12.199  23.178  0.00  0.00     0.033 H 
ATOM     30  H21 BDX d   1      16.946   9.239  23.117  0.00  0.00     0.040 H 
ENDBRANCH  11  14
ENDBRANCH   8  11
ENDBRANCH   6   8
BRANCH   6  31
ATOM     31  C11 BDX d   1      21.076  10.883  20.745  0.00  0.00    -0.029 C 
ATOM     32  H17 BDX d   1      20.424  11.619  20.252  0.00  0.00     0.037 H 
ATOM     33  H18 BDX d   1      20.939   9.898  20.274  0.00  0.00     0.037 H 
BRANCH  31  34
ATOM     34  C5  BDX d   1      22.519  11.312  20.499  0.00  0.00    -0.051 C 
ATOM     35  C6  BDX d   1      23.530  10.240  20.896  0.00  0.00    -0.062 C 
ATOM     36  C7  BDX d   1      24.951  10.535  20.432  0.00  0.00    -0.065 C 
ATOM     37  H7  BDX d   1      23.213   9.283  20.455  0.00  0.00     0.033 H 
ATOM     38  H8  BDX d   1      23.534  10.155  21.993  0.00  0.00     0.033 H 
ATOM     39  C8  BDX d   1      24.991  10.791  18.935  0.00  0.00    -0.065 C 
ATOM     40  H9  BDX d   1      25.593   9.673  20.667  0.00  0.00     0.033 H 
ATOM     41  H10 BDX d   1      25.325  11.425  20.959  0.00  0.00     0.033 H 
ATOM     42  C9  BDX d   1      24.113  11.960  18.571  0.00  0.00    -0.065 C 
ATOM     43  H11 BDX d   1      24.636   9.894  18.406  0.00  0.00     0.033 H 
ATOM     44  H12 BDX d   1      26.026  11.009  18.634  0.00  0.00     0.033 H 
ATOM     45  C10 BDX d   1      22.681  11.728  19.027  0.00  0.00    -0.062 C 
ATOM     46  H13 BDX d   1      24.126  12.093  17.479  0.00  0.00     0.033 H 
ATOM     47  H14 BDX d   1      24.503  12.867  19.056  0.00  0.00     0.033 H 
ATOM     48  H15 BDX d   1      22.120  12.662  18.874  0.00  0.00     0.033 H 
ATOM     49  H16 BDX d   1      22.249  10.934  18.400  0.00  0.00     0.033 H 
ATOM     50  H6  BDX d   1      22.717  12.195  21.125  0.00  0.00     0.040 H 
ENDBRANCH  31  34
ENDBRANCH   6  31
BRANCH   2  51
ATOM     51  C19 BDX d   1      22.448  12.169  25.165  0.00  0.00     0.005 C 
ATOM     52  H32 BDX d   1      22.979  11.484  25.842  0.00  0.00     0.058 H 
ATOM     53  H33 BDX d   1      21.677  12.715  25.728  0.00  0.00     0.058 H 
ATOM     54  H34 BDX d   1      23.163  12.885  24.733  0.00  0.00     0.058 H 
ENDBRANCH   2  51
BRANCH   1  55
ATOM     55  N3  BDX d   1      22.541   9.292  24.806  0.00  0.00    -0.234 N 
ATOM     56  H2  BDX d   1      23.031   9.712  25.609  0.00  0.00     0.174 HD
ATOM     57  H3  BDX d   1      22.565   8.272  24.664  0.00  0.00     0.174 HD
ENDBRANCH   1  55
TORSDOF 7
