REMARK  4 active torsions:
REMARK  status: ('A' for Active; 'I' for Inactive)
REMARK    1  A    between atoms: CAB_2  and  OAS_19 
REMARK    2  A    between atoms: CAI_9  and  CAK_11 
REMARK    3  A    between atoms: CAM_13  and  OAR_18 
REMARK    4  A    between atoms: CAN_14  and  OAQ_17 
ROOT
ATOM      1  CAA 47X d   1      14.870 -33.314 -20.643  0.00  0.00    -0.050 A 
ATOM      2  CAB 47X d   1      14.942 -34.235 -19.602  0.00  0.00     0.068 A 
ATOM      3  CAC 47X d   1      15.147 -35.584 -19.877  0.00  0.00    -0.017 A 
ATOM      4  CAD 47X d   1      14.999 -33.741 -21.962  0.00  0.00    -0.064 A 
ATOM      5  CAE 47X d   1      15.201 -35.091 -22.238  0.00  0.00     0.049 A 
ATOM      6  CAF 47X d   1      15.277 -36.010 -21.195  0.00  0.00     0.091 A 
ATOM      7  OAG 47X d   1      15.487 -37.329 -21.460  0.00  0.00    -0.321 OA
ATOM      8  CAH 47X d   1      15.796 -37.741 -22.721  0.00  0.00     0.034 C 
ATOM      9  CAI 47X d   1      15.702 -36.858 -23.792  0.00  0.00     0.048 C 
ATOM     10  CAJ 47X d   1      15.322 -35.540 -23.550  0.00  0.00     0.197 C 
ATOM     11  OAT 47X d   1      15.208 -34.750 -24.486  0.00  0.00    -0.286 OA
ATOM     12  H1  47X d   1      14.713 -32.263 -20.427  0.00  0.00     0.087 H 
ATOM     13  H2  47X d   1      15.205 -36.301 -19.066  0.00  0.00     0.092 H 
ATOM     14  H3  47X d   1      14.942 -33.024 -22.773  0.00  0.00     0.085 H 
ATOM     15  H4  47X d   1      16.118 -38.767 -22.892  0.00  0.00     0.125 H 
ENDROOT
BRANCH   9  16
ATOM     16  CAK 47X d   1      15.996 -37.299 -25.078  0.00  0.00    -0.017 A 
ATOM     17  CAL 47X d   1      17.197 -36.935 -25.682  0.00  0.00    -0.037 A 
ATOM     18  CAM 47X d   1      17.502 -37.389 -26.962  0.00  0.00     0.099 A 
ATOM     19  H5  47X d   1      17.896 -36.297 -25.154  0.00  0.00     0.089 H 
ATOM     20  CAN 47X d   1      16.605 -38.210 -27.640  0.00  0.00     0.098 A 
ATOM     21  CAO 47X d   1      15.404 -38.575 -27.039  0.00  0.00    -0.047 A 
ATOM     22  CAP 47X d   1      15.100 -38.120 -25.759  0.00  0.00    -0.069 A 
ATOM     23  H6  47X d   1      14.705 -39.214 -27.567  0.00  0.00     0.087 H 
ATOM     24  H7  47X d   1      14.165 -38.405 -25.291  0.00  0.00     0.085 H 
BRANCH  18  25
ATOM     25  OAR 47X d   1      18.676 -37.030 -27.548  0.00  0.00    -0.358 OA
ATOM     26  H9  47X d   1      19.167 -36.473 -26.955  0.00  0.00     0.217 HD
ENDBRANCH  18  25
BRANCH  20  27
ATOM     27  OAQ 47X d   1      16.904 -38.657 -28.890  0.00  0.00    -0.358 OA
ATOM     28  H8  47X d   1      17.753 -38.319 -29.151  0.00  0.00     0.217 HD
ENDBRANCH  20  27
ENDBRANCH   9  16
BRANCH   2  29
ATOM     29  OAS 47X d   1      14.789 -33.826 -18.315  0.00  0.00    -0.361 OA
ATOM     30  H10 47X d   1      15.567 -34.049 -17.818  0.00  0.00     0.217 HD
ENDBRANCH   2  29
TORSDOF 4
