REMARK WARNING: 32 MAX_TORS EXCEEDED!!!
REMARK  55 active torsions:
REMARK  status: ('A' for Active; 'I' for Inactive)
REMARK    1  A    between atoms: N_1  and  CA_2 
REMARK    2  A    between atoms: CA_2  and  C_3 
REMARK    3  A    between atoms: CA_2  and  CB_5 
REMARK       I    between atoms: C_3  and  N_6 
REMARK    4  A    between atoms: CA_7  and  C_8 
REMARK       I    between atoms: C_8  and  N_13 
REMARK    5  A    between atoms: CA_14  and  C_15 
REMARK       I    between atoms: C_15  and  N_20 
REMARK    6  A    between atoms: N_20  and  CA_21 
REMARK    7  A    between atoms: CA_21  and  C_22 
REMARK    8  A    between atoms: CA_21  and  CB_24 
REMARK       I    between atoms: C_22  and  N_25 
REMARK    9  A    between atoms: N_25  and  CA_26 
REMARK   10  A    between atoms: CA_26  and  C_27 
REMARK   11  A    between atoms: CA_26  and  CB_29 
REMARK       I    between atoms: C_27  and  N_37 
REMARK   12  A    between atoms: CB_29  and  CG_30 
REMARK   13  A    between atoms: CZ_35  and  OH_36 
REMARK   14  A    between atoms: N_37  and  CA_38 
REMARK   15  A    between atoms: CA_38  and  C_39 
REMARK   16  A    between atoms: CA_38  and  CB_41 
REMARK       I    between atoms: C_39  and  N_46 
REMARK   17  A    between atoms: CB_41  and  CG_42 
REMARK   18  A    between atoms: CG_42  and  CD_43 
REMARK   19  A    between atoms: N_46  and  CA_47 
REMARK   20  A    between atoms: CA_47  and  C_48 
REMARK   21  A    between atoms: CA_47  and  CB_50 
REMARK       I    between atoms: C_48  and  N_55 
REMARK   22  A    between atoms: CB_50  and  CG_51 
REMARK   23  A    between atoms: CG_51  and  CD_52 
REMARK   24  A    between atoms: CD_52  and  CE_53 
REMARK   25  A    between atoms: CE_53  and  NZ_54 
REMARK   26  A    between atoms: N_55  and  CA_56 
REMARK   27  A    between atoms: CA_56  and  C_57 
REMARK   28  A    between atoms: CA_56  and  CB_59 
REMARK       I    between atoms: C_57  and  N_63 
REMARK   29  A    between atoms: CB_59  and  CG_60 
REMARK   30  A    between atoms: CG_60  and  CD1_61 
REMARK   31  A    between atoms: CG_60  and  CD2_62 
REMARK   32  A    between atoms: N_63  and  CA_64 
REMARK   33  A    between atoms: CA_64  and  CB_65 
REMARK   34  A    between atoms: CA_64  and  C_67 
REMARK   35  A    between atoms: CB_65  and  OG_66 
REMARK   36  A    between atoms: OG_66  and  P_69 
REMARK       I    between atoms: C_67  and  N_73 
REMARK   37  A    between atoms: N_73  and  CA_74 
REMARK   38  A    between atoms: CA_74  and  C_75 
REMARK   39  A    between atoms: CA_74  and  CB_77 
REMARK       I    between atoms: C_75  and  N_78 
REMARK   40  A    between atoms: N_78  and  CA_79 
REMARK   41  A    between atoms: CA_79  and  C_80 
REMARK   42  A    between atoms: CA_79  and  CB_82 
REMARK       I    between atoms: C_80  and  N_87 
REMARK   43  A    between atoms: CB_82  and  CG_83 
REMARK   44  A    between atoms: CG_83  and  CD_84 
REMARK   45  A    between atoms: N_87  and  CA_88 
REMARK   46  A    between atoms: CA_88  and  C_89 
REMARK   47  A    between atoms: CA_88  and  CB_91 
REMARK       I    between atoms: C_89  and  N_96 
REMARK   48  A    between atoms: CB_91  and  CG_92 
REMARK   49  A    between atoms: CG_92  and  CD_93 
REMARK       I    between atoms: CD_93  and  NE2_95 
REMARK   50  A    between atoms: N_96  and  CA_97 
REMARK   51  A    between atoms: CA_97  and  C_98 
REMARK   52  A    between atoms: CA_97  and  CB_100 
REMARK       I    between atoms: C_98  and  N_102 
REMARK   53  A    between atoms: CB_100  and  OG_101 
REMARK   54  A    between atoms: CA_103  and  C_104 
REMARK       I    between atoms: C_104  and  N_109 
REMARK   55  A    between atoms: CA_110  and  C_111 
ROOT
ATOM      1  CA  LEU d   1     -19.684  14.259   6.655  0.00  0.00     0.089 C 
ATOM      2  H56 LEU d   1     -20.195  14.015   7.598  0.00  0.00     0.087 H 
ENDROOT
BRANCH   1   3
ATOM      3  N   LEU d   1     -19.230  15.630   6.610  0.00  0.00    -0.346 N 
ATOM      4  C   LYS d   1     -19.270  16.399   7.689  0.00  0.00     0.241 C 
ATOM      5  O   LYS d   1     -19.789  16.052   8.751  0.00  0.00    -0.271 OA
ATOM      6  H55 LEU d   1     -18.880  16.005   5.751  0.00  0.00     0.163 HD
BRANCH   4   7
ATOM      7  CA  LYS d   1     -18.633  17.765   7.532  0.00  0.00     0.089 C 
ATOM      8  H43 LYS d   1     -18.924  18.186   6.559  0.00  0.00     0.087 H 
BRANCH   7   9
ATOM      9  N   LYS d   1     -19.046  18.693   8.576  0.00  0.00    -0.346 N 
ATOM     10  C   GLU d   1     -20.105  19.471   8.407  0.00  0.00     0.241 C 
ATOM     11  O   GLU d   1     -20.788  19.451   7.381  0.00  0.00    -0.271 OA
ATOM     12  H42 LYS d   1     -18.525  18.743   9.428  0.00  0.00     0.163 HD
BRANCH  10  13
ATOM     13  CA  GLU d   1     -20.439  20.416   9.559  0.00  0.00     0.090 C 
ATOM     14  H37 GLU d   1     -19.565  20.468  10.225  0.00  0.00     0.087 H 
BRANCH  13  15
ATOM     15  N   GLU d   1     -20.723  21.761   9.067  0.00  0.00    -0.346 N 
ATOM     16  C   TYR d   1     -19.874  22.757   9.292  0.00  0.00     0.241 C 
ATOM     17  O   TYR d   1     -18.831  22.614   9.943  0.00  0.00    -0.271 OA
ATOM     18  H36 GLU d   1     -21.565  21.934   8.556  0.00  0.00     0.163 HD
BRANCH  16  19
ATOM     19  CA  TYR d   1     -20.256  24.131   8.748  0.00  0.00     0.093 C 
ATOM     20  H28 TYR d   1     -21.329  24.181   8.511  0.00  0.00     0.088 H 
BRANCH  19  21
ATOM     21  N   TYR d   1     -19.912  25.022   9.842  0.00  0.00    -0.346 N 
ATOM     22  C   ALA d   1     -20.623  25.008  10.967  0.00  0.00     0.240 C 
ATOM     23  O   ALA d   1     -21.648  24.327  11.113  0.00  0.00    -0.271 OA
ATOM     24  H27 TYR d   1     -19.138  25.648   9.750  0.00  0.00     0.163 HD
BRANCH  22  25
ATOM     25  CA  ALA d   1     -20.116  25.928  12.063  0.00  0.00     0.086 C 
ATOM     26  H23 ALA d   1     -19.436  26.651  11.589  0.00  0.00     0.086 H 
BRANCH  25  27
ATOM     27  N   ALA d   1     -21.150  26.689  12.737  0.00  0.00    -0.346 N 
ATOM     28  C   PRO d   1     -21.256  27.994  12.537  0.00  0.00     0.241 C 
ATOM     29  O   PRO d   1     -20.513  28.614  11.774  0.00  0.00    -0.271 OA
ATOM     30  H22 ALA d   1     -21.786  26.227  13.355  0.00  0.00     0.163 HD
BRANCH  28  31
ATOM     31  CA  PRO d   1     -22.352  28.710  13.330  0.00  0.00     0.091 C 
ATOM     32  N   PRO d   1     -21.825  29.950  13.902  0.00  0.00    -0.337 N 
ATOM     33  C   PRO d   1     -20.557  30.046  14.335  0.00  0.00     0.243 C 
ATOM     34  CD  PRO d   1     -22.783  31.056  13.734  0.00  0.00    -0.001 C 
ATOM     35  O   PRO d   1     -19.775  29.094  14.307  0.00  0.00    -0.271 OA
ATOM     36  CG  PRO d   1     -24.038  30.332  13.288  0.00  0.00    -0.048 C 
ATOM     37  H20 PRO d   1     -22.440  31.767  12.968  0.00  0.00     0.064 H 
ATOM     38  H21 PRO d   1     -22.946  31.589  14.682  0.00  0.00     0.064 H 
ATOM     39  CB  PRO d   1     -23.490  29.203  12.455  0.00  0.00    -0.036 C 
ATOM     40  H18 PRO d   1     -24.604  29.950  14.151  0.00  0.00     0.035 H 
ATOM     41  H19 PRO d   1     -24.684  30.990  12.688  0.00  0.00     0.035 H 
ATOM     42  H16 PRO d   1     -24.244  28.418  12.295  0.00  0.00     0.036 H 
ATOM     43  H17 PRO d   1     -23.123  29.562  11.482  0.00  0.00     0.036 H 
ATOM     44  H15 PRO d   1     -22.730  28.038  14.114  0.00  0.00     0.087 H 
BRANCH  33  45
ATOM     45  CA  PRO d   1     -20.106  31.382  14.914  0.00  0.00     0.092 C 
ATOM     46  N   PRO d   1     -19.146  31.053  15.971  0.00  0.00    -0.337 N 
ATOM     47  C   ALA d   1     -19.673  30.329  16.976  0.00  0.00     0.250 C 
ATOM     48  CD  PRO d   1     -17.777  31.432  15.580  0.00  0.00    -0.001 C 
ATOM     49  O   ALA d   1     -20.869  30.009  16.990  0.00  0.00    -0.271 OA
ATOM     50  CG  PRO d   1     -17.911  31.607  14.076  0.00  0.00    -0.048 C 
ATOM     51  H13 PRO d   1     -17.057  30.638  15.827  0.00  0.00     0.064 H 
ATOM     52  H14 PRO d   1     -17.469  32.370  16.065  0.00  0.00     0.064 H 
ATOM     53  CB  PRO d   1     -19.277  32.210  13.935  0.00  0.00    -0.036 C 
ATOM     54  H11 PRO d   1     -17.137  32.283  13.685  0.00  0.00     0.035 H 
ATOM     55  H12 PRO d   1     -17.849  30.639  13.557  0.00  0.00     0.035 H 
ATOM     56  H9  PRO d   1     -19.273  33.273  14.217  0.00  0.00     0.036 H 
ATOM     57  H10 PRO d   1     -19.654  32.105  12.907  0.00  0.00     0.036 H 
ATOM     58  H8  PRO d   1     -20.968  31.954  15.287  0.00  0.00     0.087 H 
BRANCH  47  59
ATOM     59  CA  ALA d   1     -18.754  29.928  18.121  0.00  0.00     0.172 C 
ATOM     60  H4  ALA d   1     -18.325  28.943  17.885  0.00  0.00     0.098 H 
BRANCH  59  61
ATOM     61  N   ALA d   1     -17.627  30.890  18.304  0.00  0.00    -0.067 N 
ATOM     62  H1  ALA d   1     -17.047  30.586  19.070  0.00  0.00     0.275 HD
ATOM     63  H2  ALA d   1     -17.996  31.806  18.506  0.00  0.00     0.275 HD
ATOM     64  H3  ALA d   1     -17.077  30.928  17.460  0.00  0.00     0.275 HD
ENDBRANCH  59  61
BRANCH  59  65
ATOM     65  CB  ALA d   1     -19.561  29.808  19.414  0.00  0.00    -0.042 C 
ATOM     66  H5  ALA d   1     -20.387  29.097  19.266  0.00  0.00     0.030 H 
ATOM     67  H6  ALA d   1     -19.969  30.793  19.684  0.00  0.00     0.030 H 
ATOM     68  H7  ALA d   1     -18.907  29.447  20.222  0.00  0.00     0.030 H 
ENDBRANCH  59  65
ENDBRANCH  47  59
ENDBRANCH  33  45
ENDBRANCH  28  31
ENDBRANCH  25  27
BRANCH  25  69
ATOM     69  CB  ALA d   1     -19.315  25.126  13.097  0.00  0.00    -0.049 C 
ATOM     70  H24 ALA d   1     -18.531  24.549  12.586  0.00  0.00     0.030 H 
ATOM     71  H25 ALA d   1     -19.988  24.438  13.629  0.00  0.00     0.030 H 
ATOM     72  H26 ALA d   1     -18.852  25.816  13.817  0.00  0.00     0.030 H 
ENDBRANCH  25  69
ENDBRANCH  22  25
ENDBRANCH  19  21
BRANCH  19  73
ATOM     73  CB  TYR d   1     -19.435  24.478   7.505  0.00  0.00    -0.014 C 
ATOM     74  H29 TYR d   1     -19.281  23.562   6.916  0.00  0.00     0.043 H 
ATOM     75  H30 TYR d   1     -18.461  24.876   7.825  0.00  0.00     0.043 H 
BRANCH  73  76
ATOM     76  CG  TYR d   1     -20.119  25.509   6.632  0.00  0.00    -0.056 A 
ATOM     77  CD1 TYR d   1     -21.211  25.149   5.849  0.00  0.00    -0.074 A 
ATOM     78  CE1 TYR d   1     -21.913  26.096   5.103  0.00  0.00    -0.051 A 
ATOM     79  H31 TYR d   1     -21.523  24.111   5.818  0.00  0.00     0.084 H 
ATOM     80  CZ  TYR d   1     -21.524  27.432   5.142  0.00  0.00     0.065 A 
ATOM     81  H33 TYR d   1     -22.758  25.793   4.495  0.00  0.00     0.087 H 
ATOM     82  CE2 TYR d   1     -20.435  27.822   5.910  0.00  0.00    -0.051 A 
ATOM     83  CD2 TYR d   1     -19.730  26.854   6.651  0.00  0.00    -0.074 A 
ATOM     84  H34 TYR d   1     -20.130  28.862   5.939  0.00  0.00     0.087 H 
ATOM     85  H32 TYR d   1     -18.874  27.154   7.245  0.00  0.00     0.084 H 
BRANCH  80  86
ATOM     86  OH  TYR d   1     -22.252  28.357   4.421  0.00  0.00    -0.361 OA
ATOM     87  H35 TYR d   1     -22.954  27.915   3.959  0.00  0.00     0.217 HD
ENDBRANCH  80  86
ENDBRANCH  73  76
ENDBRANCH  19  73
ENDBRANCH  16  19
ENDBRANCH  13  15
BRANCH  13  88
ATOM     88  CB  GLU d   1     -21.637  19.884  10.369  0.00  0.00    -0.029 C 
ATOM     89  H38 GLU d   1     -21.483  18.812  10.562  0.00  0.00     0.037 H 
ATOM     90  H39 GLU d   1     -22.552  20.022   9.775  0.00  0.00     0.037 H 
BRANCH  88  91
ATOM     91  CG  GLU d   1     -21.809  20.600  11.703  0.00  0.00     0.018 C 
ATOM     92  H40 GLU d   1     -22.698  20.198  12.211  0.00  0.00     0.049 H 
ATOM     93  H41 GLU d   1     -21.948  21.675  11.515  0.00  0.00     0.049 H 
BRANCH  91  94
ATOM     94  CD  GLU d   1     -20.595  20.410  12.608  0.00  0.00     0.172 C 
ATOM     95  OE1 GLU d   1     -20.326  21.285  13.465  0.00  0.00    -0.648 OA
ATOM     96  OE2 GLU d   1     -19.910  19.368  12.462  0.00  0.00    -0.648 OA
ENDBRANCH  91  94
ENDBRANCH  88  91
ENDBRANCH  13  88
ENDBRANCH  10  13
ENDBRANCH   7   9
BRANCH   7  97
ATOM     97  CB  LYS d   1     -17.115  17.564   7.566  0.00  0.00    -0.038 C 
ATOM     98  H44 LYS d   1     -16.635  18.544   7.702  0.00  0.00     0.036 H 
ATOM     99  H45 LYS d   1     -16.798  17.130   6.606  0.00  0.00     0.036 H 
BRANCH  97 100
ATOM    100  CG  LYS d   1     -16.653  16.630   8.703  0.00  0.00    -0.061 C 
ATOM    101  H46 LYS d   1     -17.284  15.729   8.707  0.00  0.00     0.033 H 
ATOM    102  H47 LYS d   1     -16.756  17.154   9.664  0.00  0.00     0.033 H 
BRANCH 100 103
ATOM    103  CD  LYS d   1     -15.208  16.223   8.513  0.00  0.00    -0.043 C 
ATOM    104  H48 LYS d   1     -14.574  17.118   8.593  0.00  0.00     0.035 H 
ATOM    105  H49 LYS d   1     -15.093  15.780   7.513  0.00  0.00     0.035 H 
BRANCH 103 106
ATOM    106  CE  LYS d   1     -14.754  15.202   9.559  0.00  0.00     0.080 C 
ATOM    107  H50 LYS d   1     -13.790  14.780   9.239  0.00  0.00     0.075 H 
ATOM    108  H51 LYS d   1     -15.505  14.400   9.613  0.00  0.00     0.075 H 
BRANCH 106 109
ATOM    109  NZ  LYS d   1     -14.585  15.785  10.926  0.00  0.00    -0.079 N 
ATOM    110  H52 LYS d   1     -14.286  15.064  11.564  0.00  0.00     0.274 HD
ATOM    111  H53 LYS d   1     -15.463  16.168  11.239  0.00  0.00     0.274 HD
ATOM    112  H54 LYS d   1     -13.891  16.516  10.896  0.00  0.00     0.274 HD
ENDBRANCH 106 109
ENDBRANCH 103 106
ENDBRANCH 100 103
ENDBRANCH  97 100
ENDBRANCH   7  97
ENDBRANCH   4   7
ENDBRANCH   1   3
BRANCH   1 113
ATOM    113  C   LEU d   1     -18.302  13.554   6.549  0.00  0.00     0.241 C 
ATOM    114  O   LEU d   1     -17.474  13.895   5.685  0.00  0.00    -0.271 OA
ATOM    115  N   SEP d   1     -18.045  12.616   7.461  0.00  0.00    -0.344 N 
ATOM    116  H66 SEP d   1     -18.764  12.388   8.118  0.00  0.00     0.163 HD
BRANCH 115 117
ATOM    117  CA  SEP d   1     -16.741  11.883   7.558  0.00  0.00     0.110 C 
ATOM    118  H67 SEP d   1     -15.917  12.604   7.449  0.00  0.00     0.090 H 
BRANCH 117 119
ATOM    119  CB  SEP d   1     -16.664  11.232   8.952  0.00  0.00     0.059 C 
ATOM    120  H68 SEP d   1     -15.702  10.715   9.084  0.00  0.00     0.079 H 
ATOM    121  H69 SEP d   1     -17.488  10.516   9.090  0.00  0.00     0.079 H 
BRANCH 119 122
ATOM    122  OG  SEP d   1     -16.782  12.319   9.878  0.00  0.00    -0.280 OA
BRANCH 122 123
ATOM    123  P   SEP d   1     -16.759  11.802  11.414  0.00  0.00     0.422 P 
ATOM    124  O1P SEP d   1     -15.505  11.072  11.718  0.00  0.00    -0.617 OA
ATOM    125  O2P SEP d   1     -16.892  13.073  12.360  0.00  0.00    -0.617 OA
ATOM    126  O3P SEP d   1     -18.020  10.820  11.647  0.00  0.00    -0.617 OA
ENDBRANCH 122 123
ENDBRANCH 119 122
ENDBRANCH 117 119
BRANCH 117 127
ATOM    127  C   SEP d   1     -16.607  10.838   6.482  0.00  0.00     0.243 C 
ATOM    128  O   SEP d   1     -17.537  10.143   6.170  0.00  0.00    -0.271 OA
ATOM    129  N   ALA d   1     -15.400  10.758   5.920  0.00  0.00    -0.346 N 
ATOM    130  H70 ALA d   1     -14.682  11.377   6.240  0.00  0.00     0.163 HD
BRANCH 129 131
ATOM    131  CA  ALA d   1     -15.078   9.804   4.855  0.00  0.00     0.086 C 
ATOM    132  H71 ALA d   1     -15.849   9.846   4.071  0.00  0.00     0.086 H 
BRANCH 131 133
ATOM    133  C   ALA d   1     -15.043   8.422   5.473  0.00  0.00     0.240 C 
ATOM    134  O   ALA d   1     -14.505   8.246   6.560  0.00  0.00    -0.271 OA
ATOM    135  N   GLU d   1     -15.621   7.447   4.794  0.00  0.00    -0.346 N 
ATOM    136  H75 GLU d   1     -16.061   7.639   3.917  0.00  0.00     0.163 HD
BRANCH 135 137
ATOM    137  CA  GLU d   1     -15.615   6.102   5.324  0.00  0.00     0.090 C 
ATOM    138  H76 GLU d   1     -15.480   6.158   6.414  0.00  0.00     0.087 H 
BRANCH 137 139
ATOM    139  C   GLU d   1     -14.450   5.291   4.746  0.00  0.00     0.241 C 
ATOM    140  O   GLU d   1     -14.124   5.405   3.561  0.00  0.00    -0.271 OA
ATOM    141  N   GLN d   1     -13.809   4.484   5.590  0.00  0.00    -0.346 N 
ATOM    142  H81 GLN d   1     -14.111   4.428   6.542  0.00  0.00     0.163 HD
BRANCH 141 143
ATOM    143  CA  GLN d   1     -12.672   3.679   5.149  0.00  0.00     0.090 C 
ATOM    144  H82 GLN d   1     -12.020   4.307   4.524  0.00  0.00     0.087 H 
BRANCH 143 145
ATOM    145  C   GLN d   1     -13.139   2.499   4.329  0.00  0.00     0.241 C 
ATOM    146  O   GLN d   1     -14.079   1.812   4.710  0.00  0.00    -0.271 OA
ATOM    147  N   SER d   1     -12.484   2.276   3.194  0.00  0.00    -0.344 N 
ATOM    148  H89 SER d   1     -11.727   2.878   2.938  0.00  0.00     0.163 HD
BRANCH 147 149
ATOM    149  CA  SER d   1     -12.847   1.174   2.318  0.00  0.00     0.109 C 
ATOM    150  H90 SER d   1     -13.937   1.034   2.363  0.00  0.00     0.090 H 
BRANCH 149 151
ATOM    151  C   SER d   1     -12.159  -0.111   2.745  0.00  0.00     0.245 C 
ATOM    152  O   SER d   1     -11.184  -0.084   3.505  0.00  0.00    -0.271 OA
ATOM    153  N   PRO d   1     -12.686  -1.255   2.280  0.00  0.00    -0.337 N 
ATOM    154  CA  PRO d   1     -12.148  -2.584   2.563  0.00  0.00     0.092 C 
ATOM    155  CD  PRO d   1     -14.000  -1.363   1.612  0.00  0.00    -0.001 C 
ATOM    156  CB  PRO d   1     -13.382  -3.473   2.468  0.00  0.00    -0.036 C 
ATOM    157  H94 PRO d   1     -11.639  -2.671   3.534  0.00  0.00     0.087 H 
ATOM    158  CG  PRO d   1     -14.107  -2.855   1.304  0.00  0.00    -0.048 C 
ATOM    159  H95 PRO d   1     -13.984  -3.425   3.388  0.00  0.00     0.036 H 
ATOM    160  H96 PRO d   1     -13.109  -4.519   2.262  0.00  0.00     0.036 H 
ATOM    161  H97 PRO d   1     -15.157  -3.181   1.270  0.00  0.00     0.035 H 
ATOM    162  H98 PRO d   1     -13.615  -3.102   0.351  0.00  0.00     0.035 H 
ATOM    163  H99 PRO d   1     -14.024  -0.766   0.689  0.00  0.00     0.064 H 
ATOM    164 0H10 PRO d   1     -14.811  -1.038   2.280  0.00  0.00     0.064 H 
BRANCH 154 165
ATOM    165  C   PRO d   1     -11.205  -2.819   1.382  0.00  0.00     0.243 C 
ATOM    166  O   PRO d   1     -11.267  -2.091   0.387  0.00  0.00    -0.271 OA
ATOM    167  N   PRO d   1     -10.329  -3.828   1.458  0.00  0.00    -0.336 N 
ATOM    168  CA  PRO d   1      -9.445  -4.021   0.301  0.00  0.00     0.098 C 
ATOM    169  CD  PRO d   1     -10.151  -4.902   2.451  0.00  0.00    -0.001 C 
ATOM    170  CB  PRO d   1      -8.752  -5.353   0.616  0.00  0.00    -0.035 C 
ATOM    171 1H10 PRO d   1      -8.701  -3.212   0.259  0.00  0.00     0.089 H 
ATOM    172  CG  PRO d   1      -9.725  -6.044   1.585  0.00  0.00    -0.048 C 
ATOM    173 2H10 PRO d   1      -7.775  -5.185   1.093  0.00  0.00     0.036 H 
ATOM    174 3H10 PRO d   1      -8.616  -5.951  -0.297  0.00  0.00     0.036 H 
ATOM    175 4H10 PRO d   1      -9.220  -6.825   2.171  0.00  0.00     0.035 H 
ATOM    176 5H10 PRO d   1     -10.580  -6.482   1.050  0.00  0.00     0.035 H 
ATOM    177 6H10 PRO d   1     -11.092  -5.125   2.975  0.00  0.00     0.064 H 
ATOM    178 7H10 PRO d   1      -9.374  -4.644   3.186  0.00  0.00     0.064 H 
BRANCH 168 179
ATOM    179  C   PRO d   1     -10.204  -4.039  -1.041  0.00  0.00     0.196 C 
ATOM    180  O   PRO d   1     -11.437  -4.252  -1.026  0.00  0.00    -0.646 OA
ATOM    181  OXT PRO d   1      -9.563  -3.836  -2.097  0.00  0.00    -0.646 OA
ENDBRANCH 168 179
ENDBRANCH 154 165
ENDBRANCH 149 151
BRANCH 149 182
ATOM    182  CB  SER d   1     -12.432   1.468   0.867  0.00  0.00     0.044 C 
ATOM    183  H91 SER d   1     -12.514   0.541   0.280  0.00  0.00     0.077 H 
ATOM    184  H92 SER d   1     -11.388   1.816   0.860  0.00  0.00     0.077 H 
BRANCH 182 185
ATOM    185  OG  SER d   1     -13.245   2.457   0.271  0.00  0.00    -0.398 OA
ATOM    186  H93 SER d   1     -14.148   2.163   0.267  0.00  0.00     0.209 HD
ENDBRANCH 182 185
ENDBRANCH 149 182
ENDBRANCH 147 149
ENDBRANCH 143 145
BRANCH 143 187
ATOM    187  CB  GLN d   1     -11.874   3.186   6.345  0.00  0.00    -0.030 C 
ATOM    188  H83 GLN d   1     -11.002   2.626   5.978  0.00  0.00     0.037 H 
ATOM    189  H84 GLN d   1     -12.513   2.519   6.942  0.00  0.00     0.037 H 
BRANCH 187 190
ATOM    190  CG  GLN d   1     -11.390   4.301   7.226  0.00  0.00     0.011 C 
ATOM    191  H85 GLN d   1     -12.256   4.893   7.559  0.00  0.00     0.047 H 
ATOM    192  H86 GLN d   1     -10.709   4.942   6.647  0.00  0.00     0.047 H 
BRANCH 190 193
ATOM    193  CD  GLN d   1     -10.661   3.784   8.435  0.00  0.00     0.215 C 
ATOM    194  OE1 GLN d   1      -9.442   3.584   8.401  0.00  0.00    -0.274 OA
ATOM    195  NE2 GLN d   1     -11.406   3.536   9.516  0.00  0.00    -0.370 N 
ATOM    196  H87 GLN d   1     -10.977   3.191  10.351  0.00  0.00     0.159 HD
ATOM    197  H88 GLN d   1     -12.393   3.696   9.491  0.00  0.00     0.159 HD
ENDBRANCH 190 193
ENDBRANCH 187 190
ENDBRANCH 143 187
ENDBRANCH 141 143
ENDBRANCH 137 139
BRANCH 137 198
ATOM    198  CB  GLU d   1     -16.964   5.446   5.042  0.00  0.00    -0.029 C 
ATOM    199  H77 GLU d   1     -16.901   4.380   5.306  0.00  0.00     0.037 H 
ATOM    200  H78 GLU d   1     -17.189   5.545   3.970  0.00  0.00     0.037 H 
BRANCH 198 201
ATOM    201  CG  GLU d   1     -18.108   6.092   5.851  0.00  0.00     0.018 C 
ATOM    202  H79 GLU d   1     -19.036   5.535   5.654  0.00  0.00     0.049 H 
ATOM    203  H80 GLU d   1     -18.229   7.134   5.519  0.00  0.00     0.049 H 
BRANCH 201 204
ATOM    204  CD  GLU d   1     -17.842   6.086   7.370  0.00  0.00     0.172 C 
ATOM    205  OE1 GLU d   1     -17.595   4.994   7.934  0.00  0.00    -0.648 OA
ATOM    206  OE2 GLU d   1     -17.884   7.169   8.001  0.00  0.00    -0.648 OA
ENDBRANCH 201 204
ENDBRANCH 198 201
ENDBRANCH 137 198
ENDBRANCH 135 137
ENDBRANCH 131 133
BRANCH 131 207
ATOM    207  CB  ALA d   1     -13.721  10.125   4.248  0.00  0.00    -0.049 C 
ATOM    208  H72 ALA d   1     -13.495   9.401   3.452  0.00  0.00     0.030 H 
ATOM    209  H73 ALA d   1     -12.947  10.066   5.028  0.00  0.00     0.030 H 
ATOM    210  H74 ALA d   1     -13.739  11.140   3.826  0.00  0.00     0.030 H 
ENDBRANCH 131 207
ENDBRANCH 129 131
ENDBRANCH 117 127
ENDBRANCH 115 117
ENDBRANCH   1 113
BRANCH   1 211
ATOM    211  CB  LEU d   1     -20.619  13.969   5.480  0.00  0.00    -0.035 C 
ATOM    212  H57 LEU d   1     -20.073  13.322   4.778  0.00  0.00     0.037 H 
ATOM    213  H58 LEU d   1     -20.843  14.930   4.994  0.00  0.00     0.037 H 
BRANCH 211 214
ATOM    214  CG  LEU d   1     -21.961  13.285   5.786  0.00  0.00    -0.059 C 
ATOM    215  H59 LEU d   1     -21.793  12.199   5.835  0.00  0.00     0.038 H 
BRANCH 214 216
ATOM    216  CD1 LEU d   1     -22.529  13.738   7.131  0.00  0.00    -0.073 C 
ATOM    217  H60 LEU d   1     -23.487  13.229   7.315  0.00  0.00     0.028 H 
ATOM    218  H61 LEU d   1     -22.690  14.826   7.113  0.00  0.00     0.028 H 
ATOM    219  H62 LEU d   1     -21.820  13.485   7.933  0.00  0.00     0.028 H 
ENDBRANCH 214 216
BRANCH 214 220
ATOM    220  CD2 LEU d   1     -22.947  13.572   4.655  0.00  0.00    -0.073 C 
ATOM    221  H63 LEU d   1     -22.516  13.238   3.700  0.00  0.00     0.028 H 
ATOM    222  H64 LEU d   1     -23.148  14.653   4.609  0.00  0.00     0.028 H 
ATOM    223  H65 LEU d   1     -23.887  13.032   4.842  0.00  0.00     0.028 H 
ENDBRANCH 214 220
ENDBRANCH 211 214
ENDBRANCH   1 211
TORSDOF 55
