REMARK  5 active torsions:
REMARK  status: ('A' for Active; 'I' for Inactive)
REMARK    1  A    between atoms: N_1  and  CA_2 
REMARK    2  A    between atoms: N_1  and  C1_6 
REMARK    3  A    between atoms: N_1  and  C2_7 
REMARK    4  A    between atoms: N_1  and  C3_8 
REMARK    5  A    between atoms: CA_2  and  C_3 
ROOT
ATOM      1  N   BET d   1      19.370  -4.747  50.006  0.00  0.00    -0.069 N 
ENDROOT
BRANCH   1   2
ATOM      2  CA  BET d   1      20.249  -4.169  48.966  0.00  0.00     0.162 C 
ATOM      3  H1  BET d   1      19.637  -3.517  48.326  0.00  0.00     0.093 H 
ATOM      4  H2  BET d   1      20.655  -4.996  48.365  0.00  0.00     0.093 H 
BRANCH   2   5
ATOM      5  C   BET d   1      21.413  -3.354  49.490  0.00  0.00     0.199 C 
ATOM      6  O1  BET d   1      21.363  -2.829  50.629  0.00  0.00    -0.647 OA
ATOM      7  O2  BET d   1      22.406  -3.232  48.739  0.00  0.00    -0.647 OA
ENDBRANCH   2   5
ENDBRANCH   1   2
BRANCH   1   8
ATOM      8  C1  BET d   1      18.544  -5.797  49.388  0.00  0.00     0.068 C 
ATOM      9  H3  BET d   1      17.883  -6.239  50.148  0.00  0.00     0.068 H 
ATOM     10  H4  BET d   1      19.196  -6.578  48.971  0.00  0.00     0.068 H 
ATOM     11  H5  BET d   1      17.936  -5.359  48.583  0.00  0.00     0.068 H 
ENDBRANCH   1   8
BRANCH   1  12
ATOM     12  C2  BET d   1      18.480  -3.707  50.547  0.00  0.00     0.068 C 
ATOM     13  H6  BET d   1      19.084  -2.914  51.013  0.00  0.00     0.068 H 
ATOM     14  H7  BET d   1      17.813  -4.151  51.301  0.00  0.00     0.068 H 
ATOM     15  H8  BET d   1      17.878  -3.279  49.732  0.00  0.00     0.068 H 
ENDBRANCH   1  12
BRANCH   1  16
ATOM     16  C3  BET d   1      20.142  -5.357  51.103  0.00  0.00     0.068 C 
ATOM     17  H9  BET d   1      20.806  -6.134  50.696  0.00  0.00     0.068 H 
ATOM     18  H10 BET d   1      19.451  -5.809  51.830  0.00  0.00     0.068 H 
ATOM     19  H11 BET d   1      20.745  -4.584  51.602  0.00  0.00     0.068 H 
ENDBRANCH   1  16
TORSDOF 5
