REMARK WARNING: 32 MAX_TORS EXCEEDED!!!
REMARK  76 active torsions:
REMARK  status: ('A' for Active; 'I' for Inactive)
REMARK    1  A    between atoms: N_1  and  CA_2 
REMARK    2  A    between atoms: CA_2  and  C_3 
REMARK    3  A    between atoms: CA_2  and  CB_5 
REMARK       I    between atoms: C_3  and  N_9 
REMARK    4  A    between atoms: CB_5  and  CG_6 
REMARK    5  A    between atoms: N_9  and  CA_10 
REMARK    6  A    between atoms: CA_10  and  C_11 
REMARK    7  A    between atoms: CA_10  and  CB_13 
REMARK       I    between atoms: C_11  and  N_18 
REMARK    8  A    between atoms: CB_13  and  CG_14 
REMARK    9  A    between atoms: CG_14  and  CD_15 
REMARK   10  A    between atoms: N_18  and  CA_19 
REMARK   11  A    between atoms: CA_19  and  C_20 
REMARK   12  A    between atoms: CA_19  and  CB_22 
REMARK       I    between atoms: C_20  and  N_27 
REMARK   13  A    between atoms: CB_22  and  CG_23 
REMARK   14  A    between atoms: CG_23  and  CD_24 
REMARK   15  A    between atoms: N_27  and  CA_28 
REMARK   16  A    between atoms: CA_28  and  C_29 
REMARK       I    between atoms: C_29  and  N_31 
REMARK   17  A    between atoms: N_31  and  CA_32 
REMARK   18  A    between atoms: CA_32  and  C_33 
REMARK       I    between atoms: C_33  and  N_35 
REMARK   19  A    between atoms: N_35  and  CA_36 
REMARK   20  A    between atoms: CA_36  and  C_37 
REMARK       I    between atoms: C_37  and  N_39 
REMARK   21  A    between atoms: N_39  and  CA_40 
REMARK   22  A    between atoms: CA_40  and  C_41 
REMARK   23  A    between atoms: CA_40  and  CB_43 
REMARK       I    between atoms: C_41  and  N_48 
REMARK   24  A    between atoms: CB_43  and  CG_44 
REMARK   25  A    between atoms: CG_44  and  CD_45 
REMARK   26  A    between atoms: N_48  and  CA_49 
REMARK   27  A    between atoms: CA_49  and  C_50 
REMARK   28  A    between atoms: CA_49  and  CB_52 
REMARK       I    between atoms: C_50  and  N_57 
REMARK   29  A    between atoms: CB_52  and  CG_53 
REMARK   30  A    between atoms: CG_53  and  CD_54 
REMARK   31  A    between atoms: N_57  and  CA_58 
REMARK   32  A    between atoms: CA_58  and  C_59 
REMARK   33  A    between atoms: CA_58  and  CB_61 
REMARK       I    between atoms: C_59  and  N_65 
REMARK   34  A    between atoms: CB_61  and  CG_62 
REMARK   35  A    between atoms: N_65  and  CA_66 
REMARK   36  A    between atoms: CA_66  and  C_67 
REMARK   37  A    between atoms: CA_66  and  CB_69 
REMARK       I    between atoms: C_67  and  N_74 
REMARK   38  A    between atoms: CB_69  and  CG_70 
REMARK   39  A    between atoms: CG_70  and  CD_71 
REMARK       I    between atoms: CD_71  and  NE2_73 
REMARK   40  A    between atoms: N_74  and  CA_75 
REMARK   41  A    between atoms: CA_75  and  C_76 
REMARK   42  A    between atoms: CA_75  and  CB_78 
REMARK       I    between atoms: C_76  and  N_82 
REMARK   43  A    between atoms: CB_78  and  CG_79 
REMARK   44  A    between atoms: N_82  and  CA_83 
REMARK   45  A    between atoms: CA_83  and  C_84 
REMARK   46  A    between atoms: CA_83  and  CB_86 
REMARK       I    between atoms: C_84  and  N_93 
REMARK   47  A    between atoms: CB_86  and  CG_87 
REMARK   48  A    between atoms: N_93  and  CA_94 
REMARK   49  A    between atoms: CA_94  and  C_95 
REMARK   50  A    between atoms: CA_94  and  CB_97 
REMARK       I    between atoms: C_95  and  N_101 
REMARK   51  A    between atoms: CB_97  and  CG_98 
REMARK   52  A    between atoms: N_101  and  CA_102 
REMARK   53  A    between atoms: CA_102  and  C_103 
REMARK   54  A    between atoms: CA_102  and  CB_105 
REMARK       I    between atoms: C_103  and  N_109 
REMARK   55  A    between atoms: CB_105  and  CG_106 
REMARK   56  A    between atoms: CG_106  and  CD1_107 
REMARK   57  A    between atoms: CG_106  and  CD2_108 
REMARK   58  A    between atoms: N_109  and  CA_110 
REMARK   59  A    between atoms: CA_110  and  C_111 
REMARK   60  A    between atoms: CA_110  and  CB_113 
REMARK       I    between atoms: C_111  and  N_115 
REMARK   61  A    between atoms: CB_113  and  OG_114 
REMARK   62  A    between atoms: N_115  and  CA_116 
REMARK   63  A    between atoms: CA_116  and  C_117 
REMARK   64  A    between atoms: CA_116  and  CB_119 
REMARK       I    between atoms: C_117  and  N_124 
REMARK   65  A    between atoms: CB_119  and  CG_120 
REMARK   66  A    between atoms: CG_120  and  CD_121 
REMARK       I    between atoms: CD_121  and  NE2_123 
REMARK   67  A    between atoms: N_124  and  CA_125 
REMARK   68  A    between atoms: CA_125  and  C_126 
REMARK   69  A    between atoms: CA_125  and  CB_128 
REMARK       I    between atoms: C_126  and  N_132 
REMARK   70  A    between atoms: CB_128  and  CG_129 
REMARK   71  A    between atoms: CG_129  and  CD1_130 
REMARK   72  A    between atoms: CG_129  and  CD2_131 
REMARK   73  A    between atoms: N_132  and  CA_133 
REMARK   74  A    between atoms: CA_133  and  C_134 
REMARK   75  A    between atoms: CA_133  and  CB_136 
REMARK   76  A    between atoms: CB_136  and  CG_137 
ROOT
ATOM      1  N   ASP d   1     -35.066  18.536  42.850  0.00  0.00    -0.346 N 
ATOM      2  H52 ASP d   1     -35.971  18.280  42.510  0.00  0.00     0.163 HD
ATOM      3  C   GLN d   1     -34.057  18.691  42.008  0.00  0.00     0.241 C 
ATOM      4  O   GLN d   1     -32.957  19.096  42.377  0.00  0.00    -0.271 OA
ENDROOT
BRANCH   1   5
ATOM      5  CA  ASP d   1     -34.853  18.739  44.261  0.00  0.00     0.098 C 
ATOM      6  H53 ASP d   1     -33.997  19.421  44.374  0.00  0.00     0.088 H 
BRANCH   5   7
ATOM      7  C   ASP d   1     -34.505  17.448  44.971  0.00  0.00     0.241 C 
ATOM      8  O   ASP d   1     -34.772  16.372  44.461  0.00  0.00    -0.271 OA
ATOM      9  N   PHE d   1     -33.913  17.572  46.153  0.00  0.00    -0.346 N 
ATOM     10  H56 PHE d   1     -33.785  18.487  46.535  0.00  0.00     0.163 HD
BRANCH   9  11
ATOM     11  CA  PHE d   1     -33.443  16.420  46.913  0.00  0.00     0.093 C 
ATOM     12  H57 PHE d   1     -34.226  15.652  46.999  0.00  0.00     0.088 H 
BRANCH  11  13
ATOM     13  C   PHE d   1     -33.048  16.968  48.282  0.00  0.00     0.241 C 
ATOM     14  O   PHE d   1     -32.802  18.166  48.431  0.00  0.00    -0.271 OA
ATOM     15  N   ASP d   1     -32.965  16.084  49.263  0.00  0.00    -0.345 N 
ATOM     16  H65 ASP d   1     -33.205  15.133  49.068  0.00  0.00     0.163 HD
BRANCH  15  17
ATOM     17  CA  ASP d   1     -32.542  16.428  50.609  0.00  0.00     0.098 C 
ATOM     18  H66 ASP d   1     -32.511  17.523  50.714  0.00  0.00     0.088 H 
BRANCH  17  19
ATOM     19  C   ASP d   1     -31.160  15.849  50.866  0.00  0.00     0.241 C 
ATOM     20  O   ASP d   1     -31.012  14.687  51.244  0.00  0.00    -0.271 OA
ATOM     21  N   LEU d   1     -30.146  16.667  50.665  0.00  0.00    -0.346 N 
ATOM     22  H69 LEU d   1     -30.324  17.624  50.437  0.00  0.00     0.163 HD
BRANCH  21  23
ATOM     23  CA  LEU d   1     -28.791  16.205  50.768  0.00  0.00     0.089 C 
ATOM     24  H70 LEU d   1     -28.622  15.460  49.977  0.00  0.00     0.087 H 
BRANCH  23  25
ATOM     25  C   LEU d   1     -28.479  15.531  52.121  0.00  0.00     0.241 C 
ATOM     26  O   LEU d   1     -27.614  14.658  52.193  0.00  0.00    -0.271 OA
ATOM     27  N   SER d   1     -29.180  15.922  53.188  0.00  0.00    -0.344 N 
ATOM     28  H80 SER d   1     -29.966  16.529  53.069  0.00  0.00     0.163 HD
BRANCH  27  29
ATOM     29  CA  SER d   1     -28.808  15.470  54.533  0.00  0.00     0.109 C 
ATOM     30  H81 SER d   1     -27.714  15.546  54.619  0.00  0.00     0.090 H 
BRANCH  29  31
ATOM     31  C   SER d   1     -29.200  14.035  54.773  0.00  0.00     0.243 C 
ATOM     32  O   SER d   1     -28.718  13.393  55.727  0.00  0.00    -0.271 OA
ATOM     33  N   GLN d   1     -30.079  13.523  53.916  0.00  0.00    -0.346 N 
ATOM     34  H85 GLN d   1     -30.437  14.085  53.170  0.00  0.00     0.163 HD
BRANCH  33  35
ATOM     35  CA  GLN d   1     -30.518  12.148  54.065  0.00  0.00     0.090 C 
ATOM     36  H86 GLN d   1     -30.418  11.869  55.124  0.00  0.00     0.087 H 
BRANCH  35  37
ATOM     37  C   GLN d   1     -29.651  11.218  53.234  0.00  0.00     0.241 C 
ATOM     38  O   GLN d   1     -29.923  10.024  53.182  0.00  0.00    -0.271 OA
ATOM     39  N   LEU d   1     -28.623  11.743  52.575  0.00  0.00    -0.346 N 
ATOM     40  H93 LEU d   1     -28.409  12.715  52.667  0.00  0.00     0.163 HD
BRANCH  39  41
ATOM     41  CA  LEU d   1     -27.805  10.883  51.711  0.00  0.00     0.089 C 
ATOM     42  H94 LEU d   1     -28.434  10.032  51.410  0.00  0.00     0.087 H 
BRANCH  41  43
ATOM     43  C   LEU d   1     -26.604  10.325  52.442  0.00  0.00     0.241 C 
ATOM     44  O   LEU d   1     -25.512  10.872  52.359  0.00  0.00    -0.271 OA
ATOM     45  N   HIS d   1     -26.821   9.239  53.173  0.00  0.00    -0.344 N 
ATOM     46 4H10 HIS d   1     -27.755   8.891  53.251  0.00  0.00     0.163 HD
BRANCH  45  47
ATOM     47  CA  HIS d   1     -25.743   8.529  53.871  0.00  0.00     0.101 C 
ATOM     48 5H10 HIS d   1     -24.867   8.457  53.209  0.00  0.00     0.090 H 
BRANCH  47  49
ATOM     49  C   HIS d   1     -26.241   7.116  54.207  0.00  0.00     0.197 C 
ATOM     50  O   HIS d   1     -25.475   6.269  54.668  0.00  0.00    -0.646 OA
ATOM     51  OXT HIS d   1     -27.417   6.800  54.023  0.00  0.00    -0.646 OA
ENDBRANCH  47  49
BRANCH  47  52
ATOM     52  CB  HIS d   1     -25.339   9.277  55.143  0.00  0.00     0.005 C 
ATOM     53 6H10 HIS d   1     -24.844  10.216  54.855  0.00  0.00     0.046 H 
ATOM     54 7H10 HIS d   1     -24.634   8.650  55.709  0.00  0.00     0.046 H 
BRANCH  52  55
ATOM     55  CG  HIS d   1     -26.502   9.603  56.027  0.00  0.00     0.053 A 
ATOM     56  ND1 HIS d   1     -26.946   8.753  57.019  0.00  0.00    -0.247 NA
ATOM     57  CE1 HIS d   1     -28.004   9.281  57.610  0.00  0.00     0.064 A 
ATOM     58  NE2 HIS d   1     -28.270  10.438  57.029  0.00  0.00    -0.359 N 
ATOM     59 9H10 HIS d   1     -28.561   8.838  58.434  0.00  0.00     0.143 H 
ATOM     60  CD2 HIS d   1     -27.354  10.655  56.027  0.00  0.00     0.002 A 
ATOM     61 0H11 HIS d   1     -29.039  11.074  57.285  0.00  0.00     0.166 HD
ATOM     62 8H10 HIS d   1     -27.320  11.514  55.358  0.00  0.00     0.114 H 
ENDBRANCH  52  55
ENDBRANCH  47  52
ENDBRANCH  45  47
ENDBRANCH  41  43
BRANCH  41  63
ATOM     63  CB  LEU d   1     -27.363  11.603  50.435  0.00  0.00    -0.035 C 
ATOM     64  H95 LEU d   1     -26.621  10.974  49.921  0.00  0.00     0.037 H 
ATOM     65  H96 LEU d   1     -26.899  12.559  50.719  0.00  0.00     0.037 H 
BRANCH  63  66
ATOM     66  CG  LEU d   1     -28.514  11.894  49.456  0.00  0.00    -0.059 C 
ATOM     67  H97 LEU d   1     -29.209  12.600  49.934  0.00  0.00     0.038 H 
BRANCH  66  68
ATOM     68  CD1 LEU d   1     -27.990  12.520  48.197  0.00  0.00    -0.073 C 
ATOM     69  H98 LEU d   1     -28.827  12.720  47.511  0.00  0.00     0.028 H 
ATOM     70  H99 LEU d   1     -27.277  11.834  47.716  0.00  0.00     0.028 H 
ATOM     71 0H10 LEU d   1     -27.482  13.465  48.441  0.00  0.00     0.028 H 
ENDBRANCH  66  68
BRANCH  66  72
ATOM     72  CD2 LEU d   1     -29.268  10.614  49.134  0.00  0.00    -0.073 C 
ATOM     73 1H10 LEU d   1     -29.646  10.167  50.065  0.00  0.00     0.028 H 
ATOM     74 2H10 LEU d   1     -28.591   9.905  48.635  0.00  0.00     0.028 H 
ATOM     75 3H10 LEU d   1     -30.113  10.844  48.468  0.00  0.00     0.028 H 
ENDBRANCH  66  72
ENDBRANCH  63  66
ENDBRANCH  41  63
ENDBRANCH  39  41
ENDBRANCH  35  37
BRANCH  35  76
ATOM     76  CB  GLN d   1     -31.982  11.974  53.656  0.00  0.00    -0.030 C 
ATOM     77  H87 GLN d   1     -32.147  10.910  53.432  0.00  0.00     0.037 H 
ATOM     78  H88 GLN d   1     -32.153  12.571  52.748  0.00  0.00     0.037 H 
BRANCH  76  79
ATOM     79  CG  GLN d   1     -33.001  12.394  54.685  0.00  0.00     0.011 C 
ATOM     80  H89 GLN d   1     -32.742  13.397  55.055  0.00  0.00     0.047 H 
ATOM     81  H90 GLN d   1     -32.980  11.679  55.520  0.00  0.00     0.047 H 
BRANCH  79  82
ATOM     82  CD  GLN d   1     -34.413  12.431  54.100  0.00  0.00     0.215 C 
ATOM     83  OE1 GLN d   1     -35.082  11.392  53.973  0.00  0.00    -0.274 OA
ATOM     84  NE2 GLN d   1     -34.881  13.629  53.749  0.00  0.00    -0.370 N 
ATOM     85  H91 GLN d   1     -35.799  13.713  53.361  0.00  0.00     0.159 HD
ATOM     86  H92 GLN d   1     -34.314  14.443  53.874  0.00  0.00     0.159 HD
ENDBRANCH  79  82
ENDBRANCH  76  79
ENDBRANCH  35  76
ENDBRANCH  33  35
ENDBRANCH  29  31
BRANCH  29  87
ATOM     87  CB  SER d   1     -29.430  16.338  55.610  0.00  0.00     0.044 C 
ATOM     88  H82 SER d   1     -29.192  17.390  55.395  0.00  0.00     0.077 H 
ATOM     89  H83 SER d   1     -28.998  16.056  56.582  0.00  0.00     0.077 H 
BRANCH  87  90
ATOM     90  OG  SER d   1     -30.837  16.199  55.683  0.00  0.00    -0.398 OA
ATOM     91  H84 SER d   1     -31.222  16.448  54.851  0.00  0.00     0.209 HD
ENDBRANCH  87  90
ENDBRANCH  29  87
ENDBRANCH  27  29
ENDBRANCH  23  25
BRANCH  23  92
ATOM     92  CB  LEU d   1     -27.869  17.383  50.529  0.00  0.00    -0.035 C 
ATOM     93  H71 LEU d   1     -27.994  18.074  51.376  0.00  0.00     0.037 H 
ATOM     94  H72 LEU d   1     -28.200  17.875  49.603  0.00  0.00     0.037 H 
BRANCH  92  95
ATOM     95  CG  LEU d   1     -26.391  17.106  50.388  0.00  0.00    -0.059 C 
ATOM     96  H73 LEU d   1     -25.991  16.711  51.333  0.00  0.00     0.038 H 
BRANCH  95  97
ATOM     97  CD1 LEU d   1     -26.178  16.089  49.296  0.00  0.00    -0.073 C 
ATOM     98  H74 LEU d   1     -25.102  15.884  49.190  0.00  0.00     0.028 H 
ATOM     99  H75 LEU d   1     -26.572  16.482  48.347  0.00  0.00     0.028 H 
ATOM    100  H76 LEU d   1     -26.704  15.158  49.554  0.00  0.00     0.028 H 
ENDBRANCH  95  97
BRANCH  95 101
ATOM    101  CD2 LEU d   1     -25.708  18.423  50.058  0.00  0.00    -0.073 C 
ATOM    102  H77 LEU d   1     -25.883  19.141  50.873  0.00  0.00     0.028 H 
ATOM    103  H78 LEU d   1     -26.120  18.825  49.121  0.00  0.00     0.028 H 
ATOM    104  H79 LEU d   1     -24.627  18.256  49.942  0.00  0.00     0.028 H 
ENDBRANCH  95 101
ENDBRANCH  92  95
ENDBRANCH  23  92
ENDBRANCH  21  23
ENDBRANCH  17  19
BRANCH  17 105
ATOM    105  CB  ASP d   1     -33.515  15.846  51.628  0.00  0.00     0.043 C 
ATOM    106  H67 ASP d   1     -33.529  14.752  51.516  0.00  0.00     0.052 H 
ATOM    107  H68 ASP d   1     -34.519  16.248  51.426  0.00  0.00     0.052 H 
BRANCH 105 108
ATOM    108  CG  ASP d   1     -33.134  16.185  53.066  0.00  0.00     0.175 C 
ATOM    109  OD1 ASP d   1     -32.011  16.690  53.319  0.00  0.00    -0.648 OA
ATOM    110  OD2 ASP d   1     -33.980  15.941  53.940  0.00  0.00    -0.648 OA
ENDBRANCH 105 108
ENDBRANCH  17 105
ENDBRANCH  15  17
ENDBRANCH  11  13
BRANCH  11 111
ATOM    111  CB  PHE d   1     -32.197  15.846  46.240  0.00  0.00    -0.014 C 
ATOM    112  H58 PHE d   1     -32.490  15.396  45.280  0.00  0.00     0.043 H 
ATOM    113  H59 PHE d   1     -31.769  15.071  46.893  0.00  0.00     0.043 H 
BRANCH 111 114
ATOM    114  CG  PHE d   1     -31.149  16.890  45.982  0.00  0.00    -0.056 A 
ATOM    115  CD1 PHE d   1     -30.228  17.230  46.969  0.00  0.00    -0.077 A 
ATOM    116  CE1 PHE d   1     -29.273  18.222  46.746  0.00  0.00    -0.082 A 
ATOM    117  H60 PHE d   1     -30.253  16.717  47.924  0.00  0.00     0.084 H 
ATOM    118  CZ  PHE d   1     -29.239  18.892  45.552  0.00  0.00    -0.083 A 
ATOM    119  H62 PHE d   1     -28.555  18.464  47.521  0.00  0.00     0.083 H 
ATOM    120  CE2 PHE d   1     -30.176  18.573  44.555  0.00  0.00    -0.082 A 
ATOM    121  H64 PHE d   1     -28.496  19.662  45.378  0.00  0.00     0.083 H 
ATOM    122  CD2 PHE d   1     -31.121  17.583  44.777  0.00  0.00    -0.077 A 
ATOM    123  H63 PHE d   1     -30.160  19.102  43.609  0.00  0.00     0.083 H 
ATOM    124  H61 PHE d   1     -31.844  17.347  44.005  0.00  0.00     0.084 H 
ENDBRANCH 111 114
ENDBRANCH  11 111
ENDBRANCH   9  11
ENDBRANCH   5   7
BRANCH   5 125
ATOM    125  CB  ASP d   1     -36.064  19.405  44.896  0.00  0.00     0.043 C 
ATOM    126  H54 ASP d   1     -35.967  19.353  45.990  0.00  0.00     0.052 H 
ATOM    127  H55 ASP d   1     -36.972  18.869  44.582  0.00  0.00     0.052 H 
BRANCH 125 128
ATOM    128  CG  ASP d   1     -36.181  20.844  44.485  0.00  0.00     0.175 C 
ATOM    129  OD1 ASP d   1     -35.132  21.530  44.454  0.00  0.00    -0.648 OA
ATOM    130  OD2 ASP d   1     -37.305  21.285  44.174  0.00  0.00    -0.648 OA
ENDBRANCH 125 128
ENDBRANCH   5 125
ENDBRANCH   1   5
BRANCH   3 131
ATOM    131  CA  GLN d   1     -34.322  18.331  40.532  0.00  0.00     0.090 C 
ATOM    132  H45 GLN d   1     -35.362  18.615  40.313  0.00  0.00     0.087 H 
BRANCH 131 133
ATOM    133  N   GLN d   1     -33.466  19.045  39.569  0.00  0.00    -0.346 N 
ATOM    134  C   ASP d   1     -33.953  19.384  38.376  0.00  0.00     0.241 C 
ATOM    135  O   ASP d   1     -35.131  19.194  38.071  0.00  0.00    -0.271 OA
ATOM    136  H44 GLN d   1     -32.523  19.274  39.810  0.00  0.00     0.163 HD
BRANCH 134 137
ATOM    137  CA  ASP d   1     -32.988  20.027  37.383  0.00  0.00     0.098 C 
ATOM    138  H41 ASP d   1     -32.067  19.427  37.339  0.00  0.00     0.088 H 
BRANCH 137 139
ATOM    139  N   ASP d   1     -33.598  20.055  36.069  0.00  0.00    -0.346 N 
ATOM    140  C   GLU d   1     -33.794  18.956  35.354  0.00  0.00     0.241 C 
ATOM    141  O   GLU d   1     -33.304  17.859  35.650  0.00  0.00    -0.271 OA
ATOM    142  H40 ASP d   1     -33.881  20.935  35.688  0.00  0.00     0.163 HD
BRANCH 140 143
ATOM    143  CA  GLU d   1     -34.704  19.108  34.130  0.00  0.00     0.090 C 
ATOM    144  H35 GLU d   1     -34.678  20.152  33.786  0.00  0.00     0.087 H 
BRANCH 143 145
ATOM    145  N   GLU d   1     -34.239  18.236  33.033  0.00  0.00    -0.346 N 
ATOM    146  C   GLU d   1     -34.005  18.705  31.811  0.00  0.00     0.241 C 
ATOM    147  O   GLU d   1     -34.223  19.856  31.500  0.00  0.00    -0.271 OA
ATOM    148  H34 GLU d   1     -34.096  17.263  33.215  0.00  0.00     0.163 HD
BRANCH 146 149
ATOM    149  CA  GLU d   1     -33.499  17.728  30.772  0.00  0.00     0.090 C 
ATOM    150  H29 GLU d   1     -33.871  16.720  31.008  0.00  0.00     0.087 H 
BRANCH 149 151
ATOM    151  N   GLU d   1     -34.036  18.158  29.501  0.00  0.00    -0.346 N 
ATOM    152  C   GLY d   1     -34.450  17.288  28.587  0.00  0.00     0.236 C 
ATOM    153  O   GLY d   1     -34.408  16.074  28.757  0.00  0.00    -0.272 OA
ATOM    154  H28 GLU d   1     -34.097  19.137  29.305  0.00  0.00     0.163 HD
BRANCH 152 155
ATOM    155  CA  GLY d   1     -34.976  17.873  27.295  0.00  0.00     0.069 C 
ATOM    156  H26 GLY d   1     -35.600  18.749  27.525  0.00  0.00     0.078 H 
ATOM    157  H27 GLY d   1     -34.127  18.183  26.668  0.00  0.00     0.078 H 
BRANCH 155 158
ATOM    158  N   GLY d   1     -35.775  16.896  26.566  0.00  0.00    -0.351 N 
ATOM    159  C   GLY d   1     -37.016  16.607  26.953  0.00  0.00     0.235 C 
ATOM    160  O   GLY d   1     -37.540  17.126  27.937  0.00  0.00    -0.272 OA
ATOM    161  H25 GLY d   1     -35.387  16.438  25.766  0.00  0.00     0.163 HD
BRANCH 159 162
ATOM    162  CA  GLY d   1     -37.779  15.606  26.101  0.00  0.00     0.069 C 
ATOM    163  H23 GLY d   1     -37.476  14.584  26.371  0.00  0.00     0.078 H 
ATOM    164  H24 GLY d   1     -38.860  15.725  26.269  0.00  0.00     0.078 H 
BRANCH 162 165
ATOM    165  N   GLY d   1     -37.473  15.853  24.710  0.00  0.00    -0.351 N 
ATOM    166  C   GLY d   1     -37.771  17.023  24.157  0.00  0.00     0.235 C 
ATOM    167  O   GLY d   1     -38.391  17.891  24.752  0.00  0.00    -0.272 OA
ATOM    168  H22 GLY d   1     -37.035  15.140  24.162  0.00  0.00     0.163 HD
BRANCH 166 169
ATOM    169  CA  GLY d   1     -37.334  17.246  22.728  0.00  0.00     0.069 C 
ATOM    170  H20 GLY d   1     -38.229  17.250  22.089  0.00  0.00     0.078 H 
ATOM    171  H21 GLY d   1     -36.836  18.225  22.667  0.00  0.00     0.078 H 
BRANCH 169 172
ATOM    172  N   GLY d   1     -36.423  16.241  22.228  0.00  0.00    -0.351 N 
ATOM    173  C   GLU d   1     -35.128  16.289  22.510  0.00  0.00     0.240 C 
ATOM    174  O   GLU d   1     -34.641  17.056  23.362  0.00  0.00    -0.271 OA
ATOM    175  H19 GLY d   1     -36.775  15.497  21.660  0.00  0.00     0.163 HD
BRANCH 173 176
ATOM    176  CA  GLU d   1     -34.241  15.347  21.702  0.00  0.00     0.090 C 
ATOM    177  H14 GLU d   1     -34.735  14.373  21.571  0.00  0.00     0.087 H 
BRANCH 176 178
ATOM    178  N   GLU d   1     -34.050  15.993  20.395  0.00  0.00    -0.346 N 
ATOM    179  C   GLU d   1     -34.841  15.780  19.335  0.00  0.00     0.241 C 
ATOM    180  O   GLU d   1     -35.713  14.909  19.285  0.00  0.00    -0.271 OA
ATOM    181  H13 GLU d   1     -33.285  16.628  20.291  0.00  0.00     0.163 HD
BRANCH 179 182
ATOM    182  CA  GLU d   1     -34.589  16.687  18.129  0.00  0.00     0.090 C 
ATOM    183  H8  GLU d   1     -33.647  17.227  18.303  0.00  0.00     0.087 H 
BRANCH 182 184
ATOM    184  N   GLU d   1     -34.454  15.937  16.908  0.00  0.00    -0.346 N 
ATOM    185  C   ASP d   1     -33.354  15.246  16.698  0.00  0.00     0.249 C 
ATOM    186  O   ASP d   1     -32.461  15.184  17.526  0.00  0.00    -0.271 OA
ATOM    187  H7  GLU d   1     -35.187  15.941  16.228  0.00  0.00     0.163 HD
BRANCH 185 188
ATOM    188  CA  ASP d   1     -33.279  14.504  15.370  0.00  0.00     0.185 C 
ATOM    189  H4  ASP d   1     -33.579  15.190  14.564  0.00  0.00     0.100 H 
BRANCH 188 190
ATOM    190  N   ASP d   1     -31.890  14.033  15.081  0.00  0.00    -0.066 N 
ATOM    191  H1  ASP d   1     -31.877  13.548  14.198  0.00  0.00     0.275 HD
ATOM    192  H2  ASP d   1     -31.588  13.408  15.812  0.00  0.00     0.275 HD
ATOM    193  H3  ASP d   1     -31.268  14.825  15.038  0.00  0.00     0.275 HD
ENDBRANCH 188 190
BRANCH 188 194
ATOM    194  CB  ASP d   1     -34.279  13.344  15.426  0.00  0.00     0.050 C 
ATOM    195  H5  ASP d   1     -35.294  13.761  15.506  0.00  0.00     0.052 H 
ATOM    196  H6  ASP d   1     -34.060  12.738  16.317  0.00  0.00     0.052 H 
BRANCH 194 197
ATOM    197  CG  ASP d   1     -34.224  12.444  14.206  0.00  0.00     0.175 C 
ATOM    198  OD1 ASP d   1     -33.994  12.934  13.079  0.00  0.00    -0.648 OA
ATOM    199  OD2 ASP d   1     -34.444  11.236  14.375  0.00  0.00    -0.648 OA
ENDBRANCH 194 197
ENDBRANCH 188 194
ENDBRANCH 185 188
ENDBRANCH 182 184
BRANCH 182 200
ATOM    200  CB  GLU d   1     -35.709  17.711  17.988  0.00  0.00    -0.029 C 
ATOM    201  H9  GLU d   1     -36.633  17.185  17.706  0.00  0.00     0.037 H 
ATOM    202  H10 GLU d   1     -35.436  18.424  17.196  0.00  0.00     0.037 H 
BRANCH 200 203
ATOM    203  CG  GLU d   1     -35.957  18.465  19.239  0.00  0.00     0.018 C 
ATOM    204  H11 GLU d   1     -35.054  19.035  19.502  0.00  0.00     0.049 H 
ATOM    205  H12 GLU d   1     -36.191  17.756  20.047  0.00  0.00     0.049 H 
BRANCH 203 206
ATOM    206  CD  GLU d   1     -37.091  19.402  19.071  0.00  0.00     0.172 C 
ATOM    207  OE1 GLU d   1     -37.309  20.248  19.967  0.00  0.00    -0.648 OA
ATOM    208  OE2 GLU d   1     -37.756  19.287  18.028  0.00  0.00    -0.648 OA
ENDBRANCH 203 206
ENDBRANCH 200 203
ENDBRANCH 182 200
ENDBRANCH 179 182
ENDBRANCH 176 178
BRANCH 176 209
ATOM    209  CB  GLU d   1     -32.903  15.143  22.433  0.00  0.00    -0.029 C 
ATOM    210  H15 GLU d   1     -33.073  14.458  23.276  0.00  0.00     0.037 H 
ATOM    211  H16 GLU d   1     -32.568  16.119  22.815  0.00  0.00     0.037 H 
BRANCH 209 212
ATOM    212  CG  GLU d   1     -31.785  14.561  21.562  0.00  0.00     0.018 C 
ATOM    213  H17 GLU d   1     -31.642  15.222  20.694  0.00  0.00     0.049 H 
ATOM    214  H18 GLU d   1     -32.098  13.565  21.217  0.00  0.00     0.049 H 
BRANCH 212 215
ATOM    215  CD  GLU d   1     -30.432  14.419  22.292  0.00  0.00     0.172 C 
ATOM    216  OE1 GLU d   1     -29.401  14.193  21.606  0.00  0.00    -0.648 OA
ATOM    217  OE2 GLU d   1     -30.390  14.516  23.534  0.00  0.00    -0.648 OA
ENDBRANCH 212 215
ENDBRANCH 209 212
ENDBRANCH 176 209
ENDBRANCH 173 176
ENDBRANCH 169 172
ENDBRANCH 166 169
ENDBRANCH 162 165
ENDBRANCH 159 162
ENDBRANCH 155 158
ENDBRANCH 152 155
ENDBRANCH 149 151
BRANCH 149 218
ATOM    218  CB  GLU d   1     -31.967  17.684  30.724  0.00  0.00    -0.029 C 
ATOM    219  H30 GLU d   1     -31.674  16.921  29.988  0.00  0.00     0.037 H 
ATOM    220  H31 GLU d   1     -31.606  17.390  31.721  0.00  0.00     0.037 H 
BRANCH 218 221
ATOM    221  CG  GLU d   1     -31.282  18.980  30.346  0.00  0.00     0.018 C 
ATOM    222  H32 GLU d   1     -31.564  19.756  31.073  0.00  0.00     0.049 H 
ATOM    223  H33 GLU d   1     -31.618  19.279  29.342  0.00  0.00     0.049 H 
BRANCH 221 224
ATOM    224  CD  GLU d   1     -29.764  18.844  30.336  0.00  0.00     0.172 C 
ATOM    225  OE1 GLU d   1     -29.065  19.704  29.747  0.00  0.00    -0.648 OA
ATOM    226  OE2 GLU d   1     -29.255  17.863  30.911  0.00  0.00    -0.648 OA
ENDBRANCH 221 224
ENDBRANCH 218 221
ENDBRANCH 149 218
ENDBRANCH 146 149
ENDBRANCH 143 145
BRANCH 143 227
ATOM    227  CB  GLU d   1     -36.137  18.752  34.545  0.00  0.00    -0.029 C 
ATOM    228  H36 GLU d   1     -36.197  18.825  35.641  0.00  0.00     0.037 H 
ATOM    229  H37 GLU d   1     -36.328  17.714  34.236  0.00  0.00     0.037 H 
BRANCH 227 230
ATOM    230  CG  GLU d   1     -37.254  19.629  33.955  0.00  0.00     0.018 C 
ATOM    231  H38 GLU d   1     -37.083  19.730  32.873  0.00  0.00     0.049 H 
ATOM    232  H39 GLU d   1     -37.205  20.621  34.428  0.00  0.00     0.049 H 
BRANCH 230 233
ATOM    233  CD  GLU d   1     -38.684  19.045  34.177  0.00  0.00     0.172 C 
ATOM    234  OE1 GLU d   1     -38.988  18.545  35.285  0.00  0.00    -0.648 OA
ATOM    235  OE2 GLU d   1     -39.524  19.096  33.240  0.00  0.00    -0.648 OA
ENDBRANCH 230 233
ENDBRANCH 227 230
ENDBRANCH 143 227
ENDBRANCH 140 143
ENDBRANCH 137 139
BRANCH 137 236
ATOM    236  CB  ASP d   1     -32.629  21.454  37.831  0.00  0.00     0.043 C 
ATOM    237  H42 ASP d   1     -33.524  21.925  38.263  0.00  0.00     0.052 H 
ATOM    238  H43 ASP d   1     -32.300  22.028  36.952  0.00  0.00     0.052 H 
BRANCH 236 239
ATOM    239  CG  ASP d   1     -31.517  21.471  38.871  0.00  0.00     0.175 C 
ATOM    240  OD1 ASP d   1     -31.149  20.381  39.374  0.00  0.00    -0.648 OA
ATOM    241  OD2 ASP d   1     -31.011  22.566  39.196  0.00  0.00    -0.648 OA
ENDBRANCH 236 239
ENDBRANCH 137 236
ENDBRANCH 134 137
ENDBRANCH 131 133
BRANCH 131 242
ATOM    242  CB  GLN d   1     -34.192  16.821  40.320  0.00  0.00    -0.030 C 
ATOM    243  H46 GLN d   1     -33.169  16.524  40.593  0.00  0.00     0.037 H 
ATOM    244  H47 GLN d   1     -34.364  16.609  39.254  0.00  0.00     0.037 H 
BRANCH 242 245
ATOM    245  CG  GLN d   1     -35.161  15.979  41.132  0.00  0.00     0.011 C 
ATOM    246  H48 GLN d   1     -34.987  16.172  42.201  0.00  0.00     0.047 H 
ATOM    247  H49 GLN d   1     -34.973  14.917  40.916  0.00  0.00     0.047 H 
BRANCH 245 248
ATOM    248  CD  GLN d   1     -36.605  16.291  40.812  0.00  0.00     0.215 C 
ATOM    249  OE1 GLN d   1     -37.130  15.818  39.801  0.00  0.00    -0.274 OA
ATOM    250  NE2 GLN d   1     -37.268  17.071  41.673  0.00  0.00    -0.370 N 
ATOM    251  H50 GLN d   1     -38.225  17.304  41.502  0.00  0.00     0.159 HD
ATOM    252  H51 GLN d   1     -36.806  17.421  42.488  0.00  0.00     0.159 HD
ENDBRANCH 245 248
ENDBRANCH 242 245
ENDBRANCH 131 242
ENDBRANCH   3 131
TORSDOF 76
