REMARK  5 active torsions:
REMARK  status: ('A' for Active; 'I' for Inactive)
REMARK    1  A    between atoms: N1_2  and  C1_1 
REMARK    2  A    between atoms: C2_3  and  O2_5 
REMARK    3  A    between atoms: C4_8  and  O4_9 
REMARK    4  A    between atoms: C5_10  and  C6_12 
REMARK    5  A    between atoms: C6_12  and  O6_13 
ROOT
ATOM      1  C1  DKX d   1      33.379  22.865  27.777  0.00  0.00     0.141 C 
ATOM      2  C2  DKX d   1      33.762  23.057  26.297  0.00  0.00     0.110 C 
ATOM      3  C3  DKX d   1      32.741  22.352  25.386  0.00  0.00     0.134 C 
ATOM      4  F3  DKX d   1      33.203  22.339  24.083  0.00  0.00    -0.244 F 
ATOM      5  C4  DKX d   1      32.451  20.918  25.874  0.00  0.00     0.094 C 
ATOM      6  C5  DKX d   1      32.291  20.821  27.418  0.00  0.00     0.088 C 
ATOM      7  O5  DKX d   1      33.395  21.461  28.093  0.00  0.00    -0.353 OA
ATOM      8  H1  DKX d   1      32.358  23.250  27.915  0.00  0.00     0.123 H 
ATOM      9  H2  DKX d   1      34.750  22.603  26.128  0.00  0.00     0.094 H 
ATOM     10  H5  DKX d   1      31.800  22.921  25.416  0.00  0.00     0.100 H 
ATOM     11  H6  DKX d   1      33.292  20.274  25.576  0.00  0.00     0.091 H 
ATOM     12  H8  DKX d   1      31.350  21.318  27.697  0.00  0.00     0.090 H 
ENDROOT
BRANCH   1  13
ATOM     13  N1  DKX d   1      34.269  23.577  28.722  0.00  0.00    -0.280 N 
ATOM     14  C7  DKX d   1      35.673  23.618  28.552  0.00  0.00    -0.008 A 
ATOM     15  C8  DKX d   1      36.473  24.297  29.474  0.00  0.00    -0.002 A 
ATOM     16  H12 DKX d   1      36.131  23.119  27.700  0.00  0.00     0.112 H 
ATOM     17  C9  DKX d   1      35.858  24.946  30.555  0.00  0.00     0.250 A 
ATOM     18  H13 DKX d   1      37.555  24.322  29.356  0.00  0.00     0.094 H 
ATOM     19  N2  DKX d   1      34.467  24.899  30.729  0.00  0.00    -0.275 N 
ATOM     20  O9  DKX d   1      36.529  25.565  31.379  0.00  0.00    -0.268 OA
ATOM     21  C10 DKX d   1      33.666  24.210  29.814  0.00  0.00     0.331 A 
ATOM     22  H3  DKX d   1      34.047  25.360  31.511  0.00  0.00     0.173 HD
ATOM     23  O10 DKX d   1      32.443  24.169  29.956  0.00  0.00    -0.246 OA
ENDBRANCH   1  13
BRANCH   2  24
ATOM     24  O2  DKX d   1      33.846  24.457  25.989  0.00  0.00    -0.388 OA
ATOM     25  H4  DKX d   1      34.082  24.566  25.075  0.00  0.00     0.210 HD
ENDBRANCH   2  24
BRANCH   6  26
ATOM     26  C6  DKX d   1      32.267  19.373  27.932  0.00  0.00     0.043 C 
ATOM     27  H9  DKX d   1      31.311  18.900  27.665  0.00  0.00     0.078 H 
ATOM     28  H10 DKX d   1      32.387  19.365  29.025  0.00  0.00     0.078 H 
BRANCH  26  29
ATOM     29  O6  DKX d   1      33.351  18.657  27.319  0.00  0.00    -0.398 OA
ATOM     30  H11 DKX d   1      34.174  19.071  27.551  0.00  0.00     0.209 HD
ENDBRANCH  26  29
ENDBRANCH   6  26
BRANCH   5  31
ATOM     31  O4  DKX d   1      31.263  20.454  25.238  0.00  0.00    -0.390 OA
ATOM     32  H7  DKX d   1      30.539  21.026  25.465  0.00  0.00     0.210 HD
ENDBRANCH   5  31
TORSDOF 5
