REMARK  7 active torsions:
REMARK  status: ('A' for Active; 'I' for Inactive)
REMARK    1  A    between atoms: N1_2  and  C1_1 
REMARK    2  A    between atoms: C2_3  and  O2_5 
REMARK    3  A    between atoms: C9_17  and  N3_8 
REMARK       I    between atoms: N3_8  and  C11_20 
REMARK    4  A    between atoms: C4_9  and  O4_10 
REMARK    5  A    between atoms: C5_11  and  C6_13 
REMARK    6  A    between atoms: C6_13  and  O6_14 
REMARK    7  A    between atoms: C11_20  and  C12_22 
ROOT
ATOM      1  N1  DKY d   1      34.398  23.619  28.829  0.00  0.00    -0.278 N 
ATOM      2  N2  DKY d   1      34.588  24.695  30.950  0.00  0.00    -0.176 NA
ATOM      3  C7  DKY d   1      35.799  23.664  28.680  0.00  0.00    -0.009 A 
ATOM      4  C8  DKY d   1      36.568  24.239  29.695  0.00  0.00    -0.023 A 
ATOM      5  C9  DKY d   1      35.928  24.769  30.831  0.00  0.00     0.137 A 
ATOM      6  C10 DKY d   1      33.812  24.143  29.998  0.00  0.00     0.352 A 
ATOM      7  O10 DKY d   1      32.589  24.113  30.151  0.00  0.00    -0.244 OA
ATOM      8  H12 DKY d   1      36.274  23.257  27.788  0.00  0.00     0.112 H 
ATOM      9  H13 DKY d   1      37.653  24.277  29.608  0.00  0.00     0.091 H 
ENDROOT
BRANCH   1  10
ATOM     10  C1  DKY d   1      33.505  23.012  27.813  0.00  0.00     0.141 C 
ATOM     11  C2  DKY d   1      33.908  23.172  26.334  0.00  0.00     0.110 C 
ATOM     12  C3  DKY d   1      32.900  22.448  25.412  0.00  0.00     0.134 C 
ATOM     13  H2  DKY d   1      34.897  22.711  26.192  0.00  0.00     0.094 H 
ATOM     14  F3  DKY d   1      33.389  22.389  24.118  0.00  0.00    -0.244 F 
ATOM     15  C4  DKY d   1      32.558  21.027  25.922  0.00  0.00     0.094 C 
ATOM     16  H4  DKY d   1      31.970  23.035  25.402  0.00  0.00     0.100 H 
ATOM     17  C5  DKY d   1      32.366  20.955  27.462  0.00  0.00     0.088 C 
ATOM     18  H6  DKY d   1      33.397  20.367  25.657  0.00  0.00     0.091 H 
ATOM     19  O5  DKY d   1      33.462  21.593  28.144  0.00  0.00    -0.353 OA
ATOM     20  H8  DKY d   1      31.425  21.459  27.727  0.00  0.00     0.090 H 
ATOM     21  H1  DKY d   1      32.504  23.453  27.930  0.00  0.00     0.123 H 
BRANCH  11  22
ATOM     22  O2  DKY d   1      34.005  24.564  25.992  0.00  0.00    -0.388 OA
ATOM     23  H3  DKY d   1      34.254  24.648  25.079  0.00  0.00     0.210 HD
ENDBRANCH  11  22
BRANCH  15  24
ATOM     24  O4  DKY d   1      31.381  20.543  25.273  0.00  0.00    -0.390 OA
ATOM     25  H7  DKY d   1      30.655  21.126  25.461  0.00  0.00     0.210 HD
ENDBRANCH  15  24
BRANCH  17  26
ATOM     26  C6  DKY d   1      32.318  19.500  27.933  0.00  0.00     0.043 C 
ATOM     27  H9  DKY d   1      31.380  19.032  27.600  0.00  0.00     0.078 H 
ATOM     28  H10 DKY d   1      32.377  19.463  29.031  0.00  0.00     0.078 H 
BRANCH  26  29
ATOM     29  O6  DKY d   1      33.438  18.802  27.363  0.00  0.00    -0.398 OA
ATOM     30  H11 DKY d   1      34.245  19.211  27.652  0.00  0.00     0.209 HD
ENDBRANCH  26  29
ENDBRANCH  17  26
ENDBRANCH   1  10
BRANCH   5  31
ATOM     31  N3  DKY d   1      36.604  25.324  31.853  0.00  0.00    -0.307 N 
ATOM     32  C11 DKY d   1      37.859  25.797  31.785  0.00  0.00     0.257 C 
ATOM     33  O11 DKY d   1      38.548  25.801  30.762  0.00  0.00    -0.267 OA
ATOM     34  H5  DKY d   1      36.135  25.390  32.733  0.00  0.00     0.170 HD
BRANCH  32  35
ATOM     35  C12 DKY d   1      38.421  26.366  33.104  0.00  0.00     0.032 A 
ATOM     36  C13 DKY d   1      39.785  26.667  33.204  0.00  0.00    -0.068 A 
ATOM     37  C14 DKY d   1      40.319  27.173  34.392  0.00  0.00    -0.082 A 
ATOM     38  H14 DKY d   1      40.434  26.506  32.351  0.00  0.00     0.085 H 
ATOM     39  C15 DKY d   1      39.477  27.378  35.488  0.00  0.00    -0.083 A 
ATOM     40  H15 DKY d   1      41.376  27.404  34.463  0.00  0.00     0.083 H 
ATOM     41  C16 DKY d   1      38.119  27.076  35.397  0.00  0.00    -0.082 A 
ATOM     42  H16 DKY d   1      39.881  27.773  36.413  0.00  0.00     0.083 H 
ATOM     43  C17 DKY d   1      37.593  26.570  34.207  0.00  0.00    -0.068 A 
ATOM     44  H17 DKY d   1      37.471  27.234  36.251  0.00  0.00     0.083 H 
ATOM     45  H18 DKY d   1      36.537  26.335  34.140  0.00  0.00     0.085 H 
ENDBRANCH  32  35
ENDBRANCH   5  31
TORSDOF 7
