REMARK  6 active torsions:
REMARK  status: ('A' for Active; 'I' for Inactive)
REMARK    1  A    between atoms: N1_2  and  C1_1 
REMARK    2  A    between atoms: C9_16  and  N3_7 
REMARK       I    between atoms: N3_7  and  C11_19 
REMARK    3  A    between atoms: C4_8  and  O4_9 
REMARK    4  A    between atoms: C5_10  and  C6_12 
REMARK    5  A    between atoms: C6_12  and  O6_13 
REMARK    6  A    between atoms: C11_19  and  C12_21 
ROOT
ATOM      1  N1  DK5 d   1      34.441  23.754  28.899  0.00  0.00    -0.281 N 
ATOM      2  N2  DK5 d   1      34.643  24.807  31.020  0.00  0.00    -0.176 NA
ATOM      3  C7  DK5 d   1      35.842  23.831  28.715  0.00  0.00    -0.010 A 
ATOM      4  C8  DK5 d   1      36.622  24.429  29.717  0.00  0.00    -0.023 A 
ATOM      5  C9  DK5 d   1      35.978  24.922  30.875  0.00  0.00     0.137 A 
ATOM      6  C10 DK5 d   1      33.864  24.245  30.079  0.00  0.00     0.352 A 
ATOM      7  O10 DK5 d   1      32.638  24.170  30.240  0.00  0.00    -0.244 OA
ATOM      8  H12 DK5 d   1      36.306  23.434  27.813  0.00  0.00     0.112 H 
ATOM      9  H13 DK5 d   1      37.702  24.512  29.605  0.00  0.00     0.091 H 
ENDROOT
BRANCH   1  10
ATOM     10  C1  DK5 d   1      33.522  23.129  27.909  0.00  0.00     0.117 C 
ATOM     11  C2  DK5 d   1      33.794  23.413  26.409  0.00  0.00     0.007 C 
ATOM     12  C3  DK5 d   1      32.859  22.581  25.504  0.00  0.00     0.110 C 
ATOM     13  H2  DK5 d   1      34.838  23.156  26.179  0.00  0.00     0.043 H 
ATOM     14  H3  DK5 d   1      33.627  24.482  26.210  0.00  0.00     0.043 H 
ATOM     15  F3  DK5 d   1      33.379  22.490  24.234  0.00  0.00    -0.246 F 
ATOM     16  C4  DK5 d   1      32.601  21.153  26.020  0.00  0.00     0.092 C 
ATOM     17  H4  DK5 d   1      31.893  23.104  25.453  0.00  0.00     0.095 H 
ATOM     18  C5  DK5 d   1      32.362  21.075  27.548  0.00  0.00     0.088 C 
ATOM     19  H6  DK5 d   1      33.478  20.533  25.782  0.00  0.00     0.091 H 
ATOM     20  O5  DK5 d   1      33.475  21.700  28.234  0.00  0.00    -0.356 OA
ATOM     21  H8  DK5 d   1      31.423  21.590  27.800  0.00  0.00     0.090 H 
ATOM     22  H1  DK5 d   1      32.522  23.543  28.105  0.00  0.00     0.118 H 
BRANCH  16  23
ATOM     23  O4  DK5 d   1      31.459  20.644  25.320  0.00  0.00    -0.390 OA
ATOM     24  H7  DK5 d   1      30.709  21.201  25.492  0.00  0.00     0.210 HD
ENDBRANCH  16  23
BRANCH  18  25
ATOM     25  C6  DK5 d   1      32.295  19.607  28.018  0.00  0.00     0.043 C 
ATOM     26  H9  DK5 d   1      31.391  19.130  27.611  0.00  0.00     0.078 H 
ATOM     27  H10 DK5 d   1      32.265  19.572  29.117  0.00  0.00     0.078 H 
BRANCH  25  28
ATOM     28  O6  DK5 d   1      33.463  18.911  27.545  0.00  0.00    -0.398 OA
ATOM     29  H11 DK5 d   1      34.242  19.326  27.897  0.00  0.00     0.209 HD
ENDBRANCH  25  28
ENDBRANCH  18  25
ENDBRANCH   1  10
BRANCH   5  30
ATOM     30  N3  DK5 d   1      36.635  25.508  31.895  0.00  0.00    -0.307 N 
ATOM     31  C11 DK5 d   1      37.904  25.959  31.830  0.00  0.00     0.257 C 
ATOM     32  O11 DK5 d   1      38.627  25.885  30.832  0.00  0.00    -0.267 OA
ATOM     33  H5  DK5 d   1      36.147  25.616  32.761  0.00  0.00     0.170 HD
BRANCH  31  34
ATOM     34  C12 DK5 d   1      38.437  26.606  33.123  0.00  0.00     0.032 A 
ATOM     35  C13 DK5 d   1      39.381  27.640  33.038  0.00  0.00    -0.068 A 
ATOM     36  C14 DK5 d   1      39.879  28.237  34.201  0.00  0.00    -0.082 A 
ATOM     37  H14 DK5 d   1      39.726  27.978  32.067  0.00  0.00     0.085 H 
ATOM     38  C15 DK5 d   1      39.428  27.810  35.452  0.00  0.00    -0.083 A 
ATOM     39  H15 DK5 d   1      40.614  29.030  34.131  0.00  0.00     0.083 H 
ATOM     40  C16 DK5 d   1      38.481  26.788  35.534  0.00  0.00    -0.082 A 
ATOM     41  H16 DK5 d   1      39.812  28.270  36.355  0.00  0.00     0.083 H 
ATOM     42  C17 DK5 d   1      37.989  26.183  34.373  0.00  0.00    -0.068 A 
ATOM     43  H17 DK5 d   1      38.124  26.461  36.504  0.00  0.00     0.083 H 
ATOM     44  H18 DK5 d   1      37.259  25.385  34.446  0.00  0.00     0.085 H 
ENDBRANCH  31  34
ENDBRANCH   5  30
TORSDOF 6
