REMARK  8 active torsions:
REMARK  status: ('A' for Active; 'I' for Inactive)
REMARK    1  A    between atoms: P_1  and  N1_3 
REMARK    2  A    between atoms: P_1  and  N2_6 
REMARK    3  A    between atoms: N1_3  and  C1_2 
REMARK    4  A    between atoms: C1_2  and  C2_5 
REMARK    5  A    between atoms: C1_2  and  C3_8 
REMARK    6  A    between atoms: N2_6  and  C4_9 
REMARK    7  A    between atoms: C4_9  and  C5_10 
REMARK    8  A    between atoms: C4_9  and  C6_11 
ROOT
ATOM      1  P   M44 d   1      17.256  32.475   7.609  0.00  0.00     0.312 P 
ATOM      2  O1  M44 d   1      17.030  31.701   8.859  0.00  0.00    -0.635 OA
ATOM      3  O2  M44 d   1      17.185  33.943   7.907  0.00  0.00    -0.635 OA
ENDROOT
BRANCH   1   4
ATOM      4  N1  M44 d   1      16.049  32.045   6.506  0.00  0.00    -0.328 N 
ATOM      5  H   M44 d   1      15.971  31.122   6.080  0.00  0.00     0.165 HD
BRANCH   4   6
ATOM      6  C1  M44 d   1      15.132  33.147   6.234  0.00  0.00     0.008 C 
ATOM      7  H   M44 d   1      15.623  34.106   6.398  0.00  0.00     0.071 H 
BRANCH   6   8
ATOM      8  C2  M44 d   1      13.943  32.973   7.162  0.00  0.00    -0.058 C 
ATOM      9  H   M44 d   1      13.226  33.775   6.986  0.00  0.00     0.030 H 
ATOM     10  H   M44 d   1      13.469  32.011   6.967  0.00  0.00     0.030 H 
ATOM     11  H   M44 d   1      14.283  33.008   8.197  0.00  0.00     0.030 H 
ENDBRANCH   6   8
BRANCH   6  12
ATOM     12  C3  M44 d   1      14.667  33.099   4.791  0.00  0.00    -0.058 C 
ATOM     13  H   M44 d   1      14.193  32.137   4.595  0.00  0.00     0.030 H 
ATOM     14  H   M44 d   1      13.950  33.901   4.615  0.00  0.00     0.030 H 
ATOM     15  H   M44 d   1      15.524  33.224   4.130  0.00  0.00     0.030 H 
ENDBRANCH   6  12
ENDBRANCH   4   6
ENDBRANCH   1   4
BRANCH   1  16
ATOM     16  N2  M44 d   1      18.799  32.135   6.992  0.00  0.00    -0.328 N 
ATOM     17  H   M44 d   1      19.429  31.442   7.397  0.00  0.00     0.165 HD
BRANCH  16  18
ATOM     18  C4  M44 d   1      19.128  32.940   5.820  0.00  0.00     0.008 C 
ATOM     19  H   M44 d   1      18.488  33.822   5.783  0.00  0.00     0.071 H 
BRANCH  18  20
ATOM     20  C5  M44 d   1      18.916  32.104   4.563  0.00  0.00    -0.058 C 
ATOM     21  H   M44 d   1      19.171  32.698   3.686  0.00  0.00     0.030 H 
ATOM     22  H   M44 d   1      19.554  31.221   4.604  0.00  0.00     0.030 H 
ATOM     23  H   M44 d   1      17.872  31.797   4.504  0.00  0.00     0.030 H 
ENDBRANCH  18  20
BRANCH  18  24
ATOM     24  C6  M44 d   1      20.583  33.370   5.905  0.00  0.00    -0.058 C 
ATOM     25  H   M44 d   1      21.220  32.486   5.945  0.00  0.00     0.030 H 
ATOM     26  H   M44 d   1      20.837  33.964   5.027  0.00  0.00     0.030 H 
ATOM     27  H   M44 d   1      20.732  33.968   6.804  0.00  0.00     0.030 H 
ENDBRANCH  18  24
ENDBRANCH  16  18
ENDBRANCH   1  16
TORSDOF 8
