REMARK WARNING: 32 MAX_TORS EXCEEDED!!!
REMARK  35 active torsions:
REMARK  status: ('A' for Active; 'I' for Inactive)
REMARK    1  A    between atoms: N_1  and  CA_2 
REMARK    2  A    between atoms: CA_2  and  C_3 
REMARK    3  A    between atoms: CA_2  and  CB_5 
REMARK       I    between atoms: C_3  and  N_8 
REMARK    4  A    between atoms: CB_5  and  OG1_6 
REMARK    5  A    between atoms: CB_5  and  CG2_7 
REMARK    6  A    between atoms: N_8  and  CA_9 
REMARK    7  A    between atoms: CA_9  and  C_10 
REMARK    8  A    between atoms: CA_9  and  CB_12 
REMARK       I    between atoms: C_10  and  N_20 
REMARK    9  A    between atoms: CB_12  and  CG_13 
REMARK   10  A    between atoms: CZ_18  and  OH_19 
REMARK   11  A    between atoms: N_20  and  CA_21 
REMARK   12  A    between atoms: CA_21  and  C_22 
REMARK   13  A    between atoms: CA_21  and  CB_24 
REMARK       I    between atoms: C_22  and  N_29 
REMARK   14  A    between atoms: CB_24  and  CG_25 
REMARK   15  A    between atoms: CG_25  and  CD_26 
REMARK   16  A    between atoms: CD_26  and  CE_27 
REMARK   17  A    between atoms: CE_27  and  NZ_28 
REMARK   18  A    between atoms: N_29  and  CA_30 
REMARK   19  A    between atoms: CA_30  and  C_31 
REMARK   20  A    between atoms: CA_30  and  CB_33 
REMARK       I    between atoms: C_31  and  N_40 
REMARK   21  A    between atoms: CB_33  and  CG_34 
REMARK   22  A    between atoms: N_40  and  CA_41 
REMARK   23  A    between atoms: CA_41  and  C_42 
REMARK   24  A    between atoms: CA_41  and  CB_44 
REMARK       I    between atoms: C_42  and  N_51 
REMARK   25  A    between atoms: CB_44  and  CG_45 
REMARK   26  A    between atoms: N_51  and  CA_52 
REMARK   27  A    between atoms: CA_52  and  C_53 
REMARK   28  A    between atoms: CA_52  and  CB_55 
REMARK       I    between atoms: C_53  and  N_60 
REMARK   29  A    between atoms: CB_55  and  CG_56 
REMARK   30  A    between atoms: CG_56  and  CD_57 
REMARK   31  A    between atoms: N_60  and  CA_61 
REMARK   32  A    between atoms: CA_61  and  C_62 
REMARK   33  A    between atoms: CA_61  and  CB_64 
REMARK   34  A    between atoms: CB_64  and  CG_65 
REMARK   35  A    between atoms: CG_65  and  CD_66 
REMARK       I    between atoms: CD_66  and  NE2_68 
ROOT
ATOM      1  CA  PHE d   1     -24.279   5.532  26.958  0.00  0.00     0.093 C 
ATOM      2  H   PHE d   1     -23.604   4.678  26.906  0.00  0.00     0.088 H 
ENDROOT
BRANCH   1   3
ATOM      3  N   PHE d   1     -23.671   6.487  27.904  0.00  0.00    -0.346 N 
ATOM      4  C   LYS d   1     -22.534   6.238  28.546  0.00  0.00     0.241 C 
ATOM      5  O   LYS d   1     -21.883   5.214  28.384  0.00  0.00    -0.271 OA
ATOM      6  H   PHE d   1     -24.143   7.375  28.072  0.00  0.00     0.163 HD
BRANCH   4   7
ATOM      7  CA  LYS d   1     -22.036   7.314  29.504  0.00  0.00     0.089 C 
ATOM      8  H   LYS d   1     -22.855   8.001  29.718  0.00  0.00     0.087 H 
BRANCH   7   9
ATOM      9  N   LYS d   1     -21.576   6.696  30.756  0.00  0.00    -0.346 N 
ATOM     10  C   TYR d   1     -22.383   6.555  31.806  0.00  0.00     0.241 C 
ATOM     11  O   TYR d   1     -23.559   6.950  31.814  0.00  0.00    -0.271 OA
ATOM     12  H   LYS d   1     -20.613   6.366  30.822  0.00  0.00     0.163 HD
BRANCH  10  13
ATOM     13  CA  TYR d   1     -21.801   5.850  33.022  0.00  0.00     0.093 C 
ATOM     14  H   TYR d   1     -20.737   6.085  33.048  0.00  0.00     0.088 H 
BRANCH  13  15
ATOM     15  N   TYR d   1     -22.365   6.312  34.285  0.00  0.00    -0.346 N 
ATOM     16  C   THR d   1     -21.632   6.980  35.175  0.00  0.00     0.251 C 
ATOM     17  O   THR d   1     -20.513   7.435  34.926  0.00  0.00    -0.271 OA
ATOM     18  H   TYR d   1     -23.345   6.119  34.492  0.00  0.00     0.163 HD
BRANCH  16  19
ATOM     19  CA  THR d   1     -22.248   7.161  36.565  0.00  0.00     0.199 C 
ATOM     20  H   THR d   1     -22.004   8.143  36.969  0.00  0.00     0.103 H 
BRANCH  19  21
ATOM     21  N   THR d   1     -23.748   7.143  36.536  0.00  0.00    -0.064 N 
ATOM     22  H   THR d   1     -24.084   7.895  35.934  0.00  0.00     0.275 HD
ATOM     23  H   THR d   1     -24.069   6.246  36.173  0.00  0.00     0.275 HD
ATOM     24  H   THR d   1     -24.107   7.276  37.481  0.00  0.00     0.275 HD
ENDBRANCH  19  21
BRANCH  19  25
ATOM     25  CB  THR d   1     -21.645   6.039  37.466  0.00  0.00     0.068 C 
ATOM     26  H   THR d   1     -21.399   5.193  36.825  0.00  0.00     0.086 H 
BRANCH  25  27
ATOM     27  OG1 THR d   1     -22.598   5.606  38.442  0.00  0.00    -0.393 OA
ATOM     28  H   THR d   1     -22.208   4.917  38.985  0.00  0.00     0.210 HD
ENDBRANCH  25  27
BRANCH  25  29
ATOM     29  CG2 THR d   1     -20.336   6.517  38.157  0.00  0.00    -0.050 C 
ATOM     30  H   THR d   1     -20.562   7.348  38.825  0.00  0.00     0.031 H 
ATOM     31  H   THR d   1     -19.908   5.694  38.730  0.00  0.00     0.031 H 
ATOM     32  H   THR d   1     -19.624   6.842  37.398  0.00  0.00     0.031 H 
ENDBRANCH  25  29
ENDBRANCH  19  25
ENDBRANCH  16  19
ENDBRANCH  13  15
BRANCH  13  33
ATOM     33  CB  TYR d   1     -22.034   4.353  32.886  0.00  0.00    -0.014 C 
ATOM     34  H   TYR d   1     -21.522   4.035  31.978  0.00  0.00     0.043 H 
ATOM     35  H   TYR d   1     -23.113   4.201  32.881  0.00  0.00     0.043 H 
BRANCH  33  36
ATOM     36  CG  TYR d   1     -21.482   3.522  34.012  0.00  0.00    -0.056 A 
ATOM     37  CD1 TYR d   1     -20.115   3.271  34.110  0.00  0.00    -0.074 A 
ATOM     38  CE1 TYR d   1     -19.600   2.497  35.133  0.00  0.00    -0.051 A 
ATOM     39  H   TYR d   1     -19.439   3.693  33.366  0.00  0.00     0.084 H 
ATOM     40  CZ  TYR d   1     -20.461   1.957  36.084  0.00  0.00     0.065 A 
ATOM     41  H   TYR d   1     -18.528   2.311  35.194  0.00  0.00     0.087 H 
ATOM     42  CE2 TYR d   1     -21.831   2.186  36.016  0.00  0.00    -0.051 A 
ATOM     43  CD2 TYR d   1     -22.335   2.971  34.975  0.00  0.00    -0.074 A 
ATOM     44  H   TYR d   1     -22.501   1.760  36.763  0.00  0.00     0.087 H 
ATOM     45  H   TYR d   1     -23.407   3.157  34.912  0.00  0.00     0.084 H 
BRANCH  40  46
ATOM     46  OH  TYR d   1     -19.967   1.182  37.106  0.00  0.00    -0.361 OA
ATOM     47  H   TYR d   1     -19.013   1.114  37.022  0.00  0.00     0.217 HD
ENDBRANCH  40  46
ENDBRANCH  33  36
ENDBRANCH  13  33
ENDBRANCH  10  13
ENDBRANCH   7   9
BRANCH   7  48
ATOM     48  CB  LYS d   1     -20.883   8.079  28.869  0.00  0.00    -0.038 C 
ATOM     49  H   LYS d   1     -20.096   7.353  28.663  0.00  0.00     0.036 H 
ATOM     50  H   LYS d   1     -20.604   8.868  29.567  0.00  0.00     0.036 H 
BRANCH  48  51
ATOM     51  CG  LYS d   1     -21.213   8.744  27.570  0.00  0.00    -0.061 C 
ATOM     52  H   LYS d   1     -22.187   9.223  27.670  0.00  0.00     0.033 H 
ATOM     53  H   LYS d   1     -21.209   7.985  26.788  0.00  0.00     0.033 H 
BRANCH  51  54
ATOM     54  CD  LYS d   1     -20.194   9.813  27.200  0.00  0.00    -0.043 C 
ATOM     55  H   LYS d   1     -19.275   9.326  26.874  0.00  0.00     0.035 H 
ATOM     56  H   LYS d   1     -20.010  10.441  28.072  0.00  0.00     0.035 H 
BRANCH  54  57
ATOM     57  CE  LYS d   1     -20.721  10.695  26.056  0.00  0.00     0.080 C 
ATOM     58  H   LYS d   1     -21.743  10.986  26.297  0.00  0.00     0.075 H 
ATOM     59  H   LYS d   1     -20.661  10.121  25.132  0.00  0.00     0.075 H 
BRANCH  57  60
ATOM     60  NZ  LYS d   1     -19.903  11.958  25.878  0.00  0.00    -0.079 N 
ATOM     61  H   LYS d   1     -20.290  12.507  25.111  0.00  0.00     0.274 HD
ATOM     62  H   LYS d   1     -19.933  12.505  26.738  0.00  0.00     0.274 HD
ATOM     63  H   LYS d   1     -18.937  11.709  25.666  0.00  0.00     0.274 HD
ENDBRANCH  57  60
ENDBRANCH  54  57
ENDBRANCH  51  54
ENDBRANCH  48  51
ENDBRANCH   7  48
ENDBRANCH   4   7
ENDBRANCH   1   3
BRANCH   1  64
ATOM     64  C   PHE d   1     -24.415   6.130  25.566  0.00  0.00     0.241 C 
ATOM     65  O   PHE d   1     -24.482   7.354  25.399  0.00  0.00    -0.271 OA
ATOM     66  N   PHE d   1     -24.441   5.284  24.554  0.00  0.00    -0.346 N 
ATOM     67  H   PHE d   1     -24.259   4.295  24.724  0.00  0.00     0.163 HD
BRANCH  66  68
ATOM     68  CA  PHE d   1     -24.725   5.735  23.196  0.00  0.00     0.093 C 
ATOM     69  H   PHE d   1     -25.082   6.764  23.226  0.00  0.00     0.088 H 
BRANCH  68  70
ATOM     70  C   PHE d   1     -25.776   4.829  22.607  0.00  0.00     0.241 C 
ATOM     71  O   PHE d   1     -25.976   3.737  23.086  0.00  0.00    -0.271 OA
ATOM     72  N   GLU d   1     -26.438   5.311  21.560  0.00  0.00    -0.346 N 
ATOM     73  H   GLU d   1     -26.213   6.250  21.230  0.00  0.00     0.163 HD
BRANCH  72  74
ATOM     74  CA  GLU d   1     -27.473   4.556  20.862  0.00  0.00     0.090 C 
ATOM     75  H   GLU d   1     -27.829   3.796  21.558  0.00  0.00     0.087 H 
BRANCH  74  76
ATOM     76  C   GLU d   1     -26.959   3.808  19.640  0.00  0.00     0.241 C 
ATOM     77  O   GLU d   1     -27.576   2.823  19.192  0.00  0.00    -0.271 OA
ATOM     78  N   GLN d   1     -25.832   4.260  19.106  0.00  0.00    -0.345 N 
ATOM     79  H   GLN d   1     -25.392   5.103  19.477  0.00  0.00     0.163 HD
BRANCH  78  80
ATOM     80  CA  GLN d   1     -25.221   3.546  17.983  0.00  0.00     0.096 C 
ATOM     81  H   GLN d   1     -25.432   2.483  18.099  0.00  0.00     0.089 H 
BRANCH  80  82
ATOM     82  C   GLN d   1     -23.713   3.723  17.975  0.00  0.00     0.196 C 
ATOM     83  O   GLN d   1     -22.990   2.855  17.457  0.00  0.00    -0.646 OA
ATOM     84  OXT GLN d   1     -23.209   4.754  18.463  0.00  0.00    -0.646 OA
ENDBRANCH  80  82
BRANCH  80  85
ATOM     85  CB  GLN d   1     -25.826   4.041  16.653  0.00  0.00    -0.029 C 
ATOM     86  H   GLN d   1     -26.884   3.779  16.663  0.00  0.00     0.037 H 
ATOM     87  H   GLN d   1     -25.259   3.574  15.847  0.00  0.00     0.037 H 
BRANCH  85  88
ATOM     88  CG  GLN d   1     -25.736   5.556  16.451  0.00  0.00     0.011 C 
ATOM     89  H   GLN d   1     -24.679   5.822  16.450  0.00  0.00     0.047 H 
ATOM     90  H   GLN d   1     -26.306   6.026  17.252  0.00  0.00     0.047 H 
BRANCH  88  91
ATOM     91  CD  GLN d   1     -26.325   6.034  15.135  0.00  0.00     0.215 C 
ATOM     92  OE1 GLN d   1     -26.137   5.408  14.092  0.00  0.00    -0.274 OA
ATOM     93  NE2 GLN d   1     -27.028   7.168  15.177  0.00  0.00    -0.370 N 
ATOM     94  H   GLN d   1     -27.434   7.548  14.322  0.00  0.00     0.159 HD
ATOM     95  H   GLN d   1     -27.159   7.654  16.064  0.00  0.00     0.159 HD
ENDBRANCH  88  91
ENDBRANCH  85  88
ENDBRANCH  80  85
ENDBRANCH  78  80
ENDBRANCH  74  76
BRANCH  74  96
ATOM     96  CB  GLU d   1     -28.617   5.490  20.466  0.00  0.00    -0.029 C 
ATOM     97  H   GLU d   1     -29.404   4.888  20.013  0.00  0.00     0.037 H 
ATOM     98  H   GLU d   1     -28.221   6.237  19.778  0.00  0.00     0.037 H 
BRANCH  96  99
ATOM     99  CG  GLU d   1     -29.213   6.222  21.672  0.00  0.00     0.018 C 
ATOM    100  H   GLU d   1     -30.051   6.819  21.313  0.00  0.00     0.049 H 
ATOM    101  H   GLU d   1     -28.418   6.818  22.121  0.00  0.00     0.049 H 
BRANCH  99 102
ATOM    102  CD  GLU d   1     -29.749   5.275  22.754  0.00  0.00     0.172 C 
ATOM    103  OE1 GLU d   1     -30.322   4.209  22.412  0.00  0.00    -0.648 OA
ATOM    104  OE2 GLU d   1     -29.594   5.611  23.958  0.00  0.00    -0.648 OA
ENDBRANCH  99 102
ENDBRANCH  96  99
ENDBRANCH  74  96
ENDBRANCH  72  74
ENDBRANCH  68  70
BRANCH  68 105
ATOM    105  CB  PHE d   1     -23.457   5.712  22.322  0.00  0.00    -0.014 C 
ATOM    106  H   PHE d   1     -22.778   6.463  22.726  0.00  0.00     0.043 H 
ATOM    107  H   PHE d   1     -23.775   5.894  21.295  0.00  0.00     0.043 H 
BRANCH 105 108
ATOM    108  CG  PHE d   1     -22.713   4.395  22.328  0.00  0.00    -0.056 A 
ATOM    109  CD1 PHE d   1     -23.065   3.379  21.460  0.00  0.00    -0.077 A 
ATOM    110  CE1 PHE d   1     -22.350   2.162  21.480  0.00  0.00    -0.082 A 
ATOM    111  H   PHE d   1     -23.891   3.517  20.763  0.00  0.00     0.084 H 
ATOM    112  CZ  PHE d   1     -21.277   1.992  22.305  0.00  0.00    -0.083 A 
ATOM    113  H   PHE d   1     -22.660   1.346  20.827  0.00  0.00     0.083 H 
ATOM    114  CE2 PHE d   1     -20.902   3.006  23.183  0.00  0.00    -0.082 A 
ATOM    115  H   PHE d   1     -20.712   1.060  22.277  0.00  0.00     0.083 H 
ATOM    116  CD2 PHE d   1     -21.620   4.215  23.156  0.00  0.00    -0.077 A 
ATOM    117  H   PHE d   1     -20.072   2.866  23.875  0.00  0.00     0.083 H 
ATOM    118  H   PHE d   1     -21.306   5.032  23.805  0.00  0.00     0.084 H 
ENDBRANCH 105 108
ENDBRANCH  68 105
ENDBRANCH  66  68
ENDBRANCH   1  64
BRANCH   1 119
ATOM    119  CB  PHE d   1     -25.650   5.043  27.446  0.00  0.00    -0.014 C 
ATOM    120  H   PHE d   1     -26.063   4.389  26.677  0.00  0.00     0.043 H 
ATOM    121  H   PHE d   1     -26.268   5.921  27.635  0.00  0.00     0.043 H 
BRANCH 119 122
ATOM    122  CG  PHE d   1     -25.572   4.269  28.701  0.00  0.00    -0.056 A 
ATOM    123  CD1 PHE d   1     -25.633   4.923  29.940  0.00  0.00    -0.077 A 
ATOM    124  CE1 PHE d   1     -25.559   4.193  31.141  0.00  0.00    -0.082 A 
ATOM    125  H   PHE d   1     -25.739   6.007  29.973  0.00  0.00     0.084 H 
ATOM    126  CZ  PHE d   1     -25.397   2.807  31.103  0.00  0.00    -0.083 A 
ATOM    127  H   PHE d   1     -25.628   4.709  32.099  0.00  0.00     0.083 H 
ATOM    128  CE2 PHE d   1     -25.305   2.147  29.867  0.00  0.00    -0.082 A 
ATOM    129  H   PHE d   1     -25.342   2.238  32.031  0.00  0.00     0.083 H 
ATOM    130  CD2 PHE d   1     -25.421   2.881  28.676  0.00  0.00    -0.077 A 
ATOM    131  H   PHE d   1     -25.144   1.069  29.832  0.00  0.00     0.083 H 
ATOM    132  H   PHE d   1     -25.393   2.360  27.719  0.00  0.00     0.084 H 
ENDBRANCH 119 122
ENDBRANCH   1 119
TORSDOF 35
