REMARK  10 active torsions:
REMARK  status: ('A' for Active; 'I' for Inactive)
REMARK       I    between atoms: CAW_23  and  NAA_1 
REMARK    1  A    between atoms: CAI_9  and  CAJ_10 
REMARK    2  A    between atoms: CAM_13  and  CAI_9 
REMARK    3  A    between atoms: CAJ_10  and  CAN_14 
REMARK    4  A    between atoms: NAS_19  and  CAM_13 
REMARK    5  A    between atoms: CAN_14  and  NBF_32 
REMARK    6  A    between atoms: OAU_21  and  CAQ_17 
REMARK    7  A    between atoms: CAQ_17  and  CBC_29 
REMARK       I    between atoms: CAX_24  and  NAS_19 
REMARK       I    between atoms: NAT_20  and  CAX_24 
REMARK    8  A    between atoms: CBD_30  and  NAT_20 
REMARK    9  A    between atoms: CBB_28  and  OAU_21 
REMARK   10  A    between atoms: CBE_31  and  CAW_23 
ROOT
ATOM      1  OAC BFF d   1      22.045   6.606 -23.377  0.00  0.00    -0.247 OA
ATOM      2  NAS BFF d   1      21.184   6.551 -25.475  0.00  0.00    -0.343 N 
ATOM      3  NAT BFF d   1      21.519   4.626 -24.333  0.00  0.00    -0.301 N 
ATOM      4  CAX BFF d   1      21.610   5.964 -24.341  0.00  0.00     0.321 C 
ATOM      5  H   BFF d   1      20.881   5.944 -26.237  0.00  0.00     0.164 HD
ATOM      6  H   BFF d   1      21.160   4.175 -25.175  0.00  0.00     0.171 HD
ENDROOT
BRANCH   2   7
ATOM      7  CAM BFF d   1      21.123   8.013 -25.697  0.00  0.00    -0.003 C 
ATOM      8  H   BFF d   1      22.098   8.452 -25.485  0.00  0.00     0.064 H 
ATOM      9  H   BFF d   1      20.849   8.210 -26.733  0.00  0.00     0.064 H 
BRANCH   7  10
ATOM     10  CAI BFF d   1      20.058   8.642 -24.753  0.00  0.00    -0.049 C 
ATOM     11  H   BFF d   1      20.294   8.312 -23.741  0.00  0.00     0.035 H 
ATOM     12  H   BFF d   1      20.101   9.721 -24.898  0.00  0.00     0.035 H 
BRANCH  10  13
ATOM     13  CAJ BFF d   1      18.594   8.201 -25.046  0.00  0.00    -0.039 C 
ATOM     14  H   BFF d   1      18.637   7.478 -25.861  0.00  0.00     0.035 H 
ATOM     15  H   BFF d   1      18.029   9.106 -25.270  0.00  0.00     0.035 H 
BRANCH  13  16
ATOM     16  CAN BFF d   1      17.880   7.505 -23.864  0.00  0.00     0.113 C 
ATOM     17  H   BFF d   1      16.816   7.741 -23.893  0.00  0.00     0.079 H 
ATOM     18  H   BFF d   1      18.306   7.857 -22.925  0.00  0.00     0.079 H 
BRANCH  16  19
ATOM     19  NBF BFF d   1      18.062   6.040 -23.968  0.00  0.00     0.088 N 
ATOM     20  CAO BFF d   1      16.816   5.334 -24.264  0.00  0.00     0.113 C 
ATOM     21  CAK BFF d   1      17.138   3.859 -23.963  0.00  0.00    -0.038 C 
ATOM     22  H   BFF d   1      15.982   5.703 -23.667  0.00  0.00     0.079 H 
ATOM     23  H   BFF d   1      16.493   5.483 -25.294  0.00  0.00     0.079 H 
ATOM     24  CAL BFF d   1      18.298   3.916 -22.980  0.00  0.00    -0.038 C 
ATOM     25  H   BFF d   1      16.279   3.329 -23.552  0.00  0.00     0.035 H 
ATOM     26  H   BFF d   1      17.394   3.304 -24.866  0.00  0.00     0.035 H 
ATOM     27  CAP BFF d   1      18.443   5.419 -22.693  0.00  0.00     0.113 C 
ATOM     28  H   BFF d   1      19.210   3.475 -23.381  0.00  0.00     0.035 H 
ATOM     29  H   BFF d   1      18.114   3.332 -22.078  0.00  0.00     0.035 H 
ATOM     30  H   BFF d   1      19.449   5.692 -22.375  0.00  0.00     0.079 H 
ATOM     31  H   BFF d   1      17.822   5.751 -21.861  0.00  0.00     0.079 H 
ENDBRANCH  16  19
ENDBRANCH  13  16
ENDBRANCH  10  13
ENDBRANCH   7  10
ENDBRANCH   2   7
BRANCH   3  32
ATOM     32  CBD BFF d   1      21.862   3.833 -23.307  0.00  0.00     0.117 A 
ATOM     33  SAV BFF d   1      22.246   4.305 -21.738  0.00  0.00     0.033 SA
ATOM     34  NAR BFF d   1      22.521   2.794 -21.108  0.00  0.00    -0.183 NA
ATOM     35  CBB BFF d   1      22.301   1.888 -22.087  0.00  0.00     0.191 A 
ATOM     36  CBE BFF d   1      21.919   2.441 -23.341  0.00  0.00     0.120 A 
BRANCH  35  37
ATOM     37  OAU BFF d   1      22.438   0.534 -21.879  0.00  0.00    -0.328 OA
BRANCH  37  38
ATOM     38  CAQ BFF d   1      22.884   0.027 -20.569  0.00  0.00     0.057 C 
ATOM     39  H   BFF d   1      22.108   0.214 -19.827  0.00  0.00     0.083 H 
ATOM     40  H   BFF d   1      23.803   0.537 -20.279  0.00  0.00     0.083 H 
BRANCH  38  41
ATOM     41  CBC BFF d   1      23.119  -1.317 -20.648  0.00  0.00     0.043 A 
ATOM     42  CAZ BFF d   1      24.384  -1.775 -21.024  0.00  0.00     0.129 A 
ATOM     43  FAD BFF d   1      25.430  -0.960 -21.241  0.00  0.00    -0.205 F 
ATOM     44  CAG BFF d   1      24.616  -3.120 -21.168  0.00  0.00    -0.028 A 
ATOM     45  CAY BFF d   1      23.588  -4.006 -20.945  0.00  0.00     0.016 A 
ATOM     46  H   BFF d   1      25.603  -3.482 -21.456  0.00  0.00     0.090 H 
ATOM     47 BRAF BFF d   1      24.019  -5.824 -21.203  0.00  0.00    -0.051 Br
ATOM     48  CAH BFF d   1      22.311  -3.577 -20.580  0.00  0.00    -0.028 A 
ATOM     49  CBA BFF d   1      22.059  -2.209 -20.440  0.00  0.00     0.129 A 
ATOM     50  H   BFF d   1      21.517  -4.303 -20.405  0.00  0.00     0.090 H 
ATOM     51  FAE BFF d   1      20.817  -1.758 -20.102  0.00  0.00    -0.205 F 
ENDBRANCH  38  41
ENDBRANCH  37  38
ENDBRANCH  35  37
BRANCH  36  52
ATOM     52  CAW BFF d   1      21.581   1.675 -24.648  0.00  0.00     0.256 C 
ATOM     53  NAA BFF d   1      21.014   0.476 -24.522  0.00  0.00    -0.366 N 
ATOM     54  H   BFF d   1      20.697  -0.028 -25.350  0.00  0.00     0.159 HD
ATOM     55  H   BFF d   1      20.897   0.062 -23.597  0.00  0.00     0.159 HD
ATOM     56  OAB BFF d   1      21.743   2.214 -25.739  0.00  0.00    -0.268 OA
ENDBRANCH  36  52
ENDBRANCH   3  32
TORSDOF 10
