REMARK  7 active torsions:
REMARK  status: ('A' for Active; 'I' for Inactive)
REMARK    1  A    between atoms: C2_2  and  N33_33 
REMARK    2  A    between atoms: C4_4  and  O5_5 
REMARK    3  A    between atoms: O5_5  and  C6_6 
REMARK    4  A    between atoms: C9_9  and  N13_13 
REMARK    5  A    between atoms: N13_13  and  C14_14 
REMARK    6  A    between atoms: C15_15  and  C20_20 
REMARK       I    between atoms: C20_20  and  N22_22 
REMARK    7  A    between atoms: N22_22  and  C23_23 
ROOT
ATOM      1  N13 L8V d   1       1.230   6.530  53.984  0.00  0.00    -0.340 N 
ATOM      2  H5  L8V d   1       1.442   5.721  54.585  0.00  0.00     0.167 HD
ENDROOT
BRANCH   1   3
ATOM      3  C9  L8V d   1       1.351   7.718  54.608  0.00  0.00     0.036 A 
ATOM      4  C8  L8V d   1       1.739   7.671  55.957  0.00  0.00    -0.054 A 
ATOM      5  C7  L8V d   1       1.891   8.867  56.685  0.00  0.00    -0.045 A 
ATOM      6  H3  L8V d   1       1.921   6.716  56.437  0.00  0.00     0.087 H 
ATOM      7  C6  L8V d   1       1.648  10.122  56.055  0.00  0.00     0.114 A 
ATOM      8  H2  L8V d   1       2.193   8.833  57.725  0.00  0.00     0.088 H 
ATOM      9  C11 L8V d   1       1.261  10.118  54.706  0.00  0.00     0.152 A 
ATOM     10  C10 L8V d   1       1.113   8.941  53.978  0.00  0.00    -0.017 A 
ATOM     11  F12 L8V d   1       1.022  11.260  54.073  0.00  0.00    -0.203 F 
ATOM     12  H4  L8V d   1       0.817   8.973  52.936  0.00  0.00     0.091 H 
BRANCH   7  13
ATOM     13  O5  L8V d   1       1.784  11.341  56.735  0.00  0.00    -0.308 OA
BRANCH  13  14
ATOM     14  C4  L8V d   1       0.766  11.754  57.620  0.00  0.00     0.081 A 
ATOM     15  C3  L8V d   1       1.145  12.751  58.553  0.00  0.00    -0.006 A 
ATOM     16  C2  L8V d   1       0.164  13.189  59.451  0.00  0.00     0.123 A 
ATOM     17  H1  L8V d   1       2.150  13.157  58.571  0.00  0.00     0.093 H 
ATOM     18  N1  L8V d   1      -1.080  12.667  59.405  0.00  0.00    -0.244 NA
ATOM     19  C30 L8V d   1      -1.447  11.716  58.519  0.00  0.00     0.007 A 
ATOM     20  C31 L8V d   1      -0.554  11.218  57.593  0.00  0.00    -0.033 A 
ATOM     21  H13 L8V d   1      -2.462  11.337  58.536  0.00  0.00     0.115 H 
ATOM     22  H14 L8V d   1      -0.843  10.455  56.879  0.00  0.00     0.090 H 
BRANCH  16  23
ATOM     23  N33 L8V d   1       0.399  14.141  60.399  0.00  0.00    -0.384 N 
ATOM     24  H15 L8V d   1       1.331  14.571  60.477  0.00  0.00     0.157 HD
ATOM     25  H16 L8V d   1      -0.356  14.430  61.037  0.00  0.00     0.157 HD
ENDBRANCH  16  23
ENDBRANCH  13  14
ENDBRANCH   7  13
ENDBRANCH   1   3
BRANCH   1  26
ATOM     26  C14 L8V d   1       0.882   6.193  52.714  0.00  0.00     0.143 A 
ATOM     27  C15 L8V d   1       0.476   4.870  52.494  0.00  0.00     0.078 A 
ATOM     28  C16 L8V d   1       0.121   4.536  51.173  0.00  0.00    -0.063 A 
ATOM     29  C17 L8V d   1       0.157   5.447  50.117  0.00  0.00    -0.065 A 
ATOM     30  H6  L8V d   1      -0.196   3.520  50.966  0.00  0.00     0.085 H 
ATOM     31  C18 L8V d   1       0.575   6.742  50.439  0.00  0.00     0.004 A 
ATOM     32  H7  L8V d   1      -0.122   5.168  49.108  0.00  0.00     0.085 H 
ATOM     33  N19 L8V d   1       0.926   7.101  51.700  0.00  0.00    -0.242 NA
ATOM     34  H8  L8V d   1       0.620   7.487  49.653  0.00  0.00     0.114 H 
BRANCH  27  35
ATOM     35  C20 L8V d   1       0.426   3.878  53.583  0.00  0.00     0.260 C 
ATOM     36  O21 L8V d   1       0.686   4.131  54.762  0.00  0.00    -0.267 OA
ATOM     37  N22 L8V d   1       0.068   2.632  53.207  0.00  0.00    -0.320 N 
ATOM     38  H9  L8V d   1      -0.139   2.449  52.246  0.00  0.00     0.169 HD
BRANCH  37  39
ATOM     39  C23 L8V d   1      -0.017   1.611  54.122  0.00  0.00     0.074 A 
ATOM     40  C24 L8V d   1      -1.035   1.551  55.134  0.00  0.00    -0.051 A 
ATOM     41  C25 L8V d   1      -1.053   0.456  56.048  0.00  0.00    -0.043 A 
ATOM     42  H10 L8V d   1      -1.784   2.332  55.203  0.00  0.00     0.087 H 
ATOM     43  C26 L8V d   1      -0.051  -0.553  55.924  0.00  0.00     0.119 A 
ATOM     44  H11 L8V d   1      -1.811   0.392  56.820  0.00  0.00     0.088 H 
ATOM     45  C27 L8V d   1       0.943  -0.519  54.957  0.00  0.00    -0.006 A 
ATOM     46  F29 L8V d   1       0.009  -1.610  56.730  0.00  0.00    -0.206 F 
ATOM     47  C28 L8V d   1       0.943   0.562  54.072  0.00  0.00     0.146 A 
ATOM     48  H12 L8V d   1       1.691  -1.301  54.891  0.00  0.00     0.093 H 
ATOM     49  F32 L8V d   1       1.909   0.570  53.152  0.00  0.00    -0.204 F 
ENDBRANCH  37  39
ENDBRANCH  27  35
ENDBRANCH   1  26
TORSDOF 7
