REMARK  6 active torsions:
REMARK  status: ('A' for Active; 'I' for Inactive)
REMARK    1  A    between atoms: C13_1  and  C19_6 
REMARK    2  A    between atoms: C12_9  and  C18_2 
REMARK       I    between atoms: C18_2  and  N26_26 
REMARK    3  A    between atoms: C17_3  and  N25_25 
REMARK    4  A    between atoms: N25_25  and  C15_5 
REMARK    5  A    between atoms: N26_26  and  C20_7 
REMARK    6  A    between atoms: C14_20  and  N24_24 
ROOT
ATOM      1  N25 NON d   1      -3.520  -4.493 -21.059  0.00  0.00    -0.340 N 
ATOM      2  H17 NON d   1      -3.593  -5.453 -21.426  0.00  0.00     0.167 HD
ENDROOT
BRANCH   1   3
ATOM      3  C17 NON d   1      -3.088  -4.391 -19.737  0.00  0.00     0.145 A 
ATOM      4  C11 NON d   1      -2.894  -5.548 -18.954  0.00  0.00     0.077 A 
ATOM      5  C16 NON d   1      -2.454  -5.403 -17.644  0.00  0.00     0.168 A 
ATOM      6  C9  NON d   1      -3.017  -6.937 -19.127  0.00  0.00     0.040 A 
ATOM      7  N22 NON d   1      -2.202  -4.222 -17.040  0.00  0.00    -0.221 NA
ATOM      8  N24 NON d   1      -2.339  -6.684 -17.112  0.00  0.00    -0.215 N 
ATOM      9  C10 NON d   1      -2.410  -3.187 -17.871  0.00  0.00     0.091 A 
ATOM     10  N23 NON d   1      -2.822  -3.199 -19.158  0.00  0.00    -0.223 NA
ATOM     11  H16 NON d   1      -2.221  -2.206 -17.451  0.00  0.00     0.146 H 
ATOM     12  N21 NON d   1      -2.697  -7.621 -18.032  0.00  0.00    -0.177 NA
ATOM     13  H15 NON d   1      -3.339  -7.403 -20.057  0.00  0.00     0.119 H 
BRANCH   8  14
ATOM     14  C14 NON d   1      -1.956  -7.091 -15.796  0.00  0.00     0.060 A 
ATOM     15  C6  NON d   1      -1.173  -6.293 -14.961  0.00  0.00    -0.055 A 
ATOM     16  C2  NON d   1      -0.831  -6.729 -13.669  0.00  0.00    -0.081 A 
ATOM     17  H12 NON d   1      -0.825  -5.328 -15.312  0.00  0.00     0.087 H 
ATOM     18  C1  NON d   1      -1.268  -7.959 -13.192  0.00  0.00    -0.083 A 
ATOM     19  H8  NON d   1      -0.218  -6.097 -13.036  0.00  0.00     0.083 H 
ATOM     20  C3  NON d   1      -2.051  -8.756 -14.017  0.00  0.00    -0.081 A 
ATOM     21  H7  NON d   1      -1.003  -8.290 -12.194  0.00  0.00     0.083 H 
ATOM     22  C7  NON d   1      -2.396  -8.329 -15.306  0.00  0.00    -0.055 A 
ATOM     23  H9  NON d   1      -2.399  -9.719 -13.660  0.00  0.00     0.083 H 
ATOM     24  H13 NON d   1      -3.011  -8.964 -15.933  0.00  0.00     0.087 H 
ENDBRANCH   8  14
ENDBRANCH   1   3
BRANCH   1  25
ATOM     25  C15 NON d   1      -3.869  -3.477 -21.961  0.00  0.00     0.040 A 
ATOM     26  C13 NON d   1      -5.215  -3.040 -22.050  0.00  0.00    -0.035 A 
ATOM     27  C5  NON d   1      -5.552  -2.029 -22.960  0.00  0.00    -0.074 A 
ATOM     28  C4  NON d   1      -4.579  -1.453 -23.779  0.00  0.00    -0.067 A 
ATOM     29  H11 NON d   1      -6.580  -1.690 -23.029  0.00  0.00     0.084 H 
ATOM     30  C12 NON d   1      -3.249  -1.877 -23.699  0.00  0.00     0.034 A 
ATOM     31  H10 NON d   1      -4.856  -0.674 -24.480  0.00  0.00     0.085 H 
ATOM     32  C8  NON d   1      -2.891  -2.889 -22.786  0.00  0.00    -0.041 A 
ATOM     33  H14 NON d   1      -1.860  -3.216 -22.719  0.00  0.00     0.088 H 
BRANCH  26  34
ATOM     34  C19 NON d   1      -6.299  -3.636 -21.191  0.00  0.00    -0.049 C 
ATOM     35  H1  NON d   1      -7.259  -3.152 -21.424  0.00  0.00     0.033 H 
ATOM     36  H2  NON d   1      -6.056  -3.476 -20.130  0.00  0.00     0.033 H 
ATOM     37  H3  NON d   1      -6.374  -4.715 -21.392  0.00  0.00     0.033 H 
ENDBRANCH  26  34
BRANCH  30  38
ATOM     38  C18 NON d   1      -2.198  -1.263 -24.553  0.00  0.00     0.251 C 
ATOM     39  N26 NON d   1      -2.587  -0.307 -25.462  0.00  0.00    -0.361 N 
ATOM     40  H18 NON d   1      -3.550  -0.209 -25.713  0.00  0.00     0.162 HD
ATOM     41  O27 NON d   1      -1.038  -1.615 -24.415  0.00  0.00    -0.268 OA
BRANCH  39  42
ATOM     42  C20 NON d   1      -1.587   0.552 -26.048  0.00  0.00    -0.018 C 
ATOM     43  H4  NON d   1      -2.069   1.252 -26.747  0.00  0.00     0.056 H 
ATOM     44  H5  NON d   1      -0.851  -0.059 -26.590  0.00  0.00     0.056 H 
ATOM     45  H6  NON d   1      -1.079   1.119 -25.254  0.00  0.00     0.056 H 
ENDBRANCH  39  42
ENDBRANCH  30  38
ENDBRANCH   1  25
TORSDOF 6
