REMARK  9 active torsions:
REMARK  status: ('A' for Active; 'I' for Inactive)
REMARK    1  A    between atoms: C26_26  and  N1_1 
REMARK       I    between atoms: N1_1  and  C27_27 
REMARK    2  A    between atoms: C2_2  and  C22_22 
REMARK    3  A    between atoms: C9_9  and  C16_16 
REMARK    4  A    between atoms: C14_14  and  C26_26 
REMARK       I    between atoms: C27_27  and  N28_28 
REMARK    5  A    between atoms: N28_28  and  C30_30 
REMARK    6  A    between atoms: C30_30  and  C31_31 
REMARK    7  A    between atoms: C31_31  and  N32_32 
REMARK    8  A    between atoms: N32_32  and  C33_33 
REMARK    9  A    between atoms: N32_32  and  C34_34 
ROOT
ATOM      1  C2  EMQ d   1      26.002  10.204  11.155  0.00  0.00     0.048 A 
ATOM      2  C3  EMQ d   1      26.519   8.954  10.750  0.00  0.00    -0.066 A 
ATOM      3  C4  EMQ d   1      27.460   8.280  11.536  0.00  0.00    -0.056 A 
ATOM      4  C5  EMQ d   1      26.436  10.775  12.362  0.00  0.00    -0.058 A 
ATOM      5  C6  EMQ d   1      27.378  10.107  13.154  0.00  0.00    -0.002 A 
ATOM      6  C7  EMQ d   1      27.896   8.853  12.743  0.00  0.00     0.037 A 
ATOM      7  N8  EMQ d   1      28.855   8.172  13.530  0.00  0.00    -0.380 N 
ATOM      8  C9  EMQ d   1      29.305   8.727  14.842  0.00  0.00     0.041 C 
ATOM      9  C10 EMQ d   1      27.833  10.750  14.441  0.00  0.00     0.072 C 
ATOM     10  C11 EMQ d   1      29.251  10.277  14.807  0.00  0.00    -0.001 C 
ATOM     11  C12 EMQ d   1      29.686  10.919  16.154  0.00  0.00    -0.055 C 
ATOM     12  C13 EMQ d   1      28.596  10.836  17.244  0.00  0.00    -0.039 C 
ATOM     13  C14 EMQ d   1      27.211  11.235  16.646  0.00  0.00     0.054 C 
ATOM     14  O15 EMQ d   1      26.924  10.408  15.493  0.00  0.00    -0.374 OA
ATOM     15  H2  EMQ d   1      26.183   8.511   9.819  0.00  0.00     0.084 H 
ATOM     16  H3  EMQ d   1      27.851   7.321  11.216  0.00  0.00     0.086 H 
ATOM     17  H4  EMQ d   1      26.042  11.733  12.681  0.00  0.00     0.085 H 
ATOM     18  H5  EMQ d   1      29.248   7.281  13.194  0.00  0.00     0.160 HD
ATOM     19  H6  EMQ d   1      28.635   8.363  15.635  0.00  0.00     0.080 H 
ATOM     20  H7  EMQ d   1      27.842  11.842  14.312  0.00  0.00     0.091 H 
ATOM     21  H8  EMQ d   1      29.945  10.622  14.027  0.00  0.00     0.048 H 
ATOM     22  H9  EMQ d   1      29.924  11.978  15.976  0.00  0.00     0.033 H 
ATOM     23  H10 EMQ d   1      30.584  10.398  16.517  0.00  0.00     0.033 H 
ATOM     24  H11 EMQ d   1      28.849  11.522  18.065  0.00  0.00     0.036 H 
ATOM     25  H12 EMQ d   1      28.544   9.807  17.629  0.00  0.00     0.036 H 
ATOM     26  H13 EMQ d   1      27.253  12.288  16.332  0.00  0.00     0.085 H 
ENDROOT
BRANCH  13  27
ATOM     27  C26 EMQ d   1      26.070  11.070  17.697  0.00  0.00     0.021 C 
ATOM     28  H19 EMQ d   1      25.842  12.051  18.139  0.00  0.00     0.068 H 
ATOM     29  H20 EMQ d   1      25.173  10.675  17.197  0.00  0.00     0.068 H 
BRANCH  27  30
ATOM     30  N1  EMQ d   1      26.477  10.140  18.766  0.00  0.00    -0.341 N 
ATOM     31  C27 EMQ d   1      26.863  10.573  20.001  0.00  0.00     0.316 C 
ATOM     32  N28 EMQ d   1      27.275   9.637  20.903  0.00  0.00    -0.342 N 
ATOM     33  O29 EMQ d   1      26.866  11.790  20.276  0.00  0.00    -0.247 OA
ATOM     34  H21 EMQ d   1      27.249   8.670  20.651  0.00  0.00     0.164 HD
ATOM     35  H1  EMQ d   1      26.470   9.158  18.579  0.00  0.00     0.164 HD
BRANCH  32  36
ATOM     36  C30 EMQ d   1      27.754  10.017  22.232  0.00  0.00     0.019 C 
ATOM     37  H22 EMQ d   1      27.683  11.109  22.341  0.00  0.00     0.066 H 
ATOM     38  H23 EMQ d   1      28.804   9.706  22.338  0.00  0.00     0.066 H 
BRANCH  36  39
ATOM     39  C31 EMQ d   1      26.917   9.346  23.337  0.00  0.00     0.097 C 
ATOM     40  H24 EMQ d   1      26.561   8.370  22.976  0.00  0.00     0.078 H 
ATOM     41  H25 EMQ d   1      26.054   9.986  23.574  0.00  0.00     0.078 H 
BRANCH  39  42
ATOM     42  N32 EMQ d   1      27.726   9.144  24.570  0.00  0.00    -0.077 N 
ATOM     43  H26 EMQ d   1      28.523   8.551  24.398  0.00  0.00     0.279 HD
BRANCH  42  44
ATOM     44  C33 EMQ d   1      28.120  10.454  25.069  0.00  0.00     0.066 C 
ATOM     45  H27 EMQ d   1      28.721  10.333  25.983  0.00  0.00     0.068 H 
ATOM     46  H28 EMQ d   1      27.221  11.045  25.297  0.00  0.00     0.068 H 
ATOM     47  H29 EMQ d   1      28.716  10.974  24.304  0.00  0.00     0.068 H 
ENDBRANCH  42  44
BRANCH  42  48
ATOM     48  C34 EMQ d   1      26.826   8.580  25.601  0.00  0.00     0.066 C 
ATOM     49  H30 EMQ d   1      26.488   7.582  25.286  0.00  0.00     0.068 H 
ATOM     50  H31 EMQ d   1      25.955   9.239  25.728  0.00  0.00     0.068 H 
ATOM     51  H32 EMQ d   1      27.367   8.499  26.555  0.00  0.00     0.068 H 
ENDBRANCH  42  48
ENDBRANCH  39  42
ENDBRANCH  36  39
ENDBRANCH  32  36
ENDBRANCH  27  30
ENDBRANCH  13  27
BRANCH   8  52
ATOM     52  C16 EMQ d   1      30.718   8.266  15.138  0.00  0.00    -0.035 A 
ATOM     53  C17 EMQ d   1      30.925   7.416  16.228  0.00  0.00    -0.075 A 
ATOM     54  C18 EMQ d   1      32.219   6.963  16.551  0.00  0.00    -0.082 A 
ATOM     55  H14 EMQ d   1      30.081   7.102  16.831  0.00  0.00     0.084 H 
ATOM     56  C19 EMQ d   1      33.322   7.363  15.780  0.00  0.00    -0.083 A 
ATOM     57  H15 EMQ d   1      32.364   6.303  17.398  0.00  0.00     0.083 H 
ATOM     58  C20 EMQ d   1      33.125   8.220  14.679  0.00  0.00    -0.082 A 
ATOM     59  H16 EMQ d   1      34.318   7.015  16.030  0.00  0.00     0.083 H 
ATOM     60  C21 EMQ d   1      31.826   8.678  14.349  0.00  0.00    -0.075 A 
ATOM     61  H17 EMQ d   1      33.974   8.531  14.080  0.00  0.00     0.083 H 
ATOM     62  H18 EMQ d   1      31.678   9.338  13.502  0.00  0.00     0.084 H 
ENDBRANCH   8  52
BRANCH   1  63
ATOM     63  C22 EMQ d   1      24.994  10.923  10.272  0.00  0.00     0.417 C 
ATOM     64  F23 EMQ d   1      24.224   9.975   9.582  0.00  0.00    -0.166 F 
ATOM     65  F24 EMQ d   1      24.165  11.751  11.034  0.00  0.00    -0.166 F 
ATOM     66  F25 EMQ d   1      25.687  11.713   9.347  0.00  0.00    -0.166 F 
ENDBRANCH   1  63
TORSDOF 9
