REMARK  8 active torsions:
REMARK  status: ('A' for Active; 'I' for Inactive)
REMARK    1  A    between atoms: N1_3  and  C11_20 
REMARK    2  A    between atoms: C12_21  and  N1_3 
REMARK    3  A    between atoms: C7_16  and  N3_11 
REMARK    4  A    between atoms: C9_18  and  C6_15 
REMARK    5  A    between atoms: C7_16  and  C12_21 
REMARK    6  A    between atoms: C20_29  and  C7_16 
REMARK    7  A    between atoms: C15_24  and  C19_28 
REMARK    8  A    between atoms: C18_27  and  C20_29 
ROOT
ATOM      1  C12 L9L d   1      31.490   0.468   7.071  0.00  0.00     0.021 C 
ATOM      2  H11 L9L d   1      31.271   0.961   8.030  0.00  0.00     0.067 H 
ATOM      3  H12 L9L d   1      32.231  -0.330   7.229  0.00  0.00     0.067 H 
ENDROOT
BRANCH   1   4
ATOM      4  N1  L9L d   1      32.041   1.453   6.144  0.00  0.00    -0.367 N 
ATOM      5  H2  L9L d   1      32.717   1.169   5.421  0.00  0.00     0.161 HD
BRANCH   4   6
ATOM      6  C11 L9L d   1      31.623   2.836   6.255  0.00  0.00     0.167 A 
ATOM      7  S1  L9L d   1      30.485   3.324   7.459  0.00  0.00    -0.050 SA
ATOM      8  C9  L9L d   1      30.357   4.860   6.727  0.00  0.00     0.036 A 
ATOM      9  C10 L9L d   1      31.202   4.958   5.564  0.00  0.00     0.022 A 
ATOM     10  N2  L9L d   1      31.903   3.786   5.327  0.00  0.00    -0.235 NA
ATOM     11  H10 L9L d   1      31.281   5.849   4.943  0.00  0.00     0.117 H 
BRANCH   8  12
ATOM     12  C6  L9L d   1      29.360   5.868   7.227  0.00  0.00    -0.017 A 
ATOM     13  C1  L9L d   1      28.943   7.025   6.434  0.00  0.00    -0.070 A 
ATOM     14  C2  L9L d   1      28.041   8.032   6.896  0.00  0.00    -0.056 A 
ATOM     15  H1  L9L d   1      29.344   7.124   5.432  0.00  0.00     0.085 H 
ATOM     16  C3  L9L d   1      27.523   7.848   8.233  0.00  0.00     0.041 A 
ATOM     17  H3  L9L d   1      27.762   8.881   6.282  0.00  0.00     0.087 H 
ATOM     18  C4  L9L d   1      27.871   6.748   9.043  0.00  0.00    -0.022 A 
ATOM     19  N4  L9L d   1      26.581   8.567   8.835  0.00  0.00    -0.326 N 
ATOM     20  C5  L9L d   1      28.778   5.738   8.577  0.00  0.00    -0.063 A 
ATOM     21  C21 L9L d   1      27.122   6.833  10.354  0.00  0.00     0.035 A 
ATOM     22  H8  L9L d   1      29.032   4.893   9.207  0.00  0.00     0.085 H 
ATOM     23  C8  L9L d   1      26.233   8.043  10.024  0.00  0.00     0.226 A 
ATOM     24  H19 L9L d   1      27.793   7.030  11.204  0.00  0.00     0.054 H 
ATOM     25  H20 L9L d   1      26.532   5.927  10.555  0.00  0.00     0.054 H 
ATOM     26  O1  L9L d   1      25.340   8.490  10.718  0.00  0.00    -0.273 OA
ATOM     27  H7  L9L d   1      26.179   9.398   8.450  0.00  0.00     0.169 HD
ENDBRANCH   8  12
ENDBRANCH   4   6
ENDBRANCH   1   4
BRANCH   1  28
ATOM     28  C7  L9L d   1      30.201  -0.150   6.522  0.00  0.00     0.118 C 
ATOM     29  H9  L9L d   1      29.562   0.666   6.154  0.00  0.00     0.086 H 
BRANCH  28  30
ATOM     30  N3  L9L d   1      30.548  -1.039   5.366  0.00  0.00    -0.073 N 
ATOM     31  H4  L9L d   1      31.069  -0.513   4.682  0.00  0.00     0.274 HD
ATOM     32  H5  L9L d   1      29.701  -1.390   4.946  0.00  0.00     0.274 HD
ATOM     33  H6  L9L d   1      31.107  -1.812   5.692  0.00  0.00     0.274 HD
ENDBRANCH  28  30
BRANCH  28  34
ATOM     34  C20 L9L d   1      29.406  -0.917   7.586  0.00  0.00    -0.013 C 
ATOM     35  H17 L9L d   1      30.055  -1.679   8.042  0.00  0.00     0.043 H 
ATOM     36  H18 L9L d   1      28.544  -1.406   7.110  0.00  0.00     0.043 H 
BRANCH  34  37
ATOM     37  C18 L9L d   1      28.907   0.033   8.673  0.00  0.00    -0.056 A 
ATOM     38  C13 L9L d   1      27.838   0.896   8.295  0.00  0.00    -0.076 A 
ATOM     39  C14 L9L d   1      27.418   1.889   9.258  0.00  0.00    -0.068 A 
ATOM     40  H13 L9L d   1      27.360   0.811   7.326  0.00  0.00     0.084 H 
ATOM     41  C15 L9L d   1      28.029   1.974  10.596  0.00  0.00     0.047 A 
ATOM     42  H14 L9L d   1      26.634   2.588   8.989  0.00  0.00     0.084 H 
ATOM     43  C16 L9L d   1      29.146   1.040  10.890  0.00  0.00    -0.068 A 
ATOM     44  C17 L9L d   1      29.561   0.023   9.960  0.00  0.00    -0.076 A 
ATOM     45  H15 L9L d   1      29.666   1.127  11.837  0.00  0.00     0.084 H 
ATOM     46  H16 L9L d   1      30.321  -0.708  10.211  0.00  0.00     0.084 H 
BRANCH  41  47
ATOM     47  C19 L9L d   1      27.565   3.004  11.688  0.00  0.00     0.417 C 
ATOM     48  F1  L9L d   1      28.655   3.799  11.845  0.00  0.00    -0.166 F 
ATOM     49  F2  L9L d   1      27.335   2.290  12.809  0.00  0.00    -0.166 F 
ATOM     50  F3  L9L d   1      26.433   3.647  11.191  0.00  0.00    -0.166 F 
ENDBRANCH  41  47
ENDBRANCH  34  37
ENDBRANCH  28  34
ENDBRANCH   1  28
TORSDOF 8
