REMARK  9 active torsions:
REMARK  status: ('A' for Active; 'I' for Inactive)
REMARK    1  A    between atoms: C3_6  and  CL1_27 
REMARK    2  A    between atoms: C10_17  and  N3_7 
REMARK    3  A    between atoms: C8_15  and  C6_12 
REMARK    4  A    between atoms: N6_13  and  C7_14 
REMARK    5  A    between atoms: C12_19  and  N6_13 
REMARK    6  A    between atoms: C7_14  and  C10_17 
REMARK    7  A    between atoms: C10_17  and  C8_15 
REMARK    8  A    between atoms: C9_16  and  C18_25 
REMARK    9  A    between atoms: C17_24  and  C19_26 
ROOT
ATOM      1  C7  L9M d   1      31.497   0.734   7.285  0.00  0.00     0.021 C 
ATOM      2  H10 L9M d   1      31.311   1.216   8.256  0.00  0.00     0.067 H 
ATOM      3  H11 L9M d   1      32.277  -0.033   7.399  0.00  0.00     0.067 H 
ENDROOT
BRANCH   1   4
ATOM      4  N6  L9M d   1      31.966   1.763   6.314  0.00  0.00    -0.366 N 
ATOM      5  H9  L9M d   1      32.700   1.590   5.613  0.00  0.00     0.161 HD
BRANCH   4   6
ATOM      6  C12 L9M d   1      31.303   2.993   6.454  0.00  0.00     0.190 A 
ATOM      7  S1  L9M d   1      30.054   3.502   7.610  0.00  0.00    -0.028 SA
ATOM      8  C19 L9M d   1      29.922   5.040   6.761  0.00  0.00     0.133 A 
ATOM      9  N5  L9M d   1      30.812   5.050   5.747  0.00  0.00    -0.140 NA
ATOM     10  N2  L9M d   1      31.537   4.045   5.652  0.00  0.00    -0.123 NA
BRANCH   8  11
ATOM     11  C17 L9M d   1      29.003   6.115   7.123  0.00  0.00     0.003 A 
ATOM     12  C11 L9M d   1      29.036   7.323   6.297  0.00  0.00    -0.068 A 
ATOM     13  C13 L9M d   1      28.139   8.411   6.621  0.00  0.00    -0.054 A 
ATOM     14  H15 L9M d   1      29.719   7.401   5.459  0.00  0.00     0.085 H 
ATOM     15  C14 L9M d   1      27.233   8.264   7.762  0.00  0.00     0.062 A 
ATOM     16  H16 L9M d   1      28.138   9.319   6.029  0.00  0.00     0.087 H 
ATOM     17  N4  L9M d   1      26.275   9.060   8.341  0.00  0.00    -0.277 N 
ATOM     18  C15 L9M d   1      27.186   7.051   8.616  0.00  0.00     0.019 A 
ATOM     19  N1  L9M d   1      25.697   8.482   9.397  0.00  0.00    -0.179 NA
ATOM     20  H7  L9M d   1      26.029  10.000   7.998  0.00  0.00     0.189 HD
ATOM     21  C9  L9M d   1      26.177   7.275   9.645  0.00  0.00     0.063 A 
ATOM     22  C16 L9M d   1      28.092   5.970   8.275  0.00  0.00    -0.056 A 
ATOM     23  H17 L9M d   1      28.100   5.060   8.864  0.00  0.00     0.086 H 
BRANCH  21  24
ATOM     24  C18 L9M d   1      25.747   6.417  10.763  0.00  0.00    -0.033 C 
ATOM     25  H18 L9M d   1      26.306   5.470  10.735  0.00  0.00     0.035 H 
ATOM     26  H19 L9M d   1      24.670   6.210  10.673  0.00  0.00     0.035 H 
ATOM     27  H20 L9M d   1      25.944   6.930  11.716  0.00  0.00     0.035 H 
ENDBRANCH  21  24
ENDBRANCH   8  11
ENDBRANCH   4   6
ENDBRANCH   1   4
BRANCH   1  28
ATOM     28  C10 L9M d   1      30.203   0.063   6.804  0.00  0.00     0.118 C 
ATOM     29  H14 L9M d   1      29.555   0.849   6.388  0.00  0.00     0.086 H 
BRANCH  28  30
ATOM     30  N3  L9M d   1      30.530  -0.893   5.705  0.00  0.00    -0.073 N 
ATOM     31  H3  L9M d   1      31.045  -0.412   4.984  0.00  0.00     0.274 HD
ATOM     32  H4  L9M d   1      29.677  -1.265   5.318  0.00  0.00     0.274 HD
ATOM     33  H5  L9M d   1      31.090  -1.647   6.071  0.00  0.00     0.274 HD
ENDBRANCH  28  30
BRANCH  28  34
ATOM     34  C8  L9M d   1      29.416  -0.621   7.933  0.00  0.00    -0.013 C 
ATOM     35  H12 L9M d   1      28.522  -1.089   7.494  0.00  0.00     0.043 H 
ATOM     36  H13 L9M d   1      30.056  -1.398   8.376  0.00  0.00     0.043 H 
BRANCH  34  37
ATOM     37  C6  L9M d   1      28.960   0.325   9.057  0.00  0.00    -0.056 A 
ATOM     38  C1  L9M d   1      27.781   1.150   8.842  0.00  0.00    -0.076 A 
ATOM     39  C2  L9M d   1      27.381   2.045   9.904  0.00  0.00    -0.077 A 
ATOM     40  H1  L9M d   1      27.221   1.095   7.915  0.00  0.00     0.084 H 
ATOM     41  C3  L9M d   1      28.187   2.053  11.116  0.00  0.00    -0.062 A 
ATOM     42  H2  L9M d   1      26.513   2.686   9.802  0.00  0.00     0.084 H 
ATOM     43  C4  L9M d   1      29.364   1.225  11.335  0.00  0.00    -0.077 A 
ATOM     44  C5  L9M d   1      29.752   0.344  10.274  0.00  0.00    -0.076 A 
ATOM     45  H6  L9M d   1      29.924   1.273  12.262  0.00  0.00     0.084 H 
ATOM     46  H8  L9M d   1      30.620  -0.296  10.378  0.00  0.00     0.084 H 
BRANCH  41  47
ATOM     47  CL1 L9M d   1      27.680   3.160  12.380  0.00  0.00    -0.051 C 
ATOM     48  H21 L9M d   1      26.782   3.704  12.053  0.00  0.00     0.033 H 
ATOM     49  H22 L9M d   1      28.488   3.877  12.585  0.00  0.00     0.033 H 
ATOM     50  H23 L9M d   1      27.452   2.593  13.295  0.00  0.00     0.033 H 
ENDBRANCH  41  47
ENDBRANCH  34  37
ENDBRANCH  28  34
ENDBRANCH   1  28
TORSDOF 9
