REMARK  8 active torsions:
REMARK  status: ('A' for Active; 'I' for Inactive)
REMARK    1  A    between atoms: C3_6  and  CL1_26 
REMARK    2  A    between atoms: C10_17  and  N3_7 
REMARK    3  A    between atoms: C8_15  and  C6_12 
REMARK    4  A    between atoms: N6_13  and  C7_14 
REMARK    5  A    between atoms: C12_19  and  N6_13 
REMARK    6  A    between atoms: C7_14  and  C10_17 
REMARK    7  A    between atoms: C10_17  and  C8_15 
REMARK    8  A    between atoms: C17_24  and  C18_25 
ROOT
ATOM      1  C7  L9N d   1      30.460  20.652  60.192  0.00  0.00     0.021 C 
ATOM      2  H10 L9N d   1      31.410  20.212  60.530  0.00  0.00     0.067 H 
ATOM      3  H11 L9N d   1      30.164  21.458  60.879  0.00  0.00     0.067 H 
ENDROOT
BRANCH   1   4
ATOM      4  N6  L9N d   1      29.430  19.627  60.175  0.00  0.00    -0.366 N 
ATOM      5  H9  L9N d   1      28.526  19.826  60.627  0.00  0.00     0.161 HD
BRANCH   4   6
ATOM      6  C12 L9N d   1      29.628  18.322  59.540  0.00  0.00     0.190 A 
ATOM      7  S1  L9N d   1      31.086  17.654  58.940  0.00  0.00    -0.028 SA
ATOM      8  C18 L9N d   1      30.339  16.175  58.413  0.00  0.00     0.133 A 
ATOM      9  N5  L9N d   1      28.993  16.207  58.698  0.00  0.00    -0.140 NA
ATOM     10  N2  L9N d   1      28.684  17.384  59.300  0.00  0.00    -0.123 NA
BRANCH   8  11
ATOM     11  C17 L9N d   1      31.055  15.035  57.738  0.00  0.00     0.003 A 
ATOM     12  C11 L9N d   1      30.358  13.828  57.229  0.00  0.00    -0.068 A 
ATOM     13  C13 L9N d   1      31.083  12.720  56.552  0.00  0.00    -0.052 A 
ATOM     14  H16 L9N d   1      29.284  13.751  57.355  0.00  0.00     0.085 H 
ATOM     15  C14 L9N d   1      32.525  12.837  56.386  0.00  0.00     0.088 A 
ATOM     16  H17 L9N d   1      30.551  11.847  56.191  0.00  0.00     0.087 H 
ATOM     17  N4  L9N d   1      33.541  12.119  55.861  0.00  0.00    -0.175 NA
ATOM     18  C15 L9N d   1      33.265  14.039  56.886  0.00  0.00     0.012 A 
ATOM     19  N1  L9N d   1      34.785  12.636  55.932  0.00  0.00    -0.288 N 
ATOM     20  C9  L9N d   1      34.646  13.842  56.568  0.00  0.00     0.008 A 
ATOM     21  H2  L9N d   1      35.656  12.213  55.582  0.00  0.00     0.188 HD
ATOM     22  H14 L9N d   1      35.454  14.536  56.794  0.00  0.00     0.115 H 
ATOM     23  C16 L9N d   1      32.520  15.097  57.544  0.00  0.00    -0.057 A 
ATOM     24  H18 L9N d   1      33.058  15.965  57.907  0.00  0.00     0.086 H 
ENDBRANCH   8  11
ENDBRANCH   4   6
ENDBRANCH   1   4
BRANCH   1  25
ATOM     25  C10 L9N d   1      30.636  21.227  58.769  0.00  0.00     0.118 C 
ATOM     26  H15 L9N d   1      30.478  20.417  58.041  0.00  0.00     0.086 H 
BRANCH  25  27
ATOM     27  N3  L9N d   1      29.600  22.269  58.568  0.00  0.00    -0.073 N 
ATOM     28  H4  L9N d   1      28.688  21.870  58.725  0.00  0.00     0.274 HD
ATOM     29  H5  L9N d   1      29.655  22.620  57.625  0.00  0.00     0.274 HD
ATOM     30  H6  L9N d   1      29.753  23.024  59.218  0.00  0.00     0.274 HD
ENDBRANCH  25  27
BRANCH  25  31
ATOM     31  C8  L9N d   1      32.045  21.818  58.533  0.00  0.00    -0.013 C 
ATOM     32  H12 L9N d   1      32.083  22.281  57.536  0.00  0.00     0.043 H 
ATOM     33  H13 L9N d   1      32.253  22.579  59.299  0.00  0.00     0.043 H 
BRANCH  31  34
ATOM     34  C6  L9N d   1      33.104  20.711  58.618  0.00  0.00    -0.056 A 
ATOM     35  C1  L9N d   1      33.285  19.842  57.466  0.00  0.00    -0.076 A 
ATOM     36  C2  L9N d   1      34.257  18.770  57.556  0.00  0.00    -0.077 A 
ATOM     37  H1  L9N d   1      32.707  19.992  56.561  0.00  0.00     0.084 H 
ATOM     38  C3  L9N d   1      34.985  18.646  58.807  0.00  0.00    -0.062 A 
ATOM     39  H3  L9N d   1      34.432  18.093  56.728  0.00  0.00     0.084 H 
ATOM     40  C4  L9N d   1      34.813  19.512  59.951  0.00  0.00    -0.077 A 
ATOM     41  C5  L9N d   1      33.851  20.570  59.856  0.00  0.00    -0.076 A 
ATOM     42  H7  L9N d   1      35.394  19.366  60.854  0.00  0.00     0.084 H 
ATOM     43  H8  L9N d   1      33.685  21.247  60.686  0.00  0.00     0.084 H 
BRANCH  38  44
ATOM     44  CL1 L9N d   1      36.180  17.363  59.012  0.00  0.00    -0.051 C 
ATOM     45  H19 L9N d   1      36.236  16.763  58.092  0.00  0.00     0.033 H 
ATOM     46  H20 L9N d   1      35.885  16.718  59.853  0.00  0.00     0.033 H 
ATOM     47  H21 L9N d   1      37.164  17.808  59.219  0.00  0.00     0.033 H 
ENDBRANCH  38  44
ENDBRANCH  31  34
ENDBRANCH  25  31
ENDBRANCH   1  25
TORSDOF 8
