REMARK  6 active torsions:
REMARK  status: ('A' for Active; 'I' for Inactive)
REMARK    1  A    between atoms: C3_3  and  N8_8 
REMARK       I    between atoms: N8_8  and  C11_11 
REMARK    2  A    between atoms: C10_10  and  C12_12 
REMARK    3  A    between atoms: C11_11  and  C13_13 
REMARK    4  A    between atoms: C13_13  and  C17_17 
REMARK    5  A    between atoms: C17_17  and  C20_20 
REMARK    6  A    between atoms: C21_21  and  O22_22 
ROOT
ATOM      1  C1  OFI d   1      -5.551  -8.093  18.746  0.00  0.00     0.040 A 
ATOM      2  C2  OFI d   1      -5.288  -8.474  17.367  0.00  0.00     0.091 A 
ATOM      3  C3  OFI d   1      -5.224  -9.283  19.562  0.00  0.00     0.137 A 
ATOM      4  C4  OFI d   1      -6.007  -6.783  18.972  0.00  0.00    -0.066 A 
ATOM      5  C5  OFI d   1      -5.482  -7.579  16.316  0.00  0.00    -0.042 A 
ATOM      6  N6  OFI d   1      -4.864  -9.781  17.460  0.00  0.00    -0.172 NA
ATOM      7  N7  OFI d   1      -4.832 -10.229  18.722  0.00  0.00    -0.261 N 
ATOM      8  C9  OFI d   1      -6.201  -5.875  17.888  0.00  0.00    -0.071 A 
ATOM      9  C10 OFI d   1      -5.938  -6.255  16.552  0.00  0.00    -0.024 A 
ATOM     10  H1  OFI d   1      -6.215  -6.457  19.985  0.00  0.00     0.085 H 
ATOM     11  H2  OFI d   1      -5.281  -7.899  15.300  0.00  0.00     0.088 H 
ATOM     12  H3  OFI d   1      -4.543 -11.178  19.000  0.00  0.00     0.191 HD
ATOM     13  H5  OFI d   1      -6.558  -4.872  18.094  0.00  0.00     0.084 H 
ENDROOT
BRANCH   3  14
ATOM     14  N8  OFI d   1      -5.327  -9.355  21.043  0.00  0.00    -0.311 N 
ATOM     15  C11 OFI d   1      -6.274  -8.893  21.891  0.00  0.00     0.223 C 
ATOM     16  O14 OFI d   1      -7.302  -8.284  21.591  0.00  0.00    -0.273 OA
ATOM     17  H4  OFI d   1      -4.566  -9.826  21.489  0.00  0.00     0.170 HD
BRANCH  15  18
ATOM     18  C13 OFI d   1      -5.920  -9.200  23.353  0.00  0.00     0.009 C 
ATOM     19  H6  OFI d   1      -5.655  -8.259  23.857  0.00  0.00     0.047 H 
ATOM     20  H7  OFI d   1      -5.057  -9.881  23.372  0.00  0.00     0.047 H 
BRANCH  18  21
ATOM     21  C17 OFI d   1      -7.078  -9.854  24.111  0.00  0.00    -0.061 C 
ATOM     22  H10 OFI d   1      -7.342 -10.798  23.612  0.00  0.00     0.033 H 
ATOM     23  H11 OFI d   1      -7.943  -9.175  24.094  0.00  0.00     0.033 H 
BRANCH  21  24
ATOM     24  C20 OFI d   1      -6.709 -10.151  25.571  0.00  0.00    -0.076 C 
ATOM     25  H14 OFI d   1      -7.566 -10.619  26.078  0.00  0.00     0.027 H 
ATOM     26  H15 OFI d   1      -6.449  -9.212  26.082  0.00  0.00     0.027 H 
ATOM     27  H16 OFI d   1      -5.848 -10.835  25.600  0.00  0.00     0.027 H 
ENDBRANCH  21  24
ENDBRANCH  18  21
ENDBRANCH  15  18
ENDBRANCH   3  14
BRANCH   9  28
ATOM     28  C12 OFI d   1      -6.125  -5.281  15.428  0.00  0.00    -0.026 A 
ATOM     29  C15 OFI d   1      -7.347  -5.167  14.732  0.00  0.00    -0.070 A 
ATOM     30  C18 OFI d   1      -7.500  -4.232  13.675  0.00  0.00    -0.050 A 
ATOM     31  H8  OFI d   1      -8.181  -5.802  15.008  0.00  0.00     0.085 H 
ATOM     32  C21 OFI d   1      -6.427  -3.395  13.298  0.00  0.00     0.065 A 
ATOM     33  H12 OFI d   1      -8.447  -4.160  13.153  0.00  0.00     0.087 H 
ATOM     34  C19 OFI d   1      -5.199  -3.500  13.983  0.00  0.00    -0.050 A 
ATOM     35  C16 OFI d   1      -5.056  -4.436  15.037  0.00  0.00    -0.070 A 
ATOM     36  H13 OFI d   1      -4.366  -2.866  13.704  0.00  0.00     0.087 H 
ATOM     37  H9  OFI d   1      -4.107  -4.508  15.556  0.00  0.00     0.085 H 
BRANCH  32  38
ATOM     38  O22 OFI d   1      -6.603  -2.494  12.273  0.00  0.00    -0.361 OA
ATOM     39  H17 OFI d   1      -6.460  -1.613  12.599  0.00  0.00     0.217 HD
ENDBRANCH  32  38
ENDBRANCH   9  28
TORSDOF 6
