REMARK  13 active torsions:
REMARK  status: ('A' for Active; 'I' for Inactive)
REMARK    1  A    between atoms: C9_9  and  C10_10 
REMARK       I    between atoms: C10_10  and  N12_12 
REMARK    2  A    between atoms: C14_14  and  N15_15 
REMARK    3  A    between atoms: N15_15  and  C16_16 
REMARK    4  A    between atoms: N15_15  and  C22_22 
REMARK    5  A    between atoms: C16_16  and  C17_17 
REMARK    6  A    between atoms: C17_17  and  C18_18 
REMARK    7  A    between atoms: C18_18  and  N19_19 
REMARK    8  A    between atoms: N19_19  and  C20_20 
REMARK    9  A    between atoms: N19_19  and  C21_21 
REMARK   10  A    between atoms: C25_25  and  C26_26 
REMARK   11  A    between atoms: C27_27  and  C28_28 
REMARK   12  A    between atoms: N36_36  and  C37_37 
REMARK   13  A    between atoms: C37_37  and  C38_38 
ROOT
ATOM      1  C1  WW8 d   1      15.433  -6.581   4.984  0.00  0.00    -0.035 A 
ATOM      2  C2  WW8 d   1      16.445  -6.318   5.900  0.00  0.00     0.036 A 
ATOM      3 CL3  WW8 d   1      16.921  -7.533   7.030  0.00  0.00    -0.084 Cl
ATOM      4  C4  WW8 d   1      17.091  -5.087   5.894  0.00  0.00    -0.061 A 
ATOM      5  C5  WW8 d   1      16.721  -4.087   4.989  0.00  0.00    -0.068 A 
ATOM      6  C6  WW8 d   1      15.713  -4.359   4.073  0.00  0.00     0.006 A 
ATOM      7  C7  WW8 d   1      15.065  -5.589   4.097  0.00  0.00     0.045 A 
ATOM      8  N8  WW8 d   1      14.175  -5.605   3.136  0.00  0.00    -0.350 N 
ATOM      9  C9  WW8 d   1      14.175  -4.442   2.512  0.00  0.00     0.115 A 
ATOM     10  C25 WW8 d   1      15.111  -3.593   3.088  0.00  0.00     0.038 A 
ATOM     11  H1  WW8 d   1      14.942  -7.547   4.966  0.00  0.00     0.089 H 
ATOM     12  H2  WW8 d   1      17.892  -4.900   6.600  0.00  0.00     0.086 H 
ATOM     13  H3  WW8 d   1      17.211  -3.120   5.002  0.00  0.00     0.085 H 
ATOM     14  H4  WW8 d   1      13.568  -6.404   2.903  0.00  0.00     0.166 HD
ENDROOT
BRANCH   9  15
ATOM     15  C10 WW8 d   1      13.214  -4.242   1.374  0.00  0.00     0.271 C 
ATOM     16  O11 WW8 d   1      12.904  -5.248   0.727  0.00  0.00    -0.266 OA
ATOM     17  N12 WW8 d   1      12.671  -3.085   1.060  0.00  0.00    -0.345 N 
ATOM     18  C13 WW8 d   1      12.839  -1.829   1.812  0.00  0.00     0.025 C 
ATOM     19  C24 WW8 d   1      11.716  -2.939  -0.066  0.00  0.00    -0.000 C 
ATOM     20  C14 WW8 d   1      11.569  -1.095   1.422  0.00  0.00     0.120 C 
ATOM     21  H5  WW8 d   1      13.738  -1.282   1.492  0.00  0.00     0.067 H 
ATOM     22  H6  WW8 d   1      12.886  -2.009   2.896  0.00  0.00     0.067 H 
ATOM     23  C23 WW8 d   1      11.352  -1.446  -0.060  0.00  0.00    -0.022 C 
ATOM     24  H7  WW8 d   1      10.727  -1.504   1.999  0.00  0.00     0.087 H 
ATOM     25  H25 WW8 d   1      12.019  -0.865  -0.714  0.00  0.00     0.038 H 
ATOM     26  H26 WW8 d   1      10.307  -1.284  -0.364  0.00  0.00     0.038 H 
ATOM     27  H27 WW8 d   1      10.822  -3.559   0.098  0.00  0.00     0.064 H 
ATOM     28  H28 WW8 d   1      12.189  -3.221  -1.018  0.00  0.00     0.064 H 
BRANCH  20  29
ATOM     29  N15 WW8 d   1      11.645   0.328   1.734  0.00  0.00    -0.069 N 
ATOM     30  H8  WW8 d   1      12.515   0.519   1.263  0.00  0.00     0.280 HD
BRANCH  29  31
ATOM     31  C16 WW8 d   1      12.073   0.738   3.062  0.00  0.00     0.085 C 
ATOM     32  H9  WW8 d   1      12.809   0.004   3.423  0.00  0.00     0.076 H 
ATOM     33  H10 WW8 d   1      11.192   0.729   3.721  0.00  0.00     0.076 H 
BRANCH  31  34
ATOM     34  C17 WW8 d   1      12.707   2.119   3.144  0.00  0.00    -0.020 C 
ATOM     35  H11 WW8 d   1      11.996   2.899   2.834  0.00  0.00     0.037 H 
ATOM     36  H12 WW8 d   1      13.611   2.177   2.519  0.00  0.00     0.037 H 
BRANCH  34  37
ATOM     37  C18 WW8 d   1      13.053   2.250   4.617  0.00  0.00     0.084 C 
ATOM     38  H13 WW8 d   1      13.998   1.717   4.798  0.00  0.00     0.076 H 
ATOM     39  H14 WW8 d   1      12.249   1.782   5.204  0.00  0.00     0.076 H 
BRANCH  37  40
ATOM     40  N19 WW8 d   1      13.208   3.612   5.068  0.00  0.00    -0.079 N 
ATOM     41  H15 WW8 d   1      12.438   4.146   4.695  0.00  0.00     0.278 HD
BRANCH  40  42
ATOM     42  C20 WW8 d   1      13.413   4.004   6.433  0.00  0.00     0.066 C 
ATOM     43  H16 WW8 d   1      13.498   5.099   6.491  0.00  0.00     0.068 H 
ATOM     44  H17 WW8 d   1      14.338   3.544   6.812  0.00  0.00     0.068 H 
ATOM     45  H18 WW8 d   1      12.561   3.670   7.043  0.00  0.00     0.068 H 
ENDBRANCH  40  42
BRANCH  40  46
ATOM     46  C21 WW8 d   1      14.503   4.016   4.518  0.00  0.00     0.066 C 
ATOM     47  H19 WW8 d   1      14.533   3.785   3.443  0.00  0.00     0.068 H 
ATOM     48  H20 WW8 d   1      15.307   3.469   5.033  0.00  0.00     0.068 H 
ATOM     49  H21 WW8 d   1      14.643   5.097   4.665  0.00  0.00     0.068 H 
ENDBRANCH  40  46
ENDBRANCH  37  40
ENDBRANCH  34  37
ENDBRANCH  31  34
ENDBRANCH  29  31
BRANCH  29  50
ATOM     50  C22 WW8 d   1      10.807   1.215   0.942  0.00  0.00     0.067 C 
ATOM     51  H22 WW8 d   1      10.585   0.742  -0.026  0.00  0.00     0.068 H 
ATOM     52  H23 WW8 d   1      11.335   2.165   0.773  0.00  0.00     0.068 H 
ATOM     53  H24 WW8 d   1       9.867   1.409   1.480  0.00  0.00     0.068 H 
ENDBRANCH  29  50
ENDBRANCH  20  29
ENDBRANCH   9  15
BRANCH  10  54
ATOM     54  C26 WW8 d   1      15.583  -2.326   2.704  0.00  0.00     0.079 A 
ATOM     55  C27 WW8 d   1      15.776  -1.158   3.441  0.00  0.00     0.096 A 
ATOM     56  N34 WW8 d   1      16.359  -0.248   2.645  0.00  0.00    -0.241 NA
ATOM     57  C35 WW8 d   1      16.604  -0.821   1.476  0.00  0.00     0.067 A 
ATOM     58  N36 WW8 d   1      16.162  -2.059   1.520  0.00  0.00    -0.334 N 
ATOM     59  H34 WW8 d   1      17.089  -0.347   0.624  0.00  0.00     0.143 H 
BRANCH  55  60
ATOM     60  C28 WW8 d   1      15.350  -0.822   4.721  0.00  0.00    -0.005 A 
ATOM     61  C29 WW8 d   1      16.034   0.195   5.376  0.00  0.00    -0.071 A 
ATOM     62  C30 WW8 d   1      15.621   0.621   6.640  0.00  0.00    -0.082 A 
ATOM     63  H29 WW8 d   1      16.892   0.660   4.904  0.00  0.00     0.084 H 
ATOM     64  C31 WW8 d   1      14.521   0.006   7.257  0.00  0.00    -0.083 A 
ATOM     65  H30 WW8 d   1      16.148   1.424   7.143  0.00  0.00     0.083 H 
ATOM     66  C32 WW8 d   1      13.858  -1.016   6.580  0.00  0.00    -0.082 A 
ATOM     67  H31 WW8 d   1      14.193   0.320   8.241  0.00  0.00     0.083 H 
ATOM     68  C33 WW8 d   1      14.274  -1.448   5.327  0.00  0.00    -0.071 A 
ATOM     69  H32 WW8 d   1      12.997  -1.485   7.042  0.00  0.00     0.083 H 
ATOM     70  H33 WW8 d   1      13.763  -2.265   4.830  0.00  0.00     0.084 H 
ENDBRANCH  55  60
BRANCH  58  71
ATOM     71  C37 WW8 d   1      16.295  -2.970   0.386  0.00  0.00     0.025 C 
ATOM     72  H35 WW8 d   1      16.651  -2.413  -0.493  0.00  0.00     0.072 H 
ATOM     73  H36 WW8 d   1      15.318  -3.423   0.162  0.00  0.00     0.072 H 
BRANCH  71  74
ATOM     74  C38 WW8 d   1      17.310  -4.081   0.739  0.00  0.00    -0.040 A 
ATOM     75  C39 WW8 d   1      16.941  -5.409   0.607  0.00  0.00    -0.074 A 
ATOM     76  C40 WW8 d   1      17.831  -6.433   0.918  0.00  0.00    -0.061 A 
ATOM     77  H37 WW8 d   1      15.945  -5.655   0.257  0.00  0.00     0.084 H 
ATOM     78  C41 WW8 d   1      19.103  -6.149   1.393  0.00  0.00     0.034 A 
ATOM     79  H38 WW8 d   1      17.526  -7.465   0.787  0.00  0.00     0.086 H 
ATOM     80 CL42 WW8 d   1      20.225  -7.408   1.794  0.00  0.00    -0.084 Cl
ATOM     81  C43 WW8 d   1      19.472  -4.830   1.546  0.00  0.00    -0.061 A 
ATOM     82  C44 WW8 d   1      18.575  -3.792   1.236  0.00  0.00    -0.074 A 
ATOM     83  H39 WW8 d   1      20.465  -4.590   1.909  0.00  0.00     0.086 H 
ATOM     84  H40 WW8 d   1      18.872  -2.760   1.386  0.00  0.00     0.084 H 
ENDBRANCH  71  74
ENDBRANCH  58  71
ENDBRANCH  10  54
TORSDOF 13
