REMARK  5 active torsions:
REMARK  status: ('A' for Active; 'I' for Inactive)
REMARK    1  A    between atoms: C9_9  and  C10_10 
REMARK    2  A    between atoms: C13_13  and  C14_14 
REMARK    3  A    between atoms: C15_15  and  C16_16 
REMARK    4  A    between atoms: N24_24  and  C25_25 
REMARK    5  A    between atoms: C25_25  and  C26_26 
ROOT
ATOM      1  C14 K23 d   1      18.161  19.526   0.910  0.00  0.00     0.079 A 
ATOM      2  C15 K23 d   1      17.511  20.448   1.751  0.00  0.00     0.096 A 
ATOM      3  N22 K23 d   1      17.972  21.675   1.475  0.00  0.00    -0.241 NA
ATOM      4  C23 K23 d   1      18.884  21.563   0.510  0.00  0.00     0.067 A 
ATOM      5  N24 K23 d   1      19.005  20.267   0.191  0.00  0.00    -0.334 N 
ATOM      6  H   K23 d   1      19.438  22.386   0.057  0.00  0.00     0.143 H 
ENDROOT
BRANCH   1   7
ATOM      7  C13 K23 d   1      18.053  18.134   0.861  0.00  0.00     0.039 A 
ATOM      8  C5  K23 d   1      18.604  17.292   1.815  0.00  0.00     0.006 A 
ATOM      9  C4  K23 d   1      19.280  17.487   3.014  0.00  0.00    -0.068 A 
ATOM     10  C6  K23 d   1      18.343  15.998   1.401  0.00  0.00     0.045 A 
ATOM     11  C3  K23 d   1      19.663  16.395   3.778  0.00  0.00    -0.061 A 
ATOM     12  H   K23 d   1      19.509  18.497   3.353  0.00  0.00     0.085 H 
ATOM     13  C1  K23 d   1      19.389  15.124   3.363  0.00  0.00     0.036 A 
ATOM     14  H   K23 d   1      20.188  16.553   4.720  0.00  0.00     0.086 H 
ATOM     15 CL2  K23 d   1      19.838  13.723   4.262  0.00  0.00    -0.084 Cl
ATOM     16  C7  K23 d   1      18.735  14.918   2.164  0.00  0.00    -0.035 A 
ATOM     17  H   K23 d   1      18.529  13.904   1.821  0.00  0.00     0.089 H 
ATOM     18  N8  K23 d   1      17.703  16.030   0.264  0.00  0.00    -0.349 N 
ATOM     19  C9  K23 d   1      17.548  17.296  -0.113  0.00  0.00     0.123 A 
ATOM     20  H   K23 d   1      17.374  15.214  -0.253  0.00  0.00     0.166 HD
BRANCH  19  21
ATOM     21  C10 K23 d   1      16.808  17.596  -1.436  0.00  0.00     0.227 C 
ATOM     22  O11 K23 d   1      16.134  16.659  -1.901  0.00  0.00    -0.643 OA
ATOM     23  O12 K23 d   1      16.859  18.705  -1.968  0.00  0.00    -0.643 OA
ENDBRANCH  19  21
ENDBRANCH   1   7
BRANCH   2  24
ATOM     24  C16 K23 d   1      16.529  20.219   2.706  0.00  0.00    -0.005 A 
ATOM     25  C17 K23 d   1      16.575  20.918   3.899  0.00  0.00    -0.071 A 
ATOM     26  C18 K23 d   1      15.607  20.762   4.874  0.00  0.00    -0.082 A 
ATOM     27  H   K23 d   1      17.398  21.611   4.075  0.00  0.00     0.084 H 
ATOM     28  C19 K23 d   1      14.539  19.915   4.642  0.00  0.00    -0.083 A 
ATOM     29  H   K23 d   1      15.685  21.302   5.817  0.00  0.00     0.083 H 
ATOM     30  C20 K23 d   1      14.472  19.234   3.434  0.00  0.00    -0.082 A 
ATOM     31  H   K23 d   1      13.762  19.784   5.395  0.00  0.00     0.083 H 
ATOM     32  C21 K23 d   1      15.461  19.391   2.473  0.00  0.00    -0.071 A 
ATOM     33  H   K23 d   1      13.632  18.568   3.238  0.00  0.00     0.083 H 
ATOM     34  H   K23 d   1      15.388  18.853   1.528  0.00  0.00     0.084 H 
ENDBRANCH   2  24
BRANCH   5  35
ATOM     35  C25 K23 d   1      19.881  19.741  -0.846  0.00  0.00     0.025 C 
ATOM     36  H   K23 d   1      20.284  20.587  -1.402  0.00  0.00     0.072 H 
ATOM     37  H   K23 d   1      19.293  19.066  -1.468  0.00  0.00     0.072 H 
BRANCH  35  38
ATOM     38  C26 K23 d   1      21.033  18.967  -0.296  0.00  0.00    -0.040 A 
ATOM     39  C27 K23 d   1      21.404  17.807  -0.941  0.00  0.00    -0.074 A 
ATOM     40  C28 K23 d   1      22.466  17.081  -0.443  0.00  0.00    -0.061 A 
ATOM     41  H   K23 d   1      20.868  17.469  -1.828  0.00  0.00     0.084 H 
ATOM     42  C29 K23 d   1      23.134  17.512   0.668  0.00  0.00     0.034 A 
ATOM     43  H   K23 d   1      22.773  16.160  -0.938  0.00  0.00     0.086 H 
ATOM     44 CL30 K23 d   1      24.473  16.601   1.207  0.00  0.00    -0.084 Cl
ATOM     45  C31 K23 d   1      22.774  18.682   1.327  0.00  0.00    -0.061 A 
ATOM     46  C32 K23 d   1      21.700  19.405   0.833  0.00  0.00    -0.074 A 
ATOM     47  H   K23 d   1      23.321  19.021   2.207  0.00  0.00     0.086 H 
ATOM     48  H   K23 d   1      21.381  20.319   1.334  0.00  0.00     0.084 H 
ENDBRANCH  35  38
ENDBRANCH   5  35
TORSDOF 5
