REMARK  7 active torsions:
REMARK  status: ('A' for Active; 'I' for Inactive)
REMARK    1  A    between atoms: C12_12  and  C13_13 
REMARK    2  A    between atoms: C13_13  and  C14_14 
REMARK    3  A    between atoms: C14_14  and  C15_15 
REMARK    4  A    between atoms: C14_14  and  C16_16 
REMARK    5  A    between atoms: C14_14  and  C17_17 
REMARK    6  A    between atoms: C19_19  and  C20_20 
REMARK       I    between atoms: C20_20  and  N22_22 
REMARK    7  A    between atoms: C31_23  and  C32_24 
ROOT
ATOM      1  C1  MI6 d   1     -13.604   3.660 -18.550  0.00  0.00     0.044 A 
ATOM      2  C2  MI6 d   1     -12.840   4.796 -18.789  0.00  0.00    -0.036 A 
ATOM      3  C3  MI6 d   1     -11.793   5.140 -17.950  0.00  0.00     0.036 A 
ATOM      4 CL4  MI6 d   1     -10.882   6.569 -18.307  0.00  0.00    -0.084 Cl
ATOM      5  C5  MI6 d   1     -11.515   4.330 -16.851  0.00  0.00    -0.061 A 
ATOM      6  C6  MI6 d   1     -12.272   3.177 -16.599  0.00  0.00    -0.072 A 
ATOM      7  C7  MI6 d   1     -13.336   2.834 -17.439  0.00  0.00    -0.011 A 
ATOM      8  C8  MI6 d   1     -14.384   1.707 -17.550  0.00  0.00     0.109 A 
ATOM      9  C9  MI6 d   1     -15.148   2.116 -18.751  0.00  0.00     0.238 A 
ATOM     10  O10 MI6 d   1     -16.107   1.480 -19.178  0.00  0.00    -0.272 OA
ATOM     11  N11 MI6 d   1     -14.636   3.217 -19.273  0.00  0.00    -0.326 N 
ATOM     12  C12 MI6 d   1     -13.827   0.296 -17.878  0.00  0.00     0.124 C 
ATOM     13  N18 MI6 d   1     -13.652  -0.358 -16.562  0.00  0.00    -0.056 N 
ATOM     14  C19 MI6 d   1     -14.940  -0.054 -15.889  0.00  0.00     0.187 C 
ATOM     15  C31 MI6 d   1     -15.410   1.342 -16.437  0.00  0.00     0.033 C 
ATOM     16  H   MI6 d   1     -13.068   5.425 -19.649  0.00  0.00     0.089 H 
ATOM     17  H   MI6 d   1     -10.699   4.596 -16.179  0.00  0.00     0.086 H 
ATOM     18  H   MI6 d   1     -12.030   2.545 -15.744  0.00  0.00     0.084 H 
ATOM     19  H   MI6 d   1     -14.984   3.670 -20.118  0.00  0.00     0.169 HD
ATOM     20  H   MI6 d   1     -14.498  -0.333 -18.462  0.00  0.00     0.086 H 
ATOM     21  H   MI6 d   1     -12.839  -0.018 -16.048  0.00  0.00     0.278 HD
ATOM     22  H   MI6 d   1     -13.460  -1.357 -16.631  0.00  0.00     0.278 HD
ATOM     23  H   MI6 d   1     -15.790  -0.694 -16.125  0.00  0.00     0.100 H 
ATOM     24  H   MI6 d   1     -16.454   1.110 -16.645  0.00  0.00     0.054 H 
ENDROOT
BRANCH  12  25
ATOM     25  C13 MI6 d   1     -12.635   0.332 -18.885  0.00  0.00    -0.031 C 
ATOM     26  H   MI6 d   1     -12.195   1.319 -18.739  0.00  0.00     0.037 H 
ATOM     27  H   MI6 d   1     -13.085   0.053 -19.838  0.00  0.00     0.037 H 
BRANCH  25  28
ATOM     28  C14 MI6 d   1     -11.451  -0.627 -18.740  0.00  0.00    -0.049 C 
BRANCH  28  29
ATOM     29  C15 MI6 d   1     -10.850  -0.777 -20.134  0.00  0.00    -0.070 C 
ATOM     30  H   MI6 d   1     -11.602  -1.182 -20.811  0.00  0.00     0.028 H 
ATOM     31  H   MI6 d   1     -10.523   0.198 -20.494  0.00  0.00     0.028 H 
ATOM     32  H   MI6 d   1      -9.997  -1.454 -20.090  0.00  0.00     0.028 H 
ENDBRANCH  28  29
BRANCH  28  33
ATOM     33  C16 MI6 d   1     -10.410   0.006 -17.827  0.00  0.00    -0.070 C 
ATOM     34  H   MI6 d   1     -10.071   0.947 -18.262  0.00  0.00     0.028 H 
ATOM     35  H   MI6 d   1     -10.853   0.195 -16.849  0.00  0.00     0.028 H 
ATOM     36  H   MI6 d   1      -9.563  -0.672 -17.719  0.00  0.00     0.028 H 
ENDBRANCH  28  33
BRANCH  28  37
ATOM     37  C17 MI6 d   1     -11.842  -2.014 -18.217  0.00  0.00    -0.070 C 
ATOM     38  H   MI6 d   1     -12.302  -1.914 -17.234  0.00  0.00     0.028 H 
ATOM     39  H   MI6 d   1     -12.551  -2.474 -18.906  0.00  0.00     0.028 H 
ATOM     40  H   MI6 d   1     -10.951  -2.637 -18.141  0.00  0.00     0.028 H 
ENDBRANCH  28  37
ENDBRANCH  25  28
ENDBRANCH  12  25
BRANCH  15  41
ATOM     41  C32 MI6 d   1     -16.080   2.563 -15.690  0.00  0.00    -0.009 A 
ATOM     42  C33 MI6 d   1     -15.588   3.578 -14.832  0.00  0.00     0.144 A 
ATOM     43  F34 MI6 d   1     -14.326   3.640 -14.365  0.00  0.00    -0.204 F 
ATOM     44  C35 MI6 d   1     -16.473   4.577 -14.387  0.00  0.00     0.073 A 
ATOM     45 CL36 MI6 d   1     -15.974   5.831 -13.314  0.00  0.00    -0.081 Cl
ATOM     46  C37 MI6 d   1     -17.799   4.620 -14.790  0.00  0.00    -0.059 A 
ATOM     47  C38 MI6 d   1     -18.282   3.655 -15.651  0.00  0.00    -0.081 A 
ATOM     48  H   MI6 d   1     -18.456   5.411 -14.429  0.00  0.00     0.086 H 
ATOM     49  C39 MI6 d   1     -17.416   2.671 -16.092  0.00  0.00    -0.073 A 
ATOM     50  H   MI6 d   1     -19.322   3.668 -15.976  0.00  0.00     0.083 H 
ATOM     51  H   MI6 d   1     -17.798   1.933 -16.797  0.00  0.00     0.084 H 
ENDBRANCH  15  41
BRANCH  14  52
ATOM     52  C20 MI6 d   1     -14.850  -0.378 -14.392  0.00  0.00     0.247 C 
ATOM     53  O21 MI6 d   1     -15.327   0.340 -13.526  0.00  0.00    -0.271 OA
ATOM     54  N22 MI6 d   1     -14.302  -1.566 -14.146  0.00  0.00    -0.368 N 
ATOM     55  H   MI6 d   1     -14.264  -1.922 -13.191  0.00  0.00     0.159 HD
ATOM     56  H   MI6 d   1     -13.920  -2.120 -14.912  0.00  0.00     0.159 HD
ENDBRANCH  14  52
TORSDOF 7
