REMARK  5 active torsions:
REMARK  status: ('A' for Active; 'I' for Inactive)
REMARK    1  A    between atoms: CA_4  and  C_1 
REMARK    2  A    between atoms: N_2  and  CA_4 
REMARK    3  A    between atoms: CA_4  and  CB_5 
REMARK    4  A    between atoms: CB_5  and  CG_6 
REMARK    5  A    between atoms: CAL_18  and  CAH_14 
ROOT
ATOM      1  N   Z89 d   1      -5.456   5.267  18.824  0.00  0.00    -0.296 N 
ATOM      2  CAL Z89 d   1      -5.746   2.944  18.511  0.00  0.00     0.078 A 
ATOM      3  CAM Z89 d   1      -4.935   4.028  18.971  0.00  0.00     0.201 A 
ATOM      4  CAW Z89 d   1      -6.700   5.092  18.273  0.00  0.00     0.129 A 
ATOM      5  SAX Z89 d   1      -7.656   6.566  17.967  0.00  0.00    -0.025 SA
ATOM      6  SAY Z89 d   1      -7.299   3.472  17.852  0.00  0.00    -0.059 SA
ATOM      7  OAZ Z89 d   1      -3.736   3.904  19.476  0.00  0.00    -0.170 OA
ENDROOT
BRANCH   2   8
ATOM      8  CAH Z89 d   1      -5.324   1.595  18.578  0.00  0.00     0.066 A 
ATOM      9  CAB Z89 d   1      -4.109   1.154  19.087  0.00  0.00     0.009 A 
ATOM     10  CAA Z89 d   1      -4.138  -0.232  18.950  0.00  0.00     0.046 A 
ATOM     11  CAC Z89 d   1      -2.992   1.817  19.622  0.00  0.00    -0.053 A 
ATOM     12  CAG Z89 d   1      -3.025  -0.921  19.376  0.00  0.00    -0.055 A 
ATOM     13  NAJ Z89 d   1      -5.312  -0.646  18.394  0.00  0.00    -0.322 N 
ATOM     14  CAF Z89 d   1      -1.914  -0.278  19.904  0.00  0.00    -0.064 A 
ATOM     15  H6  Z89 d   1      -3.016  -2.002  19.296  0.00  0.00     0.087 H 
ATOM     16  CAD Z89 d   1      -1.871   1.099  20.047  0.00  0.00     0.011 A 
ATOM     17  H5  Z89 d   1      -1.059  -0.868  20.212  0.00  0.00     0.085 H 
ATOM     18 BRAE Z89 d   1      -0.314   1.925  20.802  0.00  0.00    -0.051 Br
ATOM     19  CAI Z89 d   1      -6.016   0.474  18.164  0.00  0.00     0.258 A 
ATOM     20  H7  Z89 d   1      -5.590  -1.586  18.198  0.00  0.00     0.169 HD
ATOM     21  OAK Z89 d   1      -7.182   0.455  17.635  0.00  0.00    -0.267 OA
ATOM     22  H4  Z89 d   1      -3.000   2.898  19.706  0.00  0.00     0.087 H 
ENDBRANCH   2   8
BRANCH   1  23
ATOM     23  CA  Z89 d   1      -4.874   6.584  19.270  0.00  0.00     0.113 C 
ATOM     24  H1  Z89 d   1      -4.864   7.297  18.433  0.00  0.00     0.091 H 
BRANCH  23  25
ATOM     25  C   Z89 d   1      -5.864   6.985  20.367  0.00  0.00     0.197 C 
ATOM     26  O   Z89 d   1      -6.492   6.060  20.968  0.00  0.00    -0.646 OA
ATOM     27  OXT Z89 d   1      -6.080   8.202  20.658  0.00  0.00    -0.646 OA
ENDBRANCH  23  25
BRANCH  23  28
ATOM     28  CB  Z89 d   1      -3.477   6.554  19.925  0.00  0.00     0.044 C 
ATOM     29  H2  Z89 d   1      -2.778   6.027  19.259  0.00  0.00     0.053 H 
ATOM     30  H3  Z89 d   1      -3.541   6.021  20.885  0.00  0.00     0.053 H 
BRANCH  28  31
ATOM     31  CG  Z89 d   1      -2.958   7.974  20.174  0.00  0.00     0.175 C 
ATOM     32  OD1 Z89 d   1      -2.797   8.408  21.347  0.00  0.00    -0.648 OA
ATOM     33  OD2 Z89 d   1      -2.719   8.703  19.183  0.00  0.00    -0.648 OA
ENDBRANCH  28  31
ENDBRANCH  23  28
ENDBRANCH   1  23
TORSDOF 5
