REMARK  7 active torsions:
REMARK  status: ('A' for Active; 'I' for Inactive)
REMARK    1  A    between atoms: C5_5  and  C10_10 
REMARK    2  A    between atoms: C8_8  and  C20_20 
REMARK    3  A    between atoms: C14_14  and  O16_16 
REMARK    4  A    between atoms: C15_15  and  O18_18 
REMARK    5  A    between atoms: O16_16  and  C17_17 
REMARK    6  A    between atoms: O18_18  and  C19_19 
REMARK    7  A    between atoms: C20_20  and  N22_22 
ROOT
ATOM      1  C1  IYX d   1      24.226 -14.821  18.572  0.00  0.00    -0.017 A 
ATOM      2  C2  IYX d   1      23.569 -13.630  18.790  0.00  0.00     0.016 A 
ATOM      3  C3  IYX d   1      23.532 -16.004  18.350  0.00  0.00    -0.061 A 
ATOM      4  C4  IYX d   1      22.176 -13.609  18.806  0.00  0.00    -0.065 A 
ATOM      5  C5  IYX d   1      22.142 -16.009  18.342  0.00  0.00    -0.025 A 
ATOM      6  C6  IYX d   1      21.459 -14.800  18.579  0.00  0.00    -0.071 A 
ATOM      7  C7  IYX d   1      25.601 -14.682  18.594  0.00  0.00    -0.051 A 
ATOM      8  C8  IYX d   1      25.991 -13.370  18.836  0.00  0.00     0.049 A 
ATOM      9  S9  IYX d   1      24.658 -12.443  18.997  0.00  0.00    -0.086 SA
ATOM     10  H1  IYX d   1      24.076 -16.926  18.183  0.00  0.00     0.086 H 
ATOM     11  H2  IYX d   1      21.647 -12.681  18.992  0.00  0.00     0.085 H 
ATOM     12  H3  IYX d   1      20.375 -14.786  18.587  0.00  0.00     0.084 H 
ATOM     13  H4  IYX d   1      26.298 -15.505  18.440  0.00  0.00     0.087 H 
ENDROOT
BRANCH   5  14
ATOM     14  C10 IYX d   1      21.432 -17.299  18.118  0.00  0.00    -0.023 A 
ATOM     15  C11 IYX d   1      21.912 -18.407  18.808  0.00  0.00    -0.069 A 
ATOM     16  C13 IYX d   1      21.322 -19.656  18.659  0.00  0.00    -0.047 A 
ATOM     17  H5  IYX d   1      22.761 -18.294  19.473  0.00  0.00     0.085 H 
ATOM     18  C15 IYX d   1      20.245 -19.807  17.815  0.00  0.00     0.101 A 
ATOM     19  H7  IYX d   1      21.708 -20.509  19.206  0.00  0.00     0.087 H 
ATOM     20  C14 IYX d   1      19.733 -18.714  17.115  0.00  0.00     0.102 A 
ATOM     21  C12 IYX d   1      20.346 -17.453  17.258  0.00  0.00    -0.037 A 
ATOM     22  H6  IYX d   1      19.973 -16.603  16.699  0.00  0.00     0.089 H 
BRANCH  18  23
ATOM     23  O18 IYX d   1      19.720 -21.065  17.739  0.00  0.00    -0.353 OA
BRANCH  23  24
ATOM     24  C19 IYX d   1      18.885 -21.565  16.690  0.00  0.00     0.010 C 
ATOM     25  H11 IYX d   1      18.617 -22.611  16.901  0.00  0.00     0.066 H 
ATOM     26  H12 IYX d   1      19.426 -21.511  15.734  0.00  0.00     0.066 H 
ATOM     27  H13 IYX d   1      17.970 -20.958  16.629  0.00  0.00     0.066 H 
ENDBRANCH  23  24
ENDBRANCH  18  23
BRANCH  20  28
ATOM     28  O16 IYX d   1      18.667 -18.901  16.267  0.00  0.00    -0.353 OA
BRANCH  28  29
ATOM     29  C17 IYX d   1      17.687 -17.898  15.960  0.00  0.00     0.010 C 
ATOM     30  H8  IYX d   1      16.948 -18.311  15.258  0.00  0.00     0.066 H 
ATOM     31  H9  IYX d   1      18.183 -17.029  15.502  0.00  0.00     0.066 H 
ATOM     32  H10 IYX d   1      17.180 -17.585  16.885  0.00  0.00     0.066 H 
ENDBRANCH  28  29
ENDBRANCH  20  28
ENDBRANCH   5  14
BRANCH   8  33
ATOM     33  C20 IYX d   1      27.394 -12.894  18.889  0.00  0.00     0.109 C 
ATOM     34  N21 IYX d   1      27.657 -11.645  19.061  0.00  0.00    -0.385 N 
ATOM     35  H14 IYX d   1      28.635 -11.325  19.096  0.00  0.00     0.157 HD
ATOM     36  H15 IYX d   1      26.889 -10.966  19.163  0.00  0.00     0.157 HD
BRANCH  33  37
ATOM     37  N22 IYX d   1      28.472 -13.738  18.704  0.00  0.00    -0.385 N 
ATOM     38  H16 IYX d   1      28.318 -14.746  18.562  0.00  0.00     0.157 HD
ATOM     39  H17 IYX d   1      29.430 -13.359  18.708  0.00  0.00     0.157 HD
ENDBRANCH  33  37
ENDBRANCH   8  33
TORSDOF 7
