REMARK  7 active torsions:
REMARK  status: ('A' for Active; 'I' for Inactive)
REMARK    1  A    between atoms: C3_3  and  O13_13 
REMARK    2  A    between atoms: C8_8  and  C10_10 
REMARK    3  A    between atoms: C10_10  and  N12_12 
REMARK    4  A    between atoms: O13_13  and  C14_14 
REMARK    5  A    between atoms: C14_14  and  C15_15 
REMARK    6  A    between atoms: C14_14  and  C21_21 
REMARK    7  A    between atoms: C25_25  and  C26_26 
ROOT
ATOM      1  C14 IZX d   1     -14.262  -6.451   3.212  0.00  0.00     0.136 C 
ATOM      2  H   IZX d   1     -14.020  -5.433   2.906  0.00  0.00     0.105 H 
ENDROOT
BRANCH   1   3
ATOM      3  O13 IZX d   1     -14.032  -6.714   4.596  0.00  0.00    -0.332 OA
BRANCH   3   4
ATOM      4  C3  IZX d   1     -13.707  -5.864   5.619  0.00  0.00     0.082 A 
ATOM      5  C1  IZX d   1     -13.408  -6.431   6.851  0.00  0.00     0.016 A 
ATOM      6  C2  IZX d   1     -13.067  -5.632   7.928  0.00  0.00     0.018 A 
ATOM      7  C7  IZX d   1     -13.399  -7.784   7.174  0.00  0.00    -0.049 A 
ATOM      8  C4  IZX d   1     -13.013  -4.258   7.826  0.00  0.00    -0.065 A 
ATOM      9  S9  IZX d   1     -12.781  -6.552   9.200  0.00  0.00    -0.086 SA
ATOM     10  C6  IZX d   1     -13.311  -3.669   6.595  0.00  0.00    -0.079 A 
ATOM     11  H   IZX d   1     -12.744  -3.645   8.686  0.00  0.00     0.085 H 
ATOM     12  C5  IZX d   1     -13.657  -4.466   5.505  0.00  0.00    -0.050 A 
ATOM     13  H   IZX d   1     -13.273  -2.585   6.487  0.00  0.00     0.083 H 
ATOM     14  H   IZX d   1     -13.892  -3.997   4.550  0.00  0.00     0.087 H 
ATOM     15  C8  IZX d   1     -13.049  -7.979   8.502  0.00  0.00     0.049 A 
ATOM     16  H   IZX d   1     -13.636  -8.586   6.475  0.00  0.00     0.087 H 
BRANCH  15  17
ATOM     17  C10 IZX d   1     -12.941  -9.269   9.194  0.00  0.00     0.109 C 
ATOM     18  N11 IZX d   1     -13.305 -10.386   8.630  0.00  0.00    -0.385 N 
ATOM     19  H   IZX d   1     -13.678 -10.380   7.681  0.00  0.00     0.157 HD
ATOM     20  H   IZX d   1     -13.217 -11.266   9.138  0.00  0.00     0.157 HD
BRANCH  17  21
ATOM     21  N12 IZX d   1     -12.441  -9.284  10.477  0.00  0.00    -0.385 N 
ATOM     22  H   IZX d   1     -12.156  -8.412  10.924  0.00  0.00     0.157 HD
ATOM     23  H   IZX d   1     -12.355 -10.167  10.981  0.00  0.00     0.157 HD
ENDBRANCH  17  21
ENDBRANCH  15  17
ENDBRANCH   3   4
ENDBRANCH   1   3
BRANCH   1  24
ATOM     24  C15 IZX d   1     -15.744  -6.589   2.915  0.00  0.00    -0.021 A 
ATOM     25  C16 IZX d   1     -16.419  -5.624   2.177  0.00  0.00    -0.074 A 
ATOM     26  C18 IZX d   1     -17.776  -5.759   1.946  0.00  0.00    -0.082 A 
ATOM     27  H   IZX d   1     -15.880  -4.763   1.781  0.00  0.00     0.084 H 
ATOM     28  C20 IZX d   1     -18.458  -6.852   2.468  0.00  0.00    -0.083 A 
ATOM     29  H   IZX d   1     -18.308  -5.012   1.357  0.00  0.00     0.083 H 
ATOM     30  C19 IZX d   1     -17.792  -7.807   3.212  0.00  0.00    -0.082 A 
ATOM     31  H   IZX d   1     -19.528  -6.957   2.289  0.00  0.00     0.083 H 
ATOM     32  C17 IZX d   1     -16.435  -7.669   3.444  0.00  0.00    -0.074 A 
ATOM     33  H   IZX d   1     -18.332  -8.664   3.614  0.00  0.00     0.083 H 
ATOM     34  H   IZX d   1     -15.908  -8.411   4.044  0.00  0.00     0.084 H 
ENDBRANCH   1  24
BRANCH   1  35
ATOM     35  C21 IZX d   1     -13.347  -7.386   2.445  0.00  0.00     0.207 A 
ATOM     36  O22 IZX d   1     -13.599  -8.461   1.912  0.00  0.00    -0.193 OA
ATOM     37  N23 IZX d   1     -12.571  -8.928   1.396  0.00  0.00    -0.105 NA
ATOM     38  C25 IZX d   1     -11.557  -8.077   1.634  0.00  0.00     0.189 A 
ATOM     39  N24 IZX d   1     -12.057  -7.070   2.324  0.00  0.00    -0.201 NA
BRANCH  38  40
ATOM     40  C26 IZX d   1     -10.135  -8.171   1.234  0.00  0.00     0.014 A 
ATOM     41  C27 IZX d   1      -9.182  -7.319   1.804  0.00  0.00    -0.069 A 
ATOM     42  C29 IZX d   1      -7.845  -7.395   1.425  0.00  0.00    -0.082 A 
ATOM     43  H   IZX d   1      -9.490  -6.589   2.552  0.00  0.00     0.085 H 
ATOM     44  C31 IZX d   1      -7.459  -8.325   0.472  0.00  0.00    -0.083 A 
ATOM     45  H   IZX d   1      -7.108  -6.729   1.873  0.00  0.00     0.083 H 
ATOM     46  C30 IZX d   1      -8.405  -9.172  -0.094  0.00  0.00    -0.082 A 
ATOM     47  H   IZX d   1      -6.415  -8.392   0.167  0.00  0.00     0.083 H 
ATOM     48  C28 IZX d   1      -9.742  -9.098   0.280  0.00  0.00    -0.069 A 
ATOM     49  H   IZX d   1      -8.095  -9.903  -0.840  0.00  0.00     0.083 H 
ATOM     50  H   IZX d   1     -10.476  -9.764  -0.173  0.00  0.00     0.085 H 
ENDBRANCH  38  40
ENDBRANCH   1  35
TORSDOF 7
