REMARK  8 active torsions:
REMARK  status: ('A' for Active; 'I' for Inactive)
REMARK    1  A    between atoms: C2_14  and  N1_1 
REMARK    2  A    between atoms: C18_23  and  C5_4 
REMARK    3  A    between atoms: C7_5  and  N8_16 
REMARK    4  A    between atoms: C9_17  and  C10_6 
REMARK    5  A    between atoms: C24_12  and  C21_10 
REMARK       I    between atoms: N26_27  and  C24_12 
REMARK    6  A    between atoms: N8_16  and  C9_17 
REMARK    7  A    between atoms: C30_30  and  C31_31 
REMARK    8  A    between atoms: C31_31  and  N32_32 
ROOT
ATOM      1  C20 BDY d   1     -25.186  -0.597 -18.717  0.00  0.00    -0.067 A 
ATOM      2  C21 BDY d   1     -24.841  -1.423 -19.763  0.00  0.00     0.032 A 
ATOM      3  C22 BDY d   1     -23.670  -1.199 -20.455  0.00  0.00    -0.067 A 
ATOM      4  C18 BDY d   1     -23.175   0.677 -19.042  0.00  0.00    -0.006 A 
ATOM      5  C19 BDY d   1     -24.356   0.445 -18.363  0.00  0.00    -0.070 A 
ATOM      6  C23 BDY d   1     -22.842  -0.157 -20.091  0.00  0.00    -0.070 A 
ATOM      7  H6  BDY d   1     -26.108  -0.766 -18.173  0.00  0.00     0.085 H 
ATOM      8  H7  BDY d   1     -23.400  -1.841 -21.285  0.00  0.00     0.085 H 
ATOM      9  H14 BDY d   1     -24.634   1.093 -17.539  0.00  0.00     0.084 H 
ATOM     10  H15 BDY d   1     -21.919   0.009 -20.635  0.00  0.00     0.084 H 
ENDROOT
BRANCH   2  11
ATOM     11  C24 BDY d   1     -25.773  -2.516 -20.108  0.00  0.00     0.254 C 
ATOM     12  O25 BDY d   1     -26.958  -2.271 -19.923  0.00  0.00    -0.267 OA
ATOM     13  N26 BDY d   1     -25.287  -3.730 -20.608  0.00  0.00    -0.342 N 
ATOM     14  C27 BDY d   1     -23.950  -4.204 -20.327  0.00  0.00    -0.002 C 
ATOM     15  C30 BDY d   1     -26.208  -4.849 -20.689  0.00  0.00     0.038 C 
ATOM     16  C28 BDY d   1     -24.024  -5.696 -20.083  0.00  0.00    -0.048 C 
ATOM     17  H16 BDY d   1     -23.293  -3.998 -21.185  0.00  0.00     0.064 H 
ATOM     18  H17 BDY d   1     -23.555  -3.699 -19.433  0.00  0.00     0.064 H 
ATOM     19  C29 BDY d   1     -25.469  -6.087 -20.230  0.00  0.00    -0.043 C 
ATOM     20  H8  BDY d   1     -23.669  -5.932 -19.069  0.00  0.00     0.035 H 
ATOM     21  H9  BDY d   1     -23.409  -6.232 -20.821  0.00  0.00     0.035 H 
ATOM     22  H18 BDY d   1     -25.869  -6.432 -19.265  0.00  0.00     0.036 H 
ATOM     23  H19 BDY d   1     -25.571  -6.888 -20.977  0.00  0.00     0.036 H 
ATOM     24  H20 BDY d   1     -27.050  -4.652 -20.009  0.00  0.00     0.075 H 
BRANCH  15  25
ATOM     25  C31 BDY d   1     -26.774  -5.104 -22.077  0.00  0.00     0.102 C 
ATOM     26  H21 BDY d   1     -27.596  -5.831 -21.994  0.00  0.00     0.079 H 
ATOM     27  H22 BDY d   1     -25.978  -5.521 -22.711  0.00  0.00     0.079 H 
BRANCH  25  28
ATOM     28  N32 BDY d   1     -27.285  -3.890 -22.706  0.00  0.00    -0.069 N 
ATOM     29  C33 BDY d   1     -27.239  -4.117 -24.151  0.00  0.00     0.084 C 
ATOM     30  C34 BDY d   1     -28.555  -3.660 -24.739  0.00  0.00    -0.041 C 
ATOM     31  H24 BDY d   1     -27.090  -5.188 -24.356  0.00  0.00     0.076 H 
ATOM     32  H25 BDY d   1     -26.413  -3.541 -24.593  0.00  0.00     0.076 H 
ATOM     33  C35 BDY d   1     -29.485  -3.422 -23.576  0.00  0.00    -0.041 C 
ATOM     34  H26 BDY d   1     -28.965  -4.437 -25.401  0.00  0.00     0.035 H 
ATOM     35  H27 BDY d   1     -28.414  -2.730 -25.309  0.00  0.00     0.035 H 
ATOM     36  C36 BDY d   1     -28.686  -3.704 -22.326  0.00  0.00     0.084 C 
ATOM     37  H28 BDY d   1     -30.350  -4.099 -23.636  0.00  0.00     0.035 H 
ATOM     38  H29 BDY d   1     -29.835  -2.379 -23.576  0.00  0.00     0.035 H 
ATOM     39  H30 BDY d   1     -28.773  -2.856 -21.630  0.00  0.00     0.076 H 
ATOM     40  H31 BDY d   1     -29.064  -4.616 -21.841  0.00  0.00     0.076 H 
ATOM     41  H23 BDY d   1     -26.734  -3.088 -22.444  0.00  0.00     0.280 HD
ENDBRANCH  25  28
ENDBRANCH  15  25
ENDBRANCH   2  11
BRANCH   4  42
ATOM     42  C5  BDY d   1     -22.316   1.773 -18.651  0.00  0.00     0.087 A 
ATOM     43  C4  BDY d   1     -20.956   1.720 -18.819  0.00  0.00     0.033 A 
ATOM     44  N3  BDY d   1     -20.139   2.706 -18.445  0.00  0.00    -0.238 NA
ATOM     45  H3  BDY d   1     -20.525   0.837 -19.276  0.00  0.00     0.118 H 
ATOM     46  C2  BDY d   1     -20.749   3.766 -17.893  0.00  0.00     0.167 A 
ATOM     47  C7  BDY d   1     -22.123   3.853 -17.724  0.00  0.00     0.170 A 
ATOM     48  N6  BDY d   1     -22.914   2.842 -18.108  0.00  0.00    -0.226 NA
BRANCH  46  49
ATOM     49  N1  BDY d   1     -19.948   4.831 -17.470  0.00  0.00    -0.381 N 
ATOM     50  H1  BDY d   1     -20.380   5.662 -17.041  0.00  0.00     0.157 HD
ATOM     51  H2  BDY d   1     -18.926   4.785 -17.587  0.00  0.00     0.157 HD
ENDBRANCH  46  49
BRANCH  47  52
ATOM     52  N8  BDY d   1     -22.648   5.026 -17.127  0.00  0.00    -0.367 N 
ATOM     53  H10 BDY d   1     -22.032   5.771 -16.773  0.00  0.00     0.161 HD
BRANCH  52  54
ATOM     54  C9  BDY d   1     -24.107   5.131 -17.036  0.00  0.00     0.021 C 
ATOM     55  H11 BDY d   1     -24.378   6.197 -17.009  0.00  0.00     0.071 H 
ATOM     56  H12 BDY d   1     -24.546   4.663 -17.930  0.00  0.00     0.071 H 
BRANCH  54  57
ATOM     57  C10 BDY d   1     -24.687   4.461 -15.814  0.00  0.00     0.003 A 
ATOM     58  C11 BDY d   1     -25.762   3.595 -15.940  0.00  0.00     0.043 A 
ATOM     59  C13 BDY d   1     -26.339   2.964 -14.859  0.00  0.00    -0.061 A 
ATOM     60 CL12 BDY d   1     -26.456   3.272 -17.478  0.00  0.00    -0.084 Cl
ATOM     61  C14 BDY d   1     -25.840   3.183 -13.597  0.00  0.00    -0.080 A 
ATOM     62  H4  BDY d   1     -27.182   2.298 -15.003  0.00  0.00     0.086 H 
ATOM     63  C15 BDY d   1     -24.776   4.042 -13.447  0.00  0.00    -0.061 A 
ATOM     64  H13 BDY d   1     -26.276   2.688 -12.737  0.00  0.00     0.083 H 
ATOM     65  C16 BDY d   1     -24.210   4.675 -14.533  0.00  0.00     0.043 A 
ATOM     66  H5  BDY d   1     -24.375   4.224 -12.457  0.00  0.00     0.086 H 
ATOM     67 CL17 BDY d   1     -22.893   5.739 -14.204  0.00  0.00    -0.084 Cl
ENDBRANCH  54  57
ENDBRANCH  52  54
ENDBRANCH  47  52
ENDBRANCH   4  42
TORSDOF 8
