REMARK  13 active torsions:
REMARK  status: ('A' for Active; 'I' for Inactive)
REMARK    1  A    between atoms: C13_7  and  C15_8 
REMARK    2  A    between atoms: O32_32  and  C13_7 
REMARK    3  A    between atoms: C14_19  and  C17_9 
REMARK    4  A    between atoms: C20_10  and  O32_32 
REMARK    5  A    between atoms: C21_11  and  C19_22 
REMARK    6  A    between atoms: C22_12  and  N24_24 
REMARK    7  A    between atoms: N29_29  and  C1_13 
REMARK    8  A    between atoms: O30_30  and  C2_14 
REMARK    9  A    between atoms: O31_31  and  C3_15 
REMARK   10  A    between atoms: O33_33  and  C14_19 
REMARK   11  A    between atoms: C16_20  and  O30_30 
REMARK   12  A    between atoms: C18_21  and  O31_31 
REMARK   13  A    between atoms: C23_23  and  O33_33 
ROOT
ATOM      1  C8  LC0 d   1      -4.934  17.836 -16.956  0.00  0.00    -0.022 A 
ATOM      2  C10 LC0 d   1      -7.120  18.023 -18.529  0.00  0.00     0.037 A 
ATOM      3  C17 LC0 d   1      -4.898  17.611 -18.314  0.00  0.00     0.061 A 
ATOM      4  C20 LC0 d   1      -7.254  18.273 -17.181  0.00  0.00     0.119 A 
ATOM      5  C18 LC0 d   1      -6.139  18.173 -16.379  0.00  0.00     0.104 A 
ATOM      6  N25 LC0 d   1      -5.965  17.694 -19.119  0.00  0.00    -0.260 NA
ATOM      7  H   LC0 d   1      -4.031  17.750 -16.352  0.00  0.00     0.091 H 
ATOM      8  H   LC0 d   1      -8.010  18.098 -19.154  0.00  0.00     0.119 H 
ENDROOT
BRANCH   3   9
ATOM      9  C14 LC0 d   1      -3.590  17.241 -18.922  0.00  0.00     0.067 C 
ATOM     10  H   LC0 d   1      -3.716  16.312 -19.479  0.00  0.00     0.085 H 
ATOM     11  H   LC0 d   1      -2.856  17.128 -18.124  0.00  0.00     0.085 H 
BRANCH   9  12
ATOM     12  O33 LC0 d   1      -3.135  18.246 -19.816  0.00  0.00    -0.325 OA
BRANCH  12  13
ATOM     13  C23 LC0 d   1      -1.845  18.541 -19.407  0.00  0.00     0.212 A 
ATOM     14  C22 LC0 d   1      -1.526  19.873 -19.266  0.00  0.00     0.174 A 
ATOM     15  N26 LC0 d   1      -0.310  20.266 -18.877  0.00  0.00    -0.237 NA
ATOM     16  C11 LC0 d   1       0.548  19.271 -18.643  0.00  0.00     0.033 A 
ATOM     17  C21 LC0 d   1       0.215  17.944 -18.784  0.00  0.00     0.090 A 
ATOM     18  H   LC0 d   1       1.560  19.522 -18.325  0.00  0.00     0.118 H 
ATOM     19  N28 LC0 d   1      -0.995  17.535 -19.173  0.00  0.00    -0.219 NA
BRANCH  14  20
ATOM     20  N24 LC0 d   1      -2.514  20.822 -19.541  0.00  0.00    -0.380 N 
ATOM     21  H   LC0 d   1      -3.442  20.521 -19.837  0.00  0.00     0.157 HD
ATOM     22  H   LC0 d   1      -2.307  21.816 -19.445  0.00  0.00     0.157 HD
ENDBRANCH  14  20
BRANCH  17  23
ATOM     23  C19 LC0 d   1       1.186  16.930 -18.487  0.00  0.00     0.030 A 
ATOM     24  C9  LC0 d   1       1.011  15.619 -17.983  0.00  0.00     0.035 A 
ATOM     25  N27 LC0 d   1       2.177  14.986 -17.824  0.00  0.00    -0.185 NA
ATOM     26  H   LC0 d   1       0.041  15.178 -17.752  0.00  0.00     0.118 H 
ATOM     27  N29 LC0 d   1       3.077  15.897 -18.230  0.00  0.00    -0.285 N 
ATOM     28  C12 LC0 d   1       2.543  17.086 -18.637  0.00  0.00     0.011 A 
ATOM     29  H   LC0 d   1       3.075  17.965 -19.001  0.00  0.00     0.115 H 
BRANCH  27  30
ATOM     30  C1  LC0 d   1       4.488  15.580 -18.203  0.00  0.00     0.002 C 
ATOM     31  H   LC0 d   1       4.896  15.660 -19.210  0.00  0.00     0.059 H 
ATOM     32  H   LC0 d   1       5.003  16.279 -17.544  0.00  0.00     0.059 H 
ATOM     33  H   LC0 d   1       4.624  14.563 -17.834  0.00  0.00     0.059 H 
ENDBRANCH  27  30
ENDBRANCH  17  23
ENDBRANCH  12  13
ENDBRANCH   9  12
ENDBRANCH   3   9
BRANCH   5  34
ATOM     34  O31 LC0 d   1      -6.250  18.412 -15.021  0.00  0.00    -0.353 OA
BRANCH  34  35
ATOM     35  C3  LC0 d   1      -4.930  18.608 -14.530  0.00  0.00     0.010 C 
ATOM     36  H   LC0 d   1      -4.337  17.713 -14.719  0.00  0.00     0.066 H 
ATOM     37  H   LC0 d   1      -4.478  19.460 -15.038  0.00  0.00     0.066 H 
ATOM     38  H   LC0 d   1      -4.967  18.801 -13.458  0.00  0.00     0.066 H 
ENDBRANCH  34  35
ENDBRANCH   5  34
BRANCH   4  39
ATOM     39  O32 LC0 d   1      -8.489  18.595 -16.648  0.00  0.00    -0.342 OA
BRANCH  39  40
ATOM     40  C13 LC0 d   1      -8.626  20.010 -16.618  0.00  0.00     0.050 C 
ATOM     41  H   LC0 d   1      -7.677  20.474 -16.349  0.00  0.00     0.082 H 
ATOM     42  H   LC0 d   1      -8.917  20.380 -17.601  0.00  0.00     0.082 H 
BRANCH  40  43
ATOM     43  C15 LC0 d   1      -9.671  20.353 -15.608  0.00  0.00    -0.034 A 
ATOM     44  C4  LC0 d   1      -9.700  21.615 -15.052  0.00  0.00    -0.072 A 
ATOM     45  C6  LC0 d   1     -10.660  21.941 -14.119  0.00  0.00    -0.050 A 
ATOM     46  H   LC0 d   1      -8.960  22.357 -15.352  0.00  0.00     0.084 H 
ATOM     47  C16 LC0 d   1     -11.590  20.995 -13.745  0.00  0.00     0.068 A 
ATOM     48  H   LC0 d   1     -10.684  22.939 -13.680  0.00  0.00     0.087 H 
ATOM     49  C7  LC0 d   1     -11.576  19.732 -14.297  0.00  0.00    -0.050 A 
ATOM     50  C5  LC0 d   1     -10.611  19.417 -15.228  0.00  0.00    -0.072 A 
ATOM     51  H   LC0 d   1     -12.319  18.992 -14.001  0.00  0.00     0.087 H 
ATOM     52  H   LC0 d   1     -10.590  18.420 -15.668  0.00  0.00     0.084 H 
BRANCH  47  53
ATOM     53  O30 LC0 d   1     -12.558  21.320 -12.812  0.00  0.00    -0.356 OA
BRANCH  53  54
ATOM     54  C2  LC0 d   1     -12.046  20.894 -11.555  0.00  0.00     0.010 C 
ATOM     55  H   LC0 d   1     -11.868  19.819 -11.582  0.00  0.00     0.066 H 
ATOM     56  H   LC0 d   1     -11.110  21.413 -11.351  0.00  0.00     0.066 H 
ATOM     57  H   LC0 d   1     -12.769  21.124 -10.773  0.00  0.00     0.066 H 
ENDBRANCH  53  54
ENDBRANCH  47  53
ENDBRANCH  40  43
ENDBRANCH  39  40
ENDBRANCH   4  39
TORSDOF 13
