REMARK  11 active torsions:
REMARK  status: ('A' for Active; 'I' for Inactive)
REMARK    1  A    between atoms: N_1  and  CA_2 
REMARK    2  A    between atoms: CA_2  and  CB_3 
REMARK    3  A    between atoms: CA_2  and  C_6 
REMARK    4  A    between atoms: CB_3  and  CG_4 
REMARK    5  A    between atoms: CG_4  and  SD_5 
REMARK    6  A    between atoms: SD_5  and  C5'_9 
REMARK    7  A    between atoms: C5'_9  and  C4'_10 
REMARK    8  A    between atoms: C3'_12  and  O3'_13 
REMARK    9  A    between atoms: C2'_14  and  O2'_15 
REMARK   10  A    between atoms: C1'_16  and  N9_17 
REMARK   11  A    between atoms: C6_21  and  N6_22 
ROOT
ATOM      1  C4' SAH d   1       7.563   1.061  19.058  0.00  0.00     0.076 C 
ATOM      2  O4' SAH d   1       8.524   1.467  18.095  0.00  0.00    -0.355 OA
ATOM      3  C3' SAH d   1       6.566   2.191  19.153  0.00  0.00     0.090 C 
ATOM      4  C2' SAH d   1       7.196   3.303  18.208  0.00  0.00     0.105 C 
ATOM      5  C1' SAH d   1       8.655   2.899  18.246  0.00  0.00     0.139 C 
ATOM      6  H11 SAH d   1       8.020   0.887  20.044  0.00  0.00     0.088 H 
ATOM      7  H12 SAH d   1       5.587   1.882  18.758  0.00  0.00     0.091 H 
ATOM      8  H14 SAH d   1       6.807   3.204  17.184  0.00  0.00     0.093 H 
ATOM      9  H16 SAH d   1       9.084   3.169  19.222  0.00  0.00     0.122 H 
ENDROOT
BRANCH   1  10
ATOM     10  C5' SAH d   1       6.983  -0.294  18.484  0.00  0.00     0.003 C 
ATOM     11  H9  SAH d   1       6.675  -0.084  17.449  0.00  0.00     0.052 H 
ATOM     12  H10 SAH d   1       7.818  -1.010  18.480  0.00  0.00     0.052 H 
BRANCH  10  13
ATOM     13  SD  SAH d   1       5.663  -1.099  19.225  0.00  0.00    -0.166 SA
BRANCH  13  14
ATOM     14  CG  SAH d   1       6.504  -1.881  20.593  0.00  0.00    -0.021 C 
ATOM     15  H7  SAH d   1       6.022  -2.852  20.782  0.00  0.00     0.049 H 
ATOM     16  H8  SAH d   1       7.553  -2.042  20.304  0.00  0.00     0.049 H 
BRANCH  14  17
ATOM     17  CB  SAH d   1       6.486  -1.080  21.890  0.00  0.00    -0.021 C 
ATOM     18  H5  SAH d   1       6.943  -0.101  21.683  0.00  0.00     0.037 H 
ATOM     19  H6  SAH d   1       5.434  -0.939  22.180  0.00  0.00     0.037 H 
BRANCH  17  20
ATOM     20  CA  SAH d   1       7.221  -1.691  23.092  0.00  0.00     0.183 C 
ATOM     21  H4  SAH d   1       7.226  -0.971  23.923  0.00  0.00     0.101 H 
BRANCH  20  22
ATOM     22  N   SAH d   1       8.591  -1.953  22.683  0.00  0.00    -0.065 N 
ATOM     23  H1  SAH d   1       9.024  -1.092  22.388  0.00  0.00     0.275 HD
ATOM     24  H2  SAH d   1       8.594  -2.610  21.918  0.00  0.00     0.275 HD
ATOM     25  H3  SAH d   1       9.105  -2.339  23.459  0.00  0.00     0.275 HD
ENDBRANCH  20  22
BRANCH  20  26
ATOM     26  C   SAH d   1       6.485  -3.001  23.567  0.00  0.00     0.204 C 
ATOM     27  O   SAH d   1       7.066  -4.016  23.409  0.00  0.00    -0.646 OA
ATOM     28  OXT SAH d   1       5.439  -3.071  23.965  0.00  0.00    -0.646 OA
ENDBRANCH  20  26
ENDBRANCH  17  20
ENDBRANCH  14  17
ENDBRANCH  13  14
ENDBRANCH  10  13
ENDBRANCH   1  10
BRANCH   3  29
ATOM     29  O3' SAH d   1       6.397   2.575  20.521  0.00  0.00    -0.390 OA
ATOM     30  H13 SAH d   1       7.231   2.861  20.874  0.00  0.00     0.210 HD
ENDBRANCH   3  29
BRANCH   5  31
ATOM     31  N9  SAH d   1       9.485   3.350  17.292  0.00  0.00    -0.294 N 
ATOM     32  C8  SAH d   1       9.239   3.381  15.928  0.00  0.00     0.071 A 
ATOM     33  N7  SAH d   1      10.239   3.861  15.232  0.00  0.00    -0.236 NA
ATOM     34  H17 SAH d   1       8.307   3.040  15.480  0.00  0.00     0.144 H 
ATOM     35  C5  SAH d   1      11.208   4.162  16.229  0.00  0.00     0.149 A 
ATOM     36  C6  SAH d   1      12.513   4.709  16.024  0.00  0.00     0.155 A 
ATOM     37  C4  SAH d   1      10.779   3.867  17.481  0.00  0.00     0.167 A 
ATOM     38  N1  SAH d   1      13.223   4.891  17.192  0.00  0.00    -0.222 NA
ATOM     39  C2  SAH d   1      12.732   4.574  18.431  0.00  0.00     0.091 A 
ATOM     40  N3  SAH d   1      11.477   4.040  18.638  0.00  0.00    -0.222 NA
ATOM     41  H20 SAH d   1      13.363   4.752  19.294  0.00  0.00     0.146 H 
BRANCH  36  42
ATOM     42  N6  SAH d   1      13.023   5.024  14.829  0.00  0.00    -0.382 N 
ATOM     43  H18 SAH d   1      13.973   5.415  14.762  0.00  0.00     0.157 HD
ATOM     44  H19 SAH d   1      12.465   4.876  13.976  0.00  0.00     0.157 HD
ENDBRANCH  36  42
ENDBRANCH   5  31
BRANCH   4  45
ATOM     45  O2' SAH d   1       6.913   4.622  18.646  0.00  0.00    -0.388 OA
ATOM     46  H15 SAH d   1       7.267   4.748  19.518  0.00  0.00     0.210 HD
ENDBRANCH   4  45
TORSDOF 11
