REMARK  12 active torsions:
REMARK  status: ('A' for Active; 'I' for Inactive)
REMARK    1  A    between atoms: N_1  and  CA_2 
REMARK    2  A    between atoms: CA_2  and  C_3 
REMARK    3  A    between atoms: CA_2  and  CB_6 
REMARK    4  A    between atoms: CB_6  and  CG_7 
REMARK    5  A    between atoms: CG_7  and  SD_8 
REMARK    6  A    between atoms: SD_8  and  CE_9 
REMARK    7  A    between atoms: SD_8  and  C5'_10 
REMARK    8  A    between atoms: C5'_10  and  C4'_11 
REMARK    9  A    between atoms: C3'_13  and  O3'_14 
REMARK   10  A    between atoms: C2'_15  and  O2'_16 
REMARK   11  A    between atoms: C1'_17  and  N9_18 
REMARK   12  A    between atoms: C6_22  and  N6_23 
ROOT
ATOM      1  C4' SAM d   1       7.566   1.146  18.876  0.00  0.00     0.076 C 
ATOM      2  O4' SAM d   1       8.805   1.434  18.190  0.00  0.00    -0.355 OA
ATOM      3  C3' SAM d   1       6.690   2.368  18.672  0.00  0.00     0.090 C 
ATOM      4  C2' SAM d   1       7.561   3.489  18.115  0.00  0.00     0.105 C 
ATOM      5  C1' SAM d   1       8.970   2.834  18.110  0.00  0.00     0.139 C 
ATOM      6  H14 SAM d   1       7.751   1.004  19.951  0.00  0.00     0.088 H 
ATOM      7  H15 SAM d   1       5.799   2.186  18.053  0.00  0.00     0.091 H 
ATOM      8  H17 SAM d   1       7.266   3.610  17.062  0.00  0.00     0.093 H 
ATOM      9  H19 SAM d   1       9.463   3.098  19.057  0.00  0.00     0.122 H 
ENDROOT
BRANCH   1  10
ATOM     10  C5' SAM d   1       6.958  -0.131  18.314  0.00  0.00    -0.005 C 
ATOM     11  H12 SAM d   1       6.379   0.189  17.435  0.00  0.00     0.051 H 
ATOM     12  H13 SAM d   1       7.815  -0.738  17.988  0.00  0.00     0.051 H 
BRANCH  10  13
ATOM     13  SD  SAM d   1       6.185  -0.950  18.948  0.00  0.00    -0.221 SA
BRANCH  13  14
ATOM     14  CG  SAM d   1       6.836  -1.789  20.427  0.00  0.00    -0.029 C 
ATOM     15  H7  SAM d   1       6.202  -2.662  20.638  0.00  0.00     0.047 H 
ATOM     16  H8  SAM d   1       7.862  -2.124  20.213  0.00  0.00     0.047 H 
BRANCH  14  17
ATOM     17  CB  SAM d   1       6.868  -0.909  21.666  0.00  0.00    -0.022 C 
ATOM     18  H5  SAM d   1       7.480  -0.032  21.409  0.00  0.00     0.037 H 
ATOM     19  H6  SAM d   1       5.831  -0.591  21.849  0.00  0.00     0.037 H 
BRANCH  17  20
ATOM     20  CA  SAM d   1       7.443  -1.475  23.102  0.00  0.00     0.183 C 
ATOM     21  H4  SAM d   1       7.277  -0.723  23.888  0.00  0.00     0.101 H 
BRANCH  20  22
ATOM     22  N   SAM d   1       8.880  -1.740  22.986  0.00  0.00    -0.065 N 
ATOM     23  H1  SAM d   1       9.361  -0.886  22.753  0.00  0.00     0.275 HD
ATOM     24  H2  SAM d   1       9.038  -2.423  22.262  0.00  0.00     0.275 HD
ATOM     25  H3  SAM d   1       9.228  -2.093  23.863  0.00  0.00     0.275 HD
ENDBRANCH  20  22
BRANCH  20  26
ATOM     26  C   SAM d   1       6.685  -2.752  23.455  0.00  0.00     0.204 C 
ATOM     27  O   SAM d   1       7.064  -3.823  23.013  0.00  0.00    -0.646 OA
ATOM     28  OXT SAM d   1       5.511  -2.855  24.275  0.00  0.00    -0.646 OA
ENDBRANCH  20  26
ENDBRANCH  17  20
ENDBRANCH  14  17
ENDBRANCH  13  14
BRANCH  13  29
ATOM     29  CE  SAM d   1       5.751  -2.289  17.813  0.00  0.00    -0.042 C 
ATOM     30  H9  SAM d   1       5.345  -1.864  16.883  0.00  0.00     0.040 H 
ATOM     31  H10 SAM d   1       4.995  -2.936  18.281  0.00  0.00     0.040 H 
ATOM     32  H11 SAM d   1       6.649  -2.881  17.584  0.00  0.00     0.040 H 
ENDBRANCH  13  29
ENDBRANCH  10  13
ENDBRANCH   1  10
BRANCH   3  33
ATOM     33  O3' SAM d   1       6.392   2.669  20.079  0.00  0.00    -0.390 OA
ATOM     34  H16 SAM d   1       5.833   3.436  20.126  0.00  0.00     0.210 HD
ENDBRANCH   3  33
BRANCH   5  35
ATOM     35  N9  SAM d   1       9.717   3.488  17.145  0.00  0.00    -0.294 N 
ATOM     36  C8  SAM d   1       9.499   3.478  15.783  0.00  0.00     0.071 A 
ATOM     37  N7  SAM d   1      10.560   3.952  15.156  0.00  0.00    -0.236 NA
ATOM     38  H20 SAM d   1       8.588   3.131  15.297  0.00  0.00     0.144 H 
ATOM     39  C5  SAM d   1      11.480   4.288  16.048  0.00  0.00     0.149 A 
ATOM     40  C6  SAM d   1      12.779   4.831  15.901  0.00  0.00     0.155 A 
ATOM     41  C4  SAM d   1      10.991   4.023  17.273  0.00  0.00     0.167 A 
ATOM     42  N1  SAM d   1      13.522   5.085  17.017  0.00  0.00    -0.222 NA
ATOM     43  C2  SAM d   1      12.987   4.804  18.237  0.00  0.00     0.091 A 
ATOM     44  N3  SAM d   1      11.746   4.281  18.360  0.00  0.00    -0.222 NA
ATOM     45  H23 SAM d   1      13.569   5.004  19.130  0.00  0.00     0.146 H 
BRANCH  40  46
ATOM     46  N6  SAM d   1      13.291   5.097  14.730  0.00  0.00    -0.382 N 
ATOM     47  H21 SAM d   1      14.240   5.492  14.660  0.00  0.00     0.157 HD
ATOM     48  H22 SAM d   1      12.746   4.912  13.876  0.00  0.00     0.157 HD
ENDBRANCH  40  46
ENDBRANCH   5  35
BRANCH   4  49
ATOM     49  O2' SAM d   1       7.454   4.802  18.633  0.00  0.00    -0.388 OA
ATOM     50  H18 SAM d   1       7.660   4.793  19.560  0.00  0.00     0.210 HD
ENDBRANCH   4  49
TORSDOF 12
