REMARK  5 active torsions:
REMARK  status: ('A' for Active; 'I' for Inactive)
REMARK    1  A    between atoms: P14_2  and  C8_5 
REMARK    2  A    between atoms: C8_5  and  P9_6 
REMARK    3  A    between atoms: C8_5  and  O13_10 
REMARK    4  A    between atoms: C8_5  and  C7_11 
REMARK    5  A    between atoms: C7_11  and  N15_12 
ROOT
ATOM      1  C8  ZOL d   1      -9.963  15.090 -35.692  0.00  0.00     0.301 C 
ENDROOT
BRANCH   1   2
ATOM      2  P14 ZOL d   1     -10.694  15.000 -33.981  0.00  0.00     0.311 P 
ATOM      3  O17 ZOL d   1     -11.475  16.169 -33.540  0.00  0.00    -0.637 OA
ATOM      4  O16 ZOL d   1     -11.590  13.649 -33.960  0.00  0.00    -0.637 OA
ATOM      5  O15 ZOL d   1      -9.422  14.703 -33.110  0.00  0.00    -0.637 OA
ENDBRANCH   1   2
BRANCH   1   6
ATOM      6  P9  ZOL d   1     -11.350  15.260 -36.879  0.00  0.00     0.311 P 
ATOM      7  O10 ZOL d   1     -10.857  15.228 -38.262  0.00  0.00    -0.637 OA
ATOM      8  O11 ZOL d   1     -12.316  14.004 -36.497  0.00  0.00    -0.637 OA
ATOM      9  O12 ZOL d   1     -12.161  16.598 -36.528  0.00  0.00    -0.637 OA
ENDBRANCH   1   6
BRANCH   1  10
ATOM     10  O13 ZOL d   1      -9.306  13.852 -35.984  0.00  0.00    -0.364 OA
ATOM     11  H   ZOL d   1      -9.943  13.135 -35.941  0.00  0.00     0.212 HD
ENDBRANCH   1  10
BRANCH   1  12
ATOM     12  C7  ZOL d   1      -8.972  16.246 -35.787  0.00  0.00     0.054 C 
ATOM     13  H   ZOL d   1      -8.152  16.024 -35.104  0.00  0.00     0.071 H 
ATOM     14  H   ZOL d   1      -9.518  17.159 -35.547  0.00  0.00     0.071 H 
BRANCH  12  15
ATOM     15  N15 ZOL d   1      -8.386  16.429 -37.126  0.00  0.00    -0.346 N 
ATOM     16  C16 ZOL d   1      -7.789  15.495 -37.850  0.00  0.00     0.065 A 
ATOM     17  N17 ZOL d   1      -7.331  16.083 -38.949  0.00  0.00    -0.255 NA
ATOM     18  H   ZOL d   1      -7.692  14.440 -37.592  0.00  0.00     0.143 H 
ATOM     19  C18 ZOL d   1      -7.679  17.370 -38.898  0.00  0.00     0.018 A 
ATOM     20  C19 ZOL d   1      -8.307  17.594 -37.753  0.00  0.00    -0.003 A 
ATOM     21  H   ZOL d   1      -7.480  18.113 -39.670  0.00  0.00     0.117 H 
ATOM     22  H   ZOL d   1      -8.686  18.552 -37.396  0.00  0.00     0.113 H 
ENDBRANCH  12  15
ENDBRANCH   1  12
TORSDOF 5
