REMARK  3 active torsions:
REMARK  status: ('A' for Active; 'I' for Inactive)
REMARK    1  A    between atoms: C6_4  and  C7_5 
REMARK    2  A    between atoms: C13_7  and  C14_18 
REMARK    3  A    between atoms: C11_16  and  N17_21 
ROOT
ATOM      1  N3  2BZ d   1       2.538  29.090   6.222  0.00  0.00    -0.225 NA
ATOM      2  C4  2BZ d   1       2.913  27.811   6.690  0.00  0.00     0.072 A 
ATOM      3  C5  2BZ d   1       2.167  26.985   7.609  0.00  0.00     0.025 A 
ATOM      4  C6  2BZ d   1       0.805  27.385   8.244  0.00  0.00     0.082 C 
ATOM      5  C10 2BZ d   1       4.707  26.044   6.534  0.00  0.00    -0.049 A 
ATOM      6  C13 2BZ d   1      -0.271  30.793   7.536  0.00  0.00     0.085 A 
ATOM      7  C1  2BZ d   1       0.480  29.643   7.458  0.00  0.00     0.133 A 
ATOM      8  C2  2BZ d   1       1.547  29.933   6.587  0.00  0.00     0.203 A 
ATOM      9  N8  2BZ d   1       0.113  28.498   8.172  0.00  0.00    -0.241 NA
ATOM     10  C9  2BZ d   1       4.177  27.315   6.174  0.00  0.00    -0.052 A 
ATOM     11  C11 2BZ d   1       3.975  25.227   7.434  0.00  0.00     0.103 A 
ATOM     12  C12 2BZ d   1       2.736  25.693   7.957  0.00  0.00    -0.036 A 
ATOM     13  N15 2BZ d   1       0.373  31.685   6.728  0.00  0.00    -0.151 NA
ATOM     14  N16 2BZ d   1       1.475  31.193   6.140  0.00  0.00    -0.127 NA
ATOM     15  H1  2BZ d   1       5.653  25.706   6.128  0.00  0.00     0.087 H 
ATOM     16  H5  2BZ d   1       4.739  27.938   5.487  0.00  0.00     0.087 H 
ATOM     17  H6  2BZ d   1       2.192  25.056   8.646  0.00  0.00     0.088 H 
ENDROOT
BRANCH   4  18
ATOM     18  C7  2BZ d   1       0.077  26.380   9.138  0.00  0.00     0.015 A 
ATOM     19  C20 2BZ d   1      -0.518  25.211   8.537  0.00  0.00    -0.069 A 
ATOM     20  C21 2BZ d   1      -1.191  24.265   9.358  0.00  0.00    -0.082 A 
ATOM     21  H2  2BZ d   1      -0.452  25.055   7.466  0.00  0.00     0.085 H 
ATOM     22  C22 2BZ d   1      -1.280  24.469  10.762  0.00  0.00    -0.081 A 
ATOM     23  H3  2BZ d   1      -1.638  23.384   8.911  0.00  0.00     0.083 H 
ATOM     24  C23 2BZ d   1      -0.700  25.621  11.361  0.00  0.00    -0.061 A 
ATOM     25  H4  2BZ d   1      -1.794  23.741  11.380  0.00  0.00     0.083 H 
ATOM     26  C24 2BZ d   1      -0.021  26.581  10.556  0.00  0.00     0.046 A 
ATOM     27  H10 2BZ d   1      -0.775  25.769  12.432  0.00  0.00     0.086 H 
ATOM     28 CL25 2BZ d   1       0.658  27.963  11.342  0.00  0.00    -0.083 Cl
ENDBRANCH   4  18
BRANCH  11  29
ATOM     29  N17 2BZ d   1       4.479  23.883   7.831  0.00  0.00    -0.116 N 
ATOM     30  O18 2BZ d   1       3.797  23.216   8.628  0.00  0.00    -0.532 OA
ATOM     31  O19 2BZ d   1       5.546  23.479   7.331  0.00  0.00    -0.532 OA
ENDBRANCH  11  29
BRANCH   6  32
ATOM     32  C14 2BZ d   1      -1.503  31.130   8.281  0.00  0.00    -0.032 C 
ATOM     33  H7  2BZ d   1      -1.787  32.171   8.069  0.00  0.00     0.035 H 
ATOM     34  H8  2BZ d   1      -1.323  31.012   9.360  0.00  0.00     0.035 H 
ATOM     35  H9  2BZ d   1      -2.316  30.458   7.969  0.00  0.00     0.035 H 
ENDBRANCH   6  32
TORSDOF 3
