REMARK  10 active torsions:
REMARK  status: ('A' for Active; 'I' for Inactive)
REMARK    1  A    between atoms: O3B_8  and  PG_1 
REMARK    2  A    between atoms: PB_5  and  O3B_8 
REMARK    3  A    between atoms: O3A_12  and  PB_5 
REMARK    4  A    between atoms: PA_9  and  O3A_12 
REMARK    5  A    between atoms: PA_9  and  O5'_13 
REMARK    6  A    between atoms: O5'_13  and  C5'_14 
REMARK    7  A    between atoms: C5'_14  and  C4'_15 
REMARK    8  A    between atoms: C3'_17  and  O3'_18 
REMARK    9  A    between atoms: C2'_19  and  O2'_20 
REMARK   10  A    between atoms: C1'_21  and  N9_22 
ROOT
ATOM      1  C4' ATP d   1      28.215  -5.629   6.000  0.00  0.00     0.089 C 
ATOM      2  O4' ATP d   1      26.809  -5.722   5.755  0.00  0.00    -0.353 OA
ATOM      3  C3' ATP d   1      28.814  -5.421   4.601  0.00  0.00     0.091 C 
ATOM      4  C2' ATP d   1      27.878  -6.191   3.692  0.00  0.00     0.105 C 
ATOM      5  C1' ATP d   1      26.552  -6.166   4.443  0.00  0.00     0.139 C 
ATOM      6  H   ATP d   1      28.637  -6.507   6.489  0.00  0.00     0.090 H 
ATOM      7  H   ATP d   1      28.882  -4.376   4.298  0.00  0.00     0.091 H 
ATOM      8  H   ATP d   1      27.890  -5.784   2.681  0.00  0.00     0.093 H 
ATOM      9  H   ATP d   1      26.151  -7.174   4.340  0.00  0.00     0.122 H 
ENDROOT
BRANCH   1  10
ATOM     10  C5' ATP d   1      28.509  -4.471   6.943  0.00  0.00     0.058 C 
ATOM     11  H   ATP d   1      28.175  -4.686   7.958  0.00  0.00     0.079 H 
ATOM     12  H   ATP d   1      29.580  -4.283   7.025  0.00  0.00     0.079 H 
BRANCH  10  13
ATOM     13  O5' ATP d   1      27.819  -3.346   6.390  0.00  0.00    -0.287 OA
BRANCH  13  14
ATOM     14  PA  ATP d   1      28.289  -1.817   6.588  0.00  0.00     0.417 P 
ATOM     15  O1A ATP d   1      27.601  -0.993   5.561  0.00  0.00    -0.624 OA
ATOM     16  O2A ATP d   1      29.780  -1.794   6.934  0.00  0.00    -0.624 OA
BRANCH  14  17
ATOM     17  O3A ATP d   1      27.564  -1.298   7.932  0.00  0.00    -0.180 OA
BRANCH  17  18
ATOM     18  PB  ATP d   1      27.173  -2.211   9.208  0.00  0.00     0.428 P 
ATOM     19  O1B ATP d   1      28.364  -3.014   9.691  0.00  0.00    -0.624 OA
ATOM     20  O2B ATP d   1      25.819  -2.828   8.932  0.00  0.00    -0.624 OA
BRANCH  18  21
ATOM     21  O3B ATP d   1      26.927  -1.042  10.298  0.00  0.00    -0.173 OA
BRANCH  21  22
ATOM     22  PG  ATP d   1      28.082  -0.053  10.846  0.00  0.00     0.431 P 
ATOM     23  O1G ATP d   1      29.114  -0.015   9.746  0.00  0.00    -0.616 OA
ATOM     24  O2G ATP d   1      28.614  -0.719  12.091  0.00  0.00    -0.616 OA
ATOM     25  O3G ATP d   1      27.283   1.227  10.936  0.00  0.00    -0.616 OA
ENDBRANCH  21  22
ENDBRANCH  18  21
ENDBRANCH  17  18
ENDBRANCH  14  17
ENDBRANCH  13  14
ENDBRANCH  10  13
ENDBRANCH   1  10
BRANCH   3  26
ATOM     26  O3' ATP d   1      30.170  -5.892   4.559  0.00  0.00    -0.390 OA
ATOM     27  H   ATP d   1      30.696  -5.407   5.199  0.00  0.00     0.210 HD
ENDBRANCH   3  26
BRANCH   5  28
ATOM     28  N9  ATP d   1      25.564  -5.198   3.942  0.00  0.00    -0.294 N 
ATOM     29  C8  ATP d   1      25.632  -3.852   3.924  0.00  0.00     0.071 A 
ATOM     30  N7  ATP d   1      24.496  -3.332   3.402  0.00  0.00    -0.236 NA
ATOM     31  H   ATP d   1      26.480  -3.266   4.279  0.00  0.00     0.144 H 
ATOM     32  C5  ATP d   1      23.687  -4.368   3.077  0.00  0.00     0.149 A 
ATOM     33  C6  ATP d   1      22.330  -4.573   2.510  0.00  0.00     0.155 A 
ATOM     34  C4  ATP d   1      24.406  -5.587   3.445  0.00  0.00     0.167 A 
ATOM     35  N6  ATP d   1      21.531  -3.547   2.145  0.00  0.00    -0.382 N 
ATOM     36  N1  ATP d   1      21.888  -5.839   2.357  0.00  0.00    -0.222 NA
ATOM     37  H   ATP d   1      21.853  -2.586   2.255  0.00  0.00     0.157 HD
ATOM     38  H   ATP d   1      20.605  -3.734   1.760  0.00  0.00     0.157 HD
ATOM     39  C2  ATP d   1      22.608  -6.898   2.723  0.00  0.00     0.091 A 
ATOM     40  N3  ATP d   1      23.837  -6.805   3.259  0.00  0.00    -0.222 NA
ATOM     41  H   ATP d   1      22.179  -7.890   2.581  0.00  0.00     0.146 H 
ENDBRANCH   5  28
BRANCH   4  42
ATOM     42  O2' ATP d   1      28.220  -7.579   3.716  0.00  0.00    -0.388 OA
ATOM     43  H   ATP d   1      27.625  -8.064   3.139  0.00  0.00     0.210 HD
ENDBRANCH   4  42
TORSDOF 10
