REMARK  7 active torsions:
REMARK  status: ('A' for Active; 'I' for Inactive)
REMARK    1  A    between atoms: C3_3  and  C12_7 
REMARK    2  A    between atoms: C13_8  and  C20_13 
REMARK    3  A    between atoms: C23_16  and  O30_19 
REMARK    4  A    between atoms: C33_22  and  N34_23 
REMARK       I    between atoms: N34_23  and  C35_24 
REMARK    5  A    between atoms: C35_24  and  C36_25 
REMARK    6  A    between atoms: C36_25  and  C37_26 
REMARK    7  A    between atoms: C37_26  and  C40_27 
ROOT
ATOM      1  C12 A27 d   1      39.385  -8.255  24.270  0.00  0.00    -0.014 A 
ATOM      2  C13 A27 d   1      38.643  -8.333  23.063  0.00  0.00    -0.013 A 
ATOM      3  C14 A27 d   1      39.084  -9.183  22.043  0.00  0.00    -0.043 A 
ATOM      4  C15 A27 d   1      40.234  -9.955  22.196  0.00  0.00     0.065 A 
ATOM      5  C16 A27 d   1      40.974  -9.877  23.369  0.00  0.00     0.041 A 
ATOM      6  C17 A27 d   1      40.543  -9.036  24.400  0.00  0.00    -0.055 A 
ATOM      7  N31 A27 d   1      40.856 -10.801  21.377  0.00  0.00    -0.275 N 
ATOM      8  N32 A27 d   1      41.872 -11.257  21.912  0.00  0.00    -0.155 NA
ATOM      9  C33 A27 d   1      42.035 -10.748  23.130  0.00  0.00     0.162 A 
ATOM     10  H6  A27 d   1      38.522  -9.242  21.118  0.00  0.00     0.088 H 
ATOM     11  H7  A27 d   1      41.116  -8.987  25.319  0.00  0.00     0.086 H 
ATOM     12  H13 A27 d   1      40.535 -11.042  20.429  0.00  0.00     0.189 HD
ENDROOT
BRANCH   9  13
ATOM     13  N34 A27 d   1      43.107 -11.076  23.870  0.00  0.00    -0.310 N 
ATOM     14  C35 A27 d   1      43.529 -10.628  25.059  0.00  0.00     0.223 C 
ATOM     15  O46 A27 d   1      42.962  -9.804  25.777  0.00  0.00    -0.273 OA
ATOM     16  H14 A27 d   1      43.692 -11.777  23.462  0.00  0.00     0.170 HD
BRANCH  14  17
ATOM     17  C36 A27 d   1      44.849 -11.256  25.511  0.00  0.00     0.009 C 
ATOM     18  H15 A27 d   1      45.258 -10.671  26.348  0.00  0.00     0.047 H 
ATOM     19  H16 A27 d   1      45.560 -11.243  24.672  0.00  0.00     0.047 H 
BRANCH  17  20
ATOM     20  C37 A27 d   1      44.637 -12.700  25.965  0.00  0.00    -0.061 C 
ATOM     21  H17 A27 d   1      44.536 -13.343  25.079  0.00  0.00     0.033 H 
ATOM     22  H18 A27 d   1      43.717 -12.756  26.566  0.00  0.00     0.033 H 
BRANCH  20  23
ATOM     23  C40 A27 d   1      45.812 -13.194  26.807  0.00  0.00    -0.076 C 
ATOM     24  H19 A27 d   1      45.629 -14.233  27.117  0.00  0.00     0.027 H 
ATOM     25  H20 A27 d   1      45.917 -12.558  27.699  0.00  0.00     0.027 H 
ATOM     26  H21 A27 d   1      46.736 -13.146  26.212  0.00  0.00     0.027 H 
ENDBRANCH  20  23
ENDBRANCH  17  20
ENDBRANCH  14  17
ENDBRANCH   9  13
BRANCH   1  27
ATOM     27  C3  A27 d   1      39.074  -7.382  25.328  0.00  0.00    -0.025 A 
ATOM     28  C2  A27 d   1      38.767  -7.859  26.615  0.00  0.00    -0.072 A 
ATOM     29  C1  A27 d   1      38.476  -6.967  27.665  0.00  0.00    -0.082 A 
ATOM     30  H2  A27 d   1      38.754  -8.927  26.801  0.00  0.00     0.084 H 
ATOM     31  C6  A27 d   1      38.516  -5.589  27.429  0.00  0.00    -0.083 A 
ATOM     32  H1  A27 d   1      38.223  -7.346  28.649  0.00  0.00     0.083 H 
ATOM     33  C5  A27 d   1      38.847  -5.104  26.155  0.00  0.00    -0.082 A 
ATOM     34  H5  A27 d   1      38.291  -4.895  28.231  0.00  0.00     0.083 H 
ATOM     35  C4  A27 d   1      39.128  -5.994  25.115  0.00  0.00    -0.072 A 
ATOM     36  H4  A27 d   1      38.885  -4.035  25.977  0.00  0.00     0.083 H 
ATOM     37  H3  A27 d   1      39.390  -5.611  24.136  0.00  0.00     0.084 H 
ENDBRANCH   1  27
BRANCH   2  38
ATOM     38  C20 A27 d   1      37.479  -7.612  22.805  0.00  0.00    -0.025 A 
ATOM     39  C21 A27 d   1      37.327  -7.071  21.526  0.00  0.00    -0.070 A 
ATOM     40  C22 A27 d   1      36.210  -6.309  21.213  0.00  0.00    -0.050 A 
ATOM     41  H8  A27 d   1      38.087  -7.247  20.773  0.00  0.00     0.085 H 
ATOM     42  C23 A27 d   1      35.215  -6.126  22.167  0.00  0.00     0.065 A 
ATOM     43  H9  A27 d   1      36.114  -5.859  20.231  0.00  0.00     0.087 H 
ATOM     44  C24 A27 d   1      35.347  -6.684  23.439  0.00  0.00    -0.050 A 
ATOM     45  C25 A27 d   1      36.461  -7.466  23.754  0.00  0.00    -0.070 A 
ATOM     46  H10 A27 d   1      34.581  -6.510  24.186  0.00  0.00     0.087 H 
ATOM     47  H11 A27 d   1      36.536  -7.953  24.720  0.00  0.00     0.085 H 
BRANCH  42  48
ATOM     48  O30 A27 d   1      34.113  -5.406  21.838  0.00  0.00    -0.361 OA
ATOM     49  H12 A27 d   1      34.190  -5.104  20.941  0.00  0.00     0.217 HD
ENDBRANCH  42  48
ENDBRANCH   2  38
TORSDOF 7
