REMARK  5 active torsions:
REMARK  status: ('A' for Active; 'I' for Inactive)
REMARK    1  A    between atoms: C17_13  and  C1_1 
REMARK    2  A    between atoms: C22_16  and  N23_17 
REMARK       I    between atoms: N23_17  and  C24_18 
REMARK    3  A    between atoms: C24_18  and  C25_19 
REMARK    4  A    between atoms: C25_19  and  C26_20 
REMARK    5  A    between atoms: C26_20  and  C29_21 
ROOT
ATOM      1 CL1  A07 d   1      37.980  -7.688  22.898  0.00  0.00    -0.083 Cl
ATOM      2  C12 A07 d   1      39.315  -8.695  23.351  0.00  0.00     0.047 A 
ATOM      3  C13 A07 d   1      39.816  -9.603  22.415  0.00  0.00    -0.031 A 
ATOM      4  C14 A07 d   1      40.869 -10.453  22.762  0.00  0.00     0.092 A 
ATOM      5  C15 A07 d   1      41.435 -10.396  24.032  0.00  0.00     0.041 A 
ATOM      6  C16 A07 d   1      40.956  -9.458  24.959  0.00  0.00    -0.055 A 
ATOM      7  C17 A07 d   1      39.868  -8.636  24.640  0.00  0.00    -0.003 A 
ATOM      8  N20 A07 d   1      41.561 -11.349  22.064  0.00  0.00    -0.172 NA
ATOM      9  N21 A07 d   1      42.429 -11.889  22.766  0.00  0.00    -0.261 N 
ATOM     10  C22 A07 d   1      42.477 -11.321  23.968  0.00  0.00     0.137 A 
ATOM     11  H6  A07 d   1      39.388  -9.648  21.420  0.00  0.00     0.089 H 
ATOM     12  H7  A07 d   1      41.431  -9.369  25.929  0.00  0.00     0.086 H 
ATOM     13  H8  A07 d   1      43.029 -12.669  22.461  0.00  0.00     0.191 HD
ENDROOT
BRANCH  10  14
ATOM     14  N23 A07 d   1      43.329 -11.759  24.918  0.00  0.00    -0.311 N 
ATOM     15  C24 A07 d   1      43.473 -11.349  26.189  0.00  0.00     0.223 C 
ATOM     16  O35 A07 d   1      42.830 -10.459  26.745  0.00  0.00    -0.273 OA
ATOM     17  H9  A07 d   1      43.943 -12.496  24.635  0.00  0.00     0.170 HD
BRANCH  15  18
ATOM     18  C25 A07 d   1      44.544 -12.111  26.981  0.00  0.00     0.009 C 
ATOM     19  H10 A07 d   1      44.633 -13.124  26.563  0.00  0.00     0.047 H 
ATOM     20  H11 A07 d   1      44.223 -12.175  28.031  0.00  0.00     0.047 H 
BRANCH  18  21
ATOM     21  C26 A07 d   1      45.923 -11.440  26.932  0.00  0.00    -0.061 C 
ATOM     22  H12 A07 d   1      46.353 -11.592  25.931  0.00  0.00     0.033 H 
ATOM     23  H13 A07 d   1      46.571 -11.912  27.685  0.00  0.00     0.033 H 
BRANCH  21  24
ATOM     24  C29 A07 d   1      45.856  -9.934  27.215  0.00  0.00    -0.076 C 
ATOM     25  H14 A07 d   1      46.868  -9.507  27.167  0.00  0.00     0.027 H 
ATOM     26  H15 A07 d   1      45.435  -9.768  28.217  0.00  0.00     0.027 H 
ATOM     27  H16 A07 d   1      45.217  -9.448  26.463  0.00  0.00     0.027 H 
ENDBRANCH  21  24
ENDBRANCH  18  21
ENDBRANCH  15  18
ENDBRANCH  10  14
BRANCH   7  28
ATOM     28  C1  A07 d   1      39.427  -7.687  25.562  0.00  0.00    -0.024 A 
ATOM     29  C2  A07 d   1      40.244  -6.587  25.851  0.00  0.00    -0.072 A 
ATOM     30  C3  A07 d   1      39.820  -5.607  26.754  0.00  0.00    -0.082 A 
ATOM     31  H1  A07 d   1      41.212  -6.495  25.371  0.00  0.00     0.084 H 
ATOM     32  C4  A07 d   1      38.575  -5.725  27.379  0.00  0.00    -0.083 A 
ATOM     33  H2  A07 d   1      40.456  -4.756  26.969  0.00  0.00     0.083 H 
ATOM     34  C5  A07 d   1      37.764  -6.832  27.106  0.00  0.00    -0.082 A 
ATOM     35  H3  A07 d   1      38.239  -4.962  28.072  0.00  0.00     0.083 H 
ATOM     36  C6  A07 d   1      38.183  -7.805  26.190  0.00  0.00    -0.072 A 
ATOM     37  H4  A07 d   1      36.808  -6.937  27.605  0.00  0.00     0.083 H 
ATOM     38  H5  A07 d   1      37.542  -8.651  25.968  0.00  0.00     0.084 H 
ENDBRANCH   7  28
TORSDOF 5
