REMARK  11 active torsions:
REMARK  status: ('A' for Active; 'I' for Inactive)
REMARK       I    between atoms: C20_20  and  N1_1 
REMARK    1  A    between atoms: C2_2  and  C35_35 
REMARK    2  A    between atoms: C30_30  and  N12_12 
REMARK    3  A    between atoms: C13_13  and  C31_31 
REMARK    4  A    between atoms: C27_27  and  C15_15 
REMARK    5  A    between atoms: C17_17  and  C30_30 
REMARK    6  A    between atoms: C21_21  and  C20_20 
REMARK    7  A    between atoms: C22_22  and  C21_21 
REMARK    8  A    between atoms: C21_21  and  O26_26 
REMARK    9  A    between atoms: C23_23  and  C22_22 
REMARK   10  A    between atoms: C22_22  and  O28_28 
REMARK       I    between atoms: N25_25  and  C23_23 
REMARK   11  A    between atoms: N25_25  and  C27_27 
ROOT
ATOM      1  C23 50X d   1       6.023   9.346  25.068  0.00  0.00     0.249 C 
ATOM      2  O24 50X d   1       4.909   8.825  25.038  0.00  0.00    -0.271 OA
ATOM      3  N25 50X d   1       6.869   9.196  26.152  0.00  0.00    -0.354 N 
ATOM      4  H   50X d   1       7.822   9.549  26.066  0.00  0.00     0.162 HD
ENDROOT
BRANCH   1   5
ATOM      5  C22 50X d   1       6.521  10.279  23.990  0.00  0.00     0.144 C 
ATOM      6  H   50X d   1       6.141   9.722  23.133  0.00  0.00     0.102 H 
BRANCH   5   7
ATOM      7  C21 50X d   1       5.978  11.657  23.971  0.00  0.00     0.133 C 
ATOM      8  H   50X d   1       4.901  11.619  24.136  0.00  0.00     0.101 H 
BRANCH   7   9
ATOM      9  C20 50X d   1       6.450  12.228  22.569  0.00  0.00     0.186 C 
ATOM     10  N1  50X d   1       5.652  11.772  21.492  0.00  0.00    -0.352 N 
ATOM     11  C2  50X d   1       6.079  12.103  20.149  0.00  0.00     0.039 C 
ATOM     12  C5  50X d   1       4.341  11.002  21.550  0.00  0.00    -0.002 C 
ATOM     13  C3  50X d   1       4.859  11.862  19.233  0.00  0.00    -0.041 C 
ATOM     14  H   50X d   1       6.387  13.144  20.050  0.00  0.00     0.080 H 
ATOM     15  C4  50X d   1       3.893  10.971  20.051  0.00  0.00    -0.048 C 
ATOM     16  H   50X d   1       5.151  11.381  18.300  0.00  0.00     0.036 H 
ATOM     17  H   50X d   1       4.386  12.801  18.944  0.00  0.00     0.036 H 
ATOM     18  H   50X d   1       3.921   9.948  19.675  0.00  0.00     0.035 H 
ATOM     19  H   50X d   1       2.873  11.345  19.959  0.00  0.00     0.035 H 
ATOM     20  H   50X d   1       3.604  11.467  22.204  0.00  0.00     0.064 H 
ATOM     21  H   50X d   1       4.451  10.007  21.981  0.00  0.00     0.064 H 
ATOM     22  O29 50X d   1       7.426  13.090  22.436  0.00  0.00    -0.174 OA
BRANCH  11  23
ATOM     23  C35 50X d   1       7.318  11.314  19.772  0.00  0.00    -0.034 A 
ATOM     24  C36 50X d   1       7.490   9.954  20.156  0.00  0.00    -0.054 A 
ATOM     25  C37 50X d   1       8.670   9.249  19.771  0.00  0.00     0.034 A 
ATOM     26  H   50X d   1       6.721   9.452  20.743  0.00  0.00     0.087 H 
ATOM     27  C38 50X d   1       9.678   9.890  19.021  0.00  0.00    -0.062 A 
ATOM     28 CL41 50X d   1       8.828   7.600  20.244  0.00  0.00    -0.084 Cl
ATOM     29  C39 50X d   1       9.490  11.260  18.636  0.00  0.00    -0.081 A 
ATOM     30  H   50X d   1      10.584   9.354  18.739  0.00  0.00     0.086 H 
ATOM     31  C40 50X d   1       8.327  11.970  19.006  0.00  0.00    -0.075 A 
ATOM     32  H   50X d   1      10.259  11.761  18.048  0.00  0.00     0.083 H 
ATOM     33  H   50X d   1       8.201  13.011  18.709  0.00  0.00     0.084 H 
ENDBRANCH  11  23
ENDBRANCH   7   9
BRANCH   7  34
ATOM     34  O26 50X d   1       6.467  12.514  24.984  0.00  0.00    -0.384 OA
ATOM     35  H   50X d   1       6.062  13.380  24.892  0.00  0.00     0.210 HD
ENDBRANCH   7  34
ENDBRANCH   5   7
BRANCH   5  36
ATOM     36  O28 50X d   1       7.959  10.454  23.940  0.00  0.00    -0.383 OA
ATOM     37  H   50X d   1       8.266  10.813  24.776  0.00  0.00     0.210 HD
ENDBRANCH   5  36
ENDBRANCH   1   5
BRANCH   3  38
ATOM     38  C27 50X d   1       6.494   8.577  27.387  0.00  0.00     0.025 C 
ATOM     39  H   50X d   1       5.988   9.304  28.022  0.00  0.00     0.072 H 
ATOM     40  H   50X d   1       5.819   7.744  27.189  0.00  0.00     0.072 H 
BRANCH  38  41
ATOM     41  C15 50X d   1       7.690   8.088  28.059  0.00  0.00     0.001 C 
ATOM     42  S16 50X d   1       7.786   8.287  29.803  0.00  0.00    -0.096 SA
ATOM     43  C17 50X d   1       9.461   7.848  29.783  0.00  0.00     0.001 C 
ATOM     44  C18 50X d   1       9.843   7.424  28.483  0.00  0.00    -0.068 C 
ATOM     45  C19 50X d   1       8.876   7.701  27.460  0.00  0.00    -0.068 C 
ATOM     46  H   50X d   1      10.792   6.929  28.279  0.00  0.00     0.085 H 
ATOM     47  H   50X d   1       9.047   7.620  26.387  0.00  0.00     0.085 H 
BRANCH  43  48
ATOM     48  C30 50X d   1      10.170   7.503  31.072  0.00  0.00     0.031 C 
ATOM     49  H   50X d   1      11.224   7.769  30.995  0.00  0.00     0.073 H 
ATOM     50  H   50X d   1       9.725   8.059  31.897  0.00  0.00     0.073 H 
BRANCH  48  51
ATOM     51  N12 50X d   1      10.037   6.048  31.319  0.00  0.00    -0.321 N 
ATOM     52  C6  50X d   1       8.872   5.321  31.694  0.00  0.00     0.065 A 
ATOM     53  C7  50X d   1       9.335   3.974  31.798  0.00  0.00     0.086 A 
ATOM     54  C11 50X d   1       7.504   5.645  31.961  0.00  0.00    -0.055 A 
ATOM     55  C8  50X d   1       8.416   2.926  32.158  0.00  0.00    -0.053 A 
ATOM     56  N14 50X d   1      10.665   3.893  31.500  0.00  0.00    -0.225 NA
ATOM     57  C9  50X d   1       7.038   3.268  32.416  0.00  0.00    -0.081 A 
ATOM     58  H   50X d   1       8.755   1.893  32.234  0.00  0.00     0.087 H 
ATOM     59  C10 50X d   1       6.584   4.630  32.350  0.00  0.00    -0.081 A 
ATOM     60  H   50X d   1       6.329   2.479  32.666  0.00  0.00     0.083 H 
ATOM     61  H   50X d   1       5.552   4.882  32.594  0.00  0.00     0.083 H 
ATOM     62  C13 50X d   1      11.075   5.115  31.207  0.00  0.00     0.216 A 
ATOM     63  H   50X d   1       7.164   6.676  31.866  0.00  0.00     0.087 H 
BRANCH  62  64
ATOM     64  C31 50X d   1      12.507   5.462  30.831  0.00  0.00     0.451 C 
ATOM     65  F32 50X d   1      13.171   4.324  30.588  0.00  0.00    -0.163 F 
ATOM     66  F33 50X d   1      12.615   6.245  29.655  0.00  0.00    -0.163 F 
ATOM     67  F34 50X d   1      13.160   6.045  31.931  0.00  0.00    -0.163 F 
ENDBRANCH  62  64
ENDBRANCH  48  51
ENDBRANCH  43  48
ENDBRANCH  38  41
ENDBRANCH   3  38
TORSDOF 11
