REMARK  5 active torsions:
REMARK  status: ('A' for Active; 'I' for Inactive)
REMARK    1  A    between atoms: N3_9  and  C21_28 
REMARK    2  A    between atoms: C19_26  and  N4_11 
REMARK    3  A    between atoms: C12_19  and  C13_20 
REMARK    4  A    between atoms: C20_27  and  C14_21 
REMARK    5  A    between atoms: C15_22  and  C20_27 
ROOT
ATOM      1  O1  Z81 d   1      14.174  -6.322  18.882  0.00  0.00    -0.269 OA
ATOM      2  N2  Z81 d   1      14.699  -6.924  15.437  0.00  0.00    -0.199 N 
ATOM      3  N3  Z81 d   1      15.262  -5.475  17.050  0.00  0.00    -0.153 N 
ATOM      4  C18 Z81 d   1      14.495  -6.388  17.709  0.00  0.00     0.276 A 
ATOM      5  C19 Z81 d   1      15.388  -5.871  15.756  0.00  0.00     0.677 A 
ATOM      6  C20 Z81 d   1      14.085  -7.471  16.685  0.00  0.00     0.184 A 
ATOM      7  H   Z81 d   1      14.595  -7.310  14.499  0.00  0.00     0.179 HD
ENDROOT
BRANCH   6   8
ATOM      8  C14 Z81 d   1      12.560  -7.487  16.537  0.00  0.00    -0.015 A 
ATOM      9  C3  Z81 d   1      11.795  -8.626  16.811  0.00  0.00    -0.074 A 
ATOM     10  C1  Z81 d   1      10.403  -8.553  16.675  0.00  0.00    -0.082 A 
ATOM     11  H   Z81 d   1      12.274  -9.554  17.125  0.00  0.00     0.084 H 
ATOM     12  C2  Z81 d   1       9.794  -7.359  16.263  0.00  0.00    -0.072 A 
ATOM     13  H   Z81 d   1       9.790  -9.428  16.890  0.00  0.00     0.083 H 
ATOM     14  C12 Z81 d   1      10.573  -6.231  15.995  0.00  0.00    -0.022 A 
ATOM     15  H   Z81 d   1       8.711  -7.311  16.152  0.00  0.00     0.084 H 
ATOM     16  C8  Z81 d   1      11.950  -6.309  16.131  0.00  0.00    -0.063 A 
ATOM     17  H   Z81 d   1      12.562  -5.433  15.916  0.00  0.00     0.085 H 
BRANCH  14  18
ATOM     18  C13 Z81 d   1      10.012  -4.962  15.566  0.00  0.00     0.016 A 
ATOM     19  C9  Z81 d   1      10.481  -4.374  14.388  0.00  0.00    -0.032 A 
ATOM     20  C16 Z81 d   1       9.944  -3.150  13.974  0.00  0.00     0.117 A 
ATOM     21  H   Z81 d   1      11.256  -4.863  13.799  0.00  0.00     0.089 H 
ATOM     22  F1  Z81 d   1      10.388  -2.569  12.855  0.00  0.00    -0.206 F 
ATOM     23  C4  Z81 d   1       8.952  -2.513  14.729  0.00  0.00    -0.043 A 
ATOM     24  C5  Z81 d   1       8.489  -3.105  15.903  0.00  0.00    -0.042 A 
ATOM     25  H   Z81 d   1       8.543  -1.558  14.400  0.00  0.00     0.088 H 
ATOM     26  C17 Z81 d   1       9.021  -4.327  16.321  0.00  0.00     0.127 A 
ATOM     27  H   Z81 d   1       7.714  -2.616  16.493  0.00  0.00     0.088 H 
ATOM     28  F2  Z81 d   1       8.557  -4.879  17.457  0.00  0.00    -0.205 F 
ENDBRANCH  14  18
ENDBRANCH   6   8
BRANCH   6  29
ATOM     29  C15 Z81 d   1      14.637  -8.871  17.009  0.00  0.00    -0.013 A 
ATOM     30  C6  Z81 d   1      14.745  -9.298  18.322  0.00  0.00    -0.057 A 
ATOM     31  C10 Z81 d   1      15.243 -10.576  18.545  0.00  0.00     0.002 A 
ATOM     32  H   Z81 d   1      14.450  -8.655  19.151  0.00  0.00     0.086 H 
ATOM     33  N1  Z81 d   1      15.622 -11.431  17.563  0.00  0.00    -0.273 NA
ATOM     34  H   Z81 d   1      15.335 -10.914  19.577  0.00  0.00     0.114 H 
ATOM     35  C11 Z81 d   1      15.501 -10.977  16.296  0.00  0.00     0.002 A 
ATOM     36  C7  Z81 d   1      15.014  -9.717  15.969  0.00  0.00    -0.057 A 
ATOM     37  H   Z81 d   1      15.803 -11.637  15.483  0.00  0.00     0.114 H 
ATOM     38  H   Z81 d   1      14.930  -9.400  14.929  0.00  0.00     0.086 H 
ENDBRANCH   6  29
BRANCH   5  39
ATOM     39  N4  Z81 d   1      16.169  -5.175  14.882  0.00  0.00    -0.234 N 
ATOM     40  H   Z81 d   1      16.670  -4.344  15.196  0.00  0.00     0.174 HD
ATOM     41  H   Z81 d   1      16.253  -5.486  13.914  0.00  0.00     0.174 HD
ENDBRANCH   5  39
BRANCH   3  42
ATOM     42  C21 Z81 d   1      15.834  -4.294  17.698  0.00  0.00     0.005 C 
ATOM     43  H   Z81 d   1      15.030  -3.676  18.099  0.00  0.00     0.058 H 
ATOM     44  H   Z81 d   1      16.492  -4.609  18.508  0.00  0.00     0.058 H 
ATOM     45  H   Z81 d   1      16.404  -3.721  16.967  0.00  0.00     0.058 H 
ENDBRANCH   3  42
TORSDOF 5
