REMARK  6 active torsions:
REMARK  status: ('A' for Active; 'I' for Inactive)
REMARK    1  A    between atoms: N1_1  and  C7_6 
REMARK    2  A    between atoms: C9_27  and  N3_2 
REMARK    3  A    between atoms: C4_3  and  C8_7 
REMARK    4  A    between atoms: C19_21  and  C20_12 
REMARK       I    between atoms: C21_13  and  N4_17 
REMARK    5  A    between atoms: C16_19  and  C21_13 
REMARK    6  A    between atoms: N4_17  and  C22_14 
ROOT
ATOM      1  N1  LHJ d   1      -0.971  10.979  29.903  0.00  0.00    -0.302 N 
ATOM      2  N3  LHJ d   1       0.060   8.718  29.287  0.00  0.00    -0.214 N 
ATOM      3  C4  LHJ d   1      -3.148  11.241  28.831  0.00  0.00     0.044 A 
ATOM      4  C5  LHJ d   1      -3.007   9.988  28.239  0.00  0.00    -0.052 A 
ATOM      5  C6  LHJ d   1      -1.496   8.034  28.050  0.00  0.00     0.036 A 
ATOM      6  C3  LHJ d   1      -2.134  11.744  29.657  0.00  0.00     0.260 A 
ATOM      7  O1  LHJ d   1      -2.253  12.854  30.176  0.00  0.00    -0.267 OA
ATOM      8  C2  LHJ d   1      -0.846   9.700  29.295  0.00  0.00     0.146 A 
ATOM      9  C1  LHJ d   1      -1.868   9.229  28.477  0.00  0.00     0.030 A 
ATOM     10  N2  LHJ d   1      -0.302   7.779  28.578  0.00  0.00    -0.177 NA
ATOM     11  H   LHJ d   1      -3.792   9.602  27.588  0.00  0.00     0.086 H 
ATOM     12  H   LHJ d   1      -2.063   7.379  27.388  0.00  0.00     0.118 H 
ENDROOT
BRANCH   3  13
ATOM     13  C8  LHJ d   1      -4.299  11.979  28.562  0.00  0.00    -0.013 A 
ATOM     14  C15 LHJ d   1      -4.233  12.924  27.542  0.00  0.00    -0.056 A 
ATOM     15  C16 LHJ d   1      -5.340  13.699  27.213  0.00  0.00     0.032 A 
ATOM     16  H   LHJ d   1      -3.301  13.058  26.994  0.00  0.00     0.086 H 
ATOM     17  C17 LHJ d   1      -6.535  13.526  27.908  0.00  0.00    -0.067 A 
ATOM     18  C18 LHJ d   1      -6.610  12.577  28.929  0.00  0.00    -0.075 A 
ATOM     19  H   LHJ d   1      -7.407  14.129  27.656  0.00  0.00     0.085 H 
ATOM     20  C19 LHJ d   1      -5.497  11.800  29.258  0.00  0.00    -0.051 A 
ATOM     21  H   LHJ d   1      -7.544  12.441  29.474  0.00  0.00     0.084 H 
BRANCH  15  22
ATOM     22  C21 LHJ d   1      -5.204  14.720  26.087  0.00  0.00     0.252 C 
ATOM     23  N4  LHJ d   1      -6.275  15.472  25.858  0.00  0.00    -0.352 N 
ATOM     24  H   LHJ d   1      -7.110  15.332  26.427  0.00  0.00     0.163 HD
ATOM     25  O2  LHJ d   1      -4.154  14.808  25.451  0.00  0.00    -0.268 OA
BRANCH  23  26
ATOM     26  C22 LHJ d   1      -6.290  16.503  24.806  0.00  0.00     0.012 A 
ATOM     27  C24 LHJ d   1      -7.608  16.673  24.055  0.00  0.00    -0.044 A 
ATOM     28  C23 LHJ d   1      -6.428  15.980  23.376  0.00  0.00    -0.044 A 
ATOM     29  H   LHJ d   1      -8.328  17.462  23.837  0.00  0.00     0.036 H 
ATOM     30  H   LHJ d   1      -8.671  16.500  24.221  0.00  0.00     0.036 H 
ATOM     31  H   LHJ d   1      -6.228  15.067  22.816  0.00  0.00     0.036 H 
ATOM     32  H   LHJ d   1      -5.885  16.026  22.432  0.00  0.00     0.036 H 
ATOM     33  H   LHJ d   1      -5.607  17.177  25.323  0.00  0.00     0.072 H 
ENDBRANCH  23  26
ENDBRANCH  15  22
BRANCH  20  34
ATOM     34  C20 LHJ d   1      -5.605  10.766  30.385  0.00  0.00    -0.050 C 
ATOM     35  H   LHJ d   1      -5.866  11.270  31.315  0.00  0.00     0.033 H 
ATOM     36  H   LHJ d   1      -6.377  10.038  30.136  0.00  0.00     0.033 H 
ATOM     37  H   LHJ d   1      -4.648  10.257  30.502  0.00  0.00     0.033 H 
ENDBRANCH  20  34
ENDBRANCH   3  13
BRANCH   1  38
ATOM     38  C7  LHJ d   1       0.084  11.539  30.786  0.00  0.00    -0.009 C 
ATOM     39  H   LHJ d   1       0.454  12.472  30.361  0.00  0.00     0.057 H 
ATOM     40  H   LHJ d   1      -0.334  11.729  31.774  0.00  0.00     0.057 H 
ATOM     41  H   LHJ d   1       0.904  10.825  30.868  0.00  0.00     0.057 H 
ENDBRANCH   1  38
BRANCH   2  42
ATOM     42  C9  LHJ d   1       1.234   8.696  29.911  0.00  0.00     0.099 A 
ATOM     43  C10 LHJ d   1       2.327   9.321  29.308  0.00  0.00     0.148 A 
ATOM     44  C11 LHJ d   1       3.574   9.311  29.926  0.00  0.00    -0.006 A 
ATOM     45  F1  LHJ d   1       2.175   9.953  28.128  0.00  0.00    -0.203 F 
ATOM     46  C12 LHJ d   1       3.721   8.658  31.143  0.00  0.00     0.119 A 
ATOM     47  H   LHJ d   1       4.425   9.809  29.461  0.00  0.00     0.093 H 
ATOM     48  C13 LHJ d   1       2.638   8.022  31.748  0.00  0.00    -0.043 A 
ATOM     49  F2  LHJ d   1       4.923   8.642  31.736  0.00  0.00    -0.206 F 
ATOM     50  C14 LHJ d   1       1.388   8.037  31.131  0.00  0.00    -0.049 A 
ATOM     51  H   LHJ d   1       2.768   7.513  32.703  0.00  0.00     0.088 H 
ATOM     52  H   LHJ d   1       0.538   7.538  31.598  0.00  0.00     0.087 H 
ENDBRANCH   2  42
TORSDOF 6
