REMARK  18 active torsions:
REMARK  status: ('A' for Active; 'I' for Inactive)
REMARK    1  A    between atoms: C1_1  and  C2_2 
REMARK    2  A    between atoms: C2_2  and  C3_3 
REMARK    3  A    between atoms: C3_3  and  C4_4 
REMARK    4  A    between atoms: C3_3  and  O19_19 
REMARK    5  A    between atoms: C3_3  and  C20_20 
REMARK    6  A    between atoms: C4_4  and  C5_5 
REMARK       I    between atoms: C5_5  and  N6_6 
REMARK    7  A    between atoms: N6_6  and  C7_7 
REMARK    8  A    between atoms: C7_7  and  C8_8 
REMARK    9  A    between atoms: C7_7  and  C24_24 
REMARK   10  A    between atoms: C8_8  and  C9_9 
REMARK   11  A    between atoms: C9_9  and  C10_10 
REMARK   12  A    between atoms: C10_10  and  N11_11 
REMARK       I    between atoms: N11_11  and  C12_12 
REMARK   13  A    between atoms: C12_12  and  C13_13 
REMARK   14  A    between atoms: C13_13  and  C14_14 
REMARK   15  A    between atoms: C14_14  and  C15_15 
REMARK   16  A    between atoms: C14_14  and  C28_28 
REMARK   17  A    between atoms: C14_14  and  O29_29 
REMARK   18  A    between atoms: C15_15  and  C16_16 
ROOT
ATOM      1  C8  SF8 d   1       5.244 -11.033  12.576  0.00  0.00    -0.035 C 
ATOM      2  H7  SF8 d   1       5.867 -11.937  12.503  0.00  0.00     0.036 H 
ATOM      3  H8  SF8 d   1       4.466 -11.184  13.338  0.00  0.00     0.036 H 
ENDROOT
BRANCH   1   4
ATOM      4  C7  SF8 d   1       4.596 -10.738  11.223  0.00  0.00     0.096 C 
ATOM      5  H6  SF8 d   1       3.849  -9.940  11.349  0.00  0.00     0.089 H 
BRANCH   4   6
ATOM      6  N6  SF8 d   1       5.614 -10.272  10.282  0.00  0.00    -0.346 N 
ATOM      7  C5  SF8 d   1       5.636  -9.103   9.617  0.00  0.00     0.221 C 
ATOM      8  O23 SF8 d   1       4.726  -8.296   9.630  0.00  0.00    -0.273 OA
ATOM      9  H5  SF8 d   1       6.380 -10.892  10.114  0.00  0.00     0.163 HD
BRANCH   7  10
ATOM     10  C4  SF8 d   1       6.880  -8.810   8.806  0.00  0.00     0.048 C 
ATOM     11  H3  SF8 d   1       7.556  -9.677   8.855  0.00  0.00     0.052 H 
ATOM     12  H4  SF8 d   1       6.594  -8.627   7.760  0.00  0.00     0.052 H 
BRANCH  10  13
ATOM     13  C3  SF8 d   1       7.597  -7.589   9.346  0.00  0.00     0.163 C 
BRANCH  13  14
ATOM     14  C2  SF8 d   1       9.024  -7.565   8.745  0.00  0.00     0.054 C 
ATOM     15  H1  SF8 d   1       9.428  -8.581   8.867  0.00  0.00     0.054 H 
ATOM     16  H2  SF8 d   1       8.905  -7.344   7.674  0.00  0.00     0.054 H 
BRANCH  14  17
ATOM     17  C1  SF8 d   1      10.102  -6.605   9.267  0.00  0.00     0.176 C 
ATOM     18  O17 SF8 d   1      11.197  -6.685   8.687  0.00  0.00    -0.648 OA
ATOM     19  O18 SF8 d   1       9.866  -5.845  10.260  0.00  0.00    -0.648 OA
ENDBRANCH  14  17
ENDBRANCH  13  14
BRANCH  13  20
ATOM     20  O19 SF8 d   1       7.655  -7.660  10.798  0.00  0.00    -0.378 OA
ATOM     21  H18 SF8 d   1       8.105  -6.894  11.134  0.00  0.00     0.211 HD
ENDBRANCH  13  20
BRANCH  13  22
ATOM     22  C20 SF8 d   1       6.969  -6.241   8.969  0.00  0.00     0.210 C 
ATOM     23  O21 SF8 d   1       6.452  -6.115   7.842  0.00  0.00    -0.646 OA
ATOM     24  O22 SF8 d   1       7.009  -5.251   9.772  0.00  0.00    -0.646 OA
ENDBRANCH  13  22
ENDBRANCH  10  13
ENDBRANCH   7  10
ENDBRANCH   4   6
BRANCH   4  25
ATOM     25  C24 SF8 d   1       3.892 -11.979  10.739  0.00  0.00     0.196 C 
ATOM     26  O25 SF8 d   1       2.862 -12.374  11.336  0.00  0.00    -0.646 OA
ATOM     27  O26 SF8 d   1       4.357 -12.588   9.750  0.00  0.00    -0.646 OA
ENDBRANCH   4  25
ENDBRANCH   1   4
BRANCH   1  28
ATOM     28  C9  SF8 d   1       6.108  -9.838  12.949  0.00  0.00    -0.048 C 
ATOM     29  H9  SF8 d   1       5.611  -8.928  12.582  0.00  0.00     0.035 H 
ATOM     30  H10 SF8 d   1       7.082  -9.951  12.450  0.00  0.00     0.035 H 
BRANCH  28  31
ATOM     31  C10 SF8 d   1       6.354  -9.674  14.428  0.00  0.00    -0.005 C 
ATOM     32  H11 SF8 d   1       6.939 -10.527  14.803  0.00  0.00     0.064 H 
ATOM     33  H12 SF8 d   1       5.393  -9.626  14.961  0.00  0.00     0.064 H 
BRANCH  31  34
ATOM     34  N11 SF8 d   1       7.097  -8.435  14.642  0.00  0.00    -0.361 N 
ATOM     35  C12 SF8 d   1       6.996  -7.653  15.736  0.00  0.00     0.221 C 
ATOM     36  O27 SF8 d   1       6.249  -7.958  16.652  0.00  0.00    -0.274 OA
ATOM     37  H13 SF8 d   1       7.728  -8.145  13.923  0.00  0.00     0.162 HD
BRANCH  35  38
ATOM     38  C13 SF8 d   1       7.867  -6.370  15.790  0.00  0.00     0.048 C 
ATOM     39  H14 SF8 d   1       8.863  -6.640  16.172  0.00  0.00     0.052 H 
ATOM     40  H15 SF8 d   1       7.392  -5.655  16.478  0.00  0.00     0.052 H 
BRANCH  38  41
ATOM     41  C14 SF8 d   1       8.037  -5.692  14.423  0.00  0.00     0.163 C 
BRANCH  41  42
ATOM     42  C15 SF8 d   1       8.851  -4.422  14.631  0.00  0.00     0.054 C 
ATOM     43  H16 SF8 d   1       9.752  -4.697  15.198  0.00  0.00     0.054 H 
ATOM     44  H17 SF8 d   1       8.238  -3.731  15.229  0.00  0.00     0.054 H 
BRANCH  42  45
ATOM     45  C16 SF8 d   1       9.313  -3.658  13.368  0.00  0.00     0.176 C 
ATOM     46  O32 SF8 d   1       8.949  -3.870  12.232  0.00  0.00    -0.648 OA
ATOM     47  O33 SF8 d   1      10.029  -2.692  13.509  0.00  0.00    -0.648 OA
ENDBRANCH  42  45
ENDBRANCH  41  42
BRANCH  41  48
ATOM     48  C28 SF8 d   1       6.700  -5.310  13.843  0.00  0.00     0.210 C 
ATOM     49  O30 SF8 d   1       6.498  -5.381  12.613  0.00  0.00    -0.646 OA
ATOM     50  O31 SF8 d   1       5.810  -5.009  14.624  0.00  0.00    -0.646 OA
ENDBRANCH  41  48
BRANCH  41  51
ATOM     51  O29 SF8 d   1       8.708  -6.503  13.474  0.00  0.00    -0.378 OA
ATOM     52  H19 SF8 d   1       8.788  -6.029  12.654  0.00  0.00     0.211 HD
ENDBRANCH  41  51
ENDBRANCH  38  41
ENDBRANCH  35  38
ENDBRANCH  31  34
ENDBRANCH  28  31
ENDBRANCH   1  28
TORSDOF 18
