REMARK  18 active torsions:
REMARK  status: ('A' for Active; 'I' for Inactive)
REMARK    1  A    between atoms: C1_1  and  C2_2 
REMARK    2  A    between atoms: C2_2  and  C3_3 
REMARK    3  A    between atoms: C3_3  and  C4_4 
REMARK    4  A    between atoms: C3_3  and  O19_19 
REMARK    5  A    between atoms: C3_3  and  C20_20 
REMARK    6  A    between atoms: C4_4  and  C5_5 
REMARK       I    between atoms: C5_5  and  N6_6 
REMARK    7  A    between atoms: N6_6  and  C7_7 
REMARK    8  A    between atoms: C7_7  and  C8_8 
REMARK    9  A    between atoms: C7_7  and  C24_24 
REMARK   10  A    between atoms: C8_8  and  C9_9 
REMARK   11  A    between atoms: C9_9  and  C10_10 
REMARK   12  A    between atoms: C10_10  and  N11_11 
REMARK       I    between atoms: N11_11  and  C12_12 
REMARK   13  A    between atoms: C12_12  and  C13_13 
REMARK   14  A    between atoms: C13_13  and  C14_14 
REMARK   15  A    between atoms: C14_14  and  C15_15 
REMARK   16  A    between atoms: C14_14  and  C28_28 
REMARK   17  A    between atoms: C14_14  and  O29_29 
REMARK   18  A    between atoms: C15_15  and  C16_16 
ROOT
ATOM      1  C8  SF8 d   1      -1.811  -0.630   7.389  0.00  0.00    -0.035 C 
ATOM      2  H7  SF8 d   1      -2.179  -1.084   8.321  0.00  0.00     0.036 H 
ATOM      3  H8  SF8 d   1      -1.044   0.123   7.625  0.00  0.00     0.036 H 
ENDROOT
BRANCH   1   4
ATOM      4  C7  SF8 d   1      -2.973   0.037   6.652  0.00  0.00     0.096 C 
ATOM      5  H6  SF8 d   1      -2.639   0.195   5.616  0.00  0.00     0.089 H 
BRANCH   4   6
ATOM      6  N6  SF8 d   1      -4.153  -0.828   6.580  0.00  0.00    -0.346 N 
ATOM      7  C5  SF8 d   1      -4.652  -1.229   5.397  0.00  0.00     0.221 C 
ATOM      8  O23 SF8 d   1      -4.272  -0.769   4.325  0.00  0.00    -0.273 OA
ATOM      9  H5  SF8 d   1      -4.596  -1.126   7.426  0.00  0.00     0.163 HD
BRANCH   7  10
ATOM     10  C4  SF8 d   1      -5.743  -2.285   5.381  0.00  0.00     0.048 C 
ATOM     11  H3  SF8 d   1      -6.324  -2.182   6.310  0.00  0.00     0.052 H 
ATOM     12  H4  SF8 d   1      -6.394  -2.083   4.517  0.00  0.00     0.052 H 
BRANCH  10  13
ATOM     13  C3  SF8 d   1      -5.269  -3.753   5.281  0.00  0.00     0.163 C 
BRANCH  13  14
ATOM     14  C2  SF8 d   1      -6.255  -4.684   6.010  0.00  0.00     0.054 C 
ATOM     15  H1  SF8 d   1      -6.460  -4.254   7.002  0.00  0.00     0.054 H 
ATOM     16  H2  SF8 d   1      -7.186  -4.718   5.426  0.00  0.00     0.054 H 
BRANCH  14  17
ATOM     17  C1  SF8 d   1      -5.766  -6.123   6.208  0.00  0.00     0.176 C 
ATOM     18  O17 SF8 d   1      -6.589  -6.959   6.613  0.00  0.00    -0.648 OA
ATOM     19  O18 SF8 d   1      -4.592  -6.466   5.973  0.00  0.00    -0.648 OA
ENDBRANCH  14  17
ENDBRANCH  13  14
BRANCH  13  20
ATOM     20  O19 SF8 d   1      -3.990  -3.894   5.868  0.00  0.00    -0.378 OA
ATOM     21  H18 SF8 d   1      -3.710  -4.799   5.801  0.00  0.00     0.211 HD
ENDBRANCH  13  20
BRANCH  13  22
ATOM     22  C20 SF8 d   1      -5.076  -4.189   3.853  0.00  0.00     0.210 C 
ATOM     23  O21 SF8 d   1      -5.999  -3.999   3.015  0.00  0.00    -0.646 OA
ATOM     24  O22 SF8 d   1      -3.971  -4.719   3.563  0.00  0.00    -0.646 OA
ENDBRANCH  13  22
ENDBRANCH  10  13
ENDBRANCH   7  10
ENDBRANCH   4   6
BRANCH   4  25
ATOM     25  C24 SF8 d   1      -3.288   1.418   7.222  0.00  0.00     0.196 C 
ATOM     26  O25 SF8 d   1      -2.581   1.894   8.158  0.00  0.00    -0.646 OA
ATOM     27  O26 SF8 d   1      -4.254   2.055   6.710  0.00  0.00    -0.646 OA
ENDBRANCH   4  25
ENDBRANCH   1   4
BRANCH   1  28
ATOM     28  C9  SF8 d   1      -1.203  -1.719   6.493  0.00  0.00    -0.048 C 
ATOM     29  H9  SF8 d   1      -1.115  -1.329   5.468  0.00  0.00     0.035 H 
ATOM     30  H10 SF8 d   1      -1.868  -2.595   6.496  0.00  0.00     0.035 H 
BRANCH  28  31
ATOM     31  C10 SF8 d   1       0.163  -2.140   6.975  0.00  0.00    -0.005 C 
ATOM     32  H11 SF8 d   1       0.275  -1.854   8.031  0.00  0.00     0.064 H 
ATOM     33  H12 SF8 d   1       0.929  -1.629   6.373  0.00  0.00     0.064 H 
BRANCH  31  34
ATOM     34  N11 SF8 d   1       0.345  -3.576   6.852  0.00  0.00    -0.361 N 
ATOM     35  C12 SF8 d   1       1.444  -4.166   6.405  0.00  0.00     0.221 C 
ATOM     36  O27 SF8 d   1       2.555  -3.627   6.371  0.00  0.00    -0.274 OA
ATOM     37  H13 SF8 d   1      -0.417  -4.164   7.125  0.00  0.00     0.162 HD
BRANCH  35  38
ATOM     38  C13 SF8 d   1       1.269  -5.625   5.992  0.00  0.00     0.048 C 
ATOM     39  H14 SF8 d   1       1.289  -6.247   6.899  0.00  0.00     0.052 H 
ATOM     40  H15 SF8 d   1       2.108  -5.904   5.338  0.00  0.00     0.052 H 
BRANCH  38  41
ATOM     41  C14 SF8 d   1      -0.046  -5.904   5.240  0.00  0.00     0.163 C 
BRANCH  41  42
ATOM     42  C15 SF8 d   1      -0.029  -7.402   4.865  0.00  0.00     0.054 C 
ATOM     43  H16 SF8 d   1       0.137  -7.972   5.791  0.00  0.00     0.054 H 
ATOM     44  H17 SF8 d   1       0.817  -7.561   4.181  0.00  0.00     0.054 H 
BRANCH  42  45
ATOM     45  C16 SF8 d   1      -1.270  -7.972   4.195  0.00  0.00     0.176 C 
ATOM     46  O32 SF8 d   1      -2.286  -7.257   3.979  0.00  0.00    -0.648 OA
ATOM     47  O33 SF8 d   1      -1.231  -9.185   3.856  0.00  0.00    -0.648 OA
ENDBRANCH  42  45
ENDBRANCH  41  42
BRANCH  41  48
ATOM     48  C28 SF8 d   1      -0.238  -4.970   4.054  0.00  0.00     0.210 C 
ATOM     49  O30 SF8 d   1      -1.378  -4.512   3.853  0.00  0.00    -0.646 OA
ATOM     50  O31 SF8 d   1       0.690  -4.650   3.290  0.00  0.00    -0.646 OA
ENDBRANCH  41  48
BRANCH  41  51
ATOM     51  O29 SF8 d   1      -1.200  -5.631   6.041  0.00  0.00    -0.378 OA
ATOM     52  H19 SF8 d   1      -1.984  -5.845   5.549  0.00  0.00     0.211 HD
ENDBRANCH  41  51
ENDBRANCH  38  41
ENDBRANCH  35  38
ENDBRANCH  31  34
ENDBRANCH  28  31
ENDBRANCH   1  28
TORSDOF 18
