REMARK  15 active torsions:
REMARK  status: ('A' for Active; 'I' for Inactive)
REMARK    1  A    between atoms: C2_4  and  C1_1 
REMARK       I    between atoms: C1_1  and  N9_17 
REMARK    2  A    between atoms: N1_2  and  C2_4 
REMARK       I    between atoms: C6_11  and  N1_2 
REMARK    3  A    between atoms: C2_4  and  C3_7 
REMARK    4  A    between atoms: N2_5  and  C7_12 
REMARK       I    between atoms: C11_20  and  N2_5 
REMARK    5  A    between atoms: C3_7  and  C4_8 
REMARK    6  A    between atoms: C4_8  and  C5_10 
REMARK    7  A    between atoms: C7_12  and  C6_11 
REMARK    8  A    between atoms: C7_12  and  C8_14 
REMARK    9  A    between atoms: C8_14  and  C9_16 
REMARK   10  A    between atoms: C9_16  and  C10_19 
REMARK   11  A    between atoms: C12_21  and  C11_20 
REMARK   12  A    between atoms: C13_22  and  C12_21 
REMARK   13  A    between atoms: C27_36  and  C13_22 
REMARK   14  A    between atoms: C16_25  and  C18_27 
REMARK   15  A    between atoms: C20_29  and  C21_30 
ROOT
ATOM      1  N2  EEG d   1       7.890  27.278   4.436  0.00  0.00    -0.348 N 
ATOM      2  O2  EEG d   1       9.828  26.004   4.501  0.00  0.00    -0.274 OA
ATOM      3  C11 EEG d   1       8.734  26.158   4.048  0.00  0.00     0.218 C 
ATOM      4  H3  EEG d   1       6.903  27.245   4.277  0.00  0.00     0.163 HD
ENDROOT
BRANCH   3   5
ATOM      5  C12 EEG d   1       8.024  25.024   3.307  0.00  0.00     0.013 C 
ATOM      6  H15 EEG d   1       8.624  24.759   2.424  0.00  0.00     0.047 H 
ATOM      7  H16 EEG d   1       7.037  25.386   2.985  0.00  0.00     0.047 H 
BRANCH   5   8
ATOM      8  C13 EEG d   1       7.824  23.769   4.144  0.00  0.00    -0.033 C 
ATOM      9  H17 EEG d   1       8.632  23.743   4.890  0.00  0.00     0.040 H 
ATOM     10  H18 EEG d   1       7.922  22.907   3.467  0.00  0.00     0.040 H 
BRANCH   8  11
ATOM     11  C27 EEG d   1       6.500  23.603   4.902  0.00  0.00    -0.058 A 
ATOM     12  C14 EEG d   1       5.208  24.131   4.360  0.00  0.00    -0.076 A 
ATOM     13  C17 EEG d   1       4.003  23.846   5.094  0.00  0.00    -0.071 A 
ATOM     14  H19 EEG d   1       5.181  24.710   3.444  0.00  0.00     0.084 H 
ATOM     15  C16 EEG d   1       4.079  23.064   6.287  0.00  0.00    -0.019 A 
ATOM     16  H21 EEG d   1       3.048  24.221   4.745  0.00  0.00     0.084 H 
ATOM     17  C15 EEG d   1       5.323  22.549   6.799  0.00  0.00    -0.071 A 
ATOM     18  C28 EEG d   1       6.549  22.854   6.056  0.00  0.00    -0.076 A 
ATOM     19  H20 EEG d   1       5.351  21.955   7.705  0.00  0.00     0.084 H 
ATOM     20  H28 EEG d   1       7.502  22.487   6.418  0.00  0.00     0.084 H 
BRANCH  15  21
ATOM     21  C18 EEG d   1       2.813  22.743   7.087  0.00  0.00     0.015 A 
ATOM     22  S7  EEG d   1       2.752  22.374   8.615  0.00  0.00    -0.100 SA
ATOM     23  C29 EEG d   1       1.103  22.129   8.966  0.00  0.00    -0.034 A 
ATOM     24  C20 EEG d   1       0.360  22.342   7.732  0.00  0.00    -0.018 A 
ATOM     25  H29 EEG d   1       0.682  21.862   9.934  0.00  0.00     0.096 H 
ATOM     26  C19 EEG d   1       1.411  22.747   6.493  0.00  0.00    -0.054 A 
ATOM     27  H22 EEG d   1       1.143  22.970   5.461  0.00  0.00     0.086 H 
BRANCH  24  28
ATOM     28  C21 EEG d   1      -1.148  22.294   7.520  0.00  0.00    -0.025 A 
ATOM     29  C22 EEG d   1      -1.913  21.311   8.077  0.00  0.00    -0.072 A 
ATOM     30  C23 EEG d   1      -3.323  21.312   7.824  0.00  0.00    -0.082 A 
ATOM     31  H23 EEG d   1      -1.463  20.545   8.698  0.00  0.00     0.084 H 
ATOM     32  C24 EEG d   1      -3.899  22.317   6.970  0.00  0.00    -0.083 A 
ATOM     33  H24 EEG d   1      -3.956  20.556   8.275  0.00  0.00     0.083 H 
ATOM     34  C25 EEG d   1      -3.094  23.316   6.379  0.00  0.00    -0.082 A 
ATOM     35  H25 EEG d   1      -4.966  22.307   6.778  0.00  0.00     0.083 H 
ATOM     36  C26 EEG d   1      -1.727  23.327   6.623  0.00  0.00    -0.072 A 
ATOM     37  H26 EEG d   1      -3.540  24.069   5.739  0.00  0.00     0.083 H 
ATOM     38  H27 EEG d   1      -1.092  24.078   6.166  0.00  0.00     0.084 H 
ENDBRANCH  24  28
ENDBRANCH  15  21
ENDBRANCH   8  11
ENDBRANCH   5   8
ENDBRANCH   3   5
BRANCH   1  39
ATOM     39  C7  EEG d   1       8.497  28.449   5.059  0.00  0.00     0.090 C 
ATOM     40  H8  EEG d   1       9.566  28.262   5.237  0.00  0.00     0.087 H 
BRANCH  39  41
ATOM     41  C6  EEG d   1       7.793  28.717   6.394  0.00  0.00     0.241 C 
ATOM     42  N1  EEG d   1       8.463  29.525   7.394  0.00  0.00    -0.346 N 
ATOM     43  H1  EEG d   1       9.418  29.807   7.303  0.00  0.00     0.163 HD
ATOM     44  O1  EEG d   1       6.620  28.558   6.477  0.00  0.00    -0.271 OA
BRANCH  42  45
ATOM     45  C2  EEG d   1       7.650  29.894   8.533  0.00  0.00     0.089 C 
ATOM     46  H2  EEG d   1       7.003  29.039   8.779  0.00  0.00     0.087 H 
BRANCH  45  47
ATOM     47  C1  EEG d   1       6.737  31.062   8.153  0.00  0.00     0.238 C 
ATOM     48  N9  EEG d   1       7.057  31.859   6.987  0.00  0.00    -0.368 N 
ATOM     49  H13 EEG d   1       6.468  32.625   6.728  0.00  0.00     0.159 HD
ATOM     50  H14 EEG d   1       7.867  31.643   6.441  0.00  0.00     0.159 HD
ATOM     51  O9  EEG d   1       5.678  31.189   8.672  0.00  0.00    -0.271 OA
ENDBRANCH  45  47
BRANCH  45  52
ATOM     52  C3  EEG d   1       8.527  30.165   9.766  0.00  0.00    -0.029 C 
ATOM     53  H4  EEG d   1       9.494  29.671   9.590  0.00  0.00     0.037 H 
ATOM     54  H5  EEG d   1       8.027  29.697  10.627  0.00  0.00     0.037 H 
BRANCH  52  55
ATOM     55  C4  EEG d   1       8.827  31.616  10.153  0.00  0.00     0.018 C 
ATOM     56  H6  EEG d   1       8.089  31.910  10.914  0.00  0.00     0.049 H 
ATOM     57  H7  EEG d   1       8.688  32.230   9.251  0.00  0.00     0.049 H 
BRANCH  55  58
ATOM     58  C5  EEG d   1      10.215  31.942  10.715  0.00  0.00     0.172 C 
ATOM     59  O8  EEG d   1      11.059  32.783   9.979  0.00  0.00    -0.648 OA
ATOM     60  O8E EEG d   1      10.692  31.243  11.547  0.00  0.00    -0.648 OA
ENDBRANCH  55  58
ENDBRANCH  52  55
ENDBRANCH  45  52
ENDBRANCH  42  45
ENDBRANCH  39  41
BRANCH  39  61
ATOM     61  C8  EEG d   1       8.339  29.662   4.129  0.00  0.00    -0.029 C 
ATOM     62  H9  EEG d   1       7.670  30.375   4.632  0.00  0.00     0.037 H 
ATOM     63  H10 EEG d   1       7.865  29.305   3.203  0.00  0.00     0.037 H 
BRANCH  61  64
ATOM     64  C9  EEG d   1       9.594  30.425   3.729  0.00  0.00     0.018 C 
ATOM     65  H11 EEG d   1      10.270  29.720   3.222  0.00  0.00     0.049 H 
ATOM     66  H12 EEG d   1      10.072  30.794   4.649  0.00  0.00     0.049 H 
BRANCH  64  67
ATOM     67  C10 EEG d   1       9.382  31.618   2.802  0.00  0.00     0.172 C 
ATOM     68  O4  EEG d   1       8.733  31.426   1.583  0.00  0.00    -0.648 OA
ATOM     69  O4E EEG d   1       9.589  32.713   3.198  0.00  0.00    -0.648 OA
ENDBRANCH  64  67
ENDBRANCH  61  64
ENDBRANCH  39  61
ENDBRANCH   1  39
TORSDOF 15
