REMARK  15 active torsions:
REMARK  status: ('A' for Active; 'I' for Inactive)
REMARK    1  A    between atoms: C1_1  and  C2_5 
REMARK    2  A    between atoms: C12_21  and  C1_1 
REMARK       I    between atoms: N1_2  and  C14_25 
REMARK    3  A    between atoms: C24_35  and  N1_2 
REMARK    4  A    between atoms: C2_5  and  C3_8 
REMARK       I    between atoms: N2_6  and  C12_21 
REMARK    5  A    between atoms: C13_24  and  N2_6 
REMARK    6  A    between atoms: C5_11  and  C6_12 
REMARK    7  A    between atoms: C9_16  and  C18_29 
REMARK       I    between atoms: C28_39  and  N9_17 
REMARK    8  A    between atoms: C14_25  and  C13_24 
REMARK    9  A    between atoms: C13_24  and  C15_26 
REMARK   10  A    between atoms: C15_26  and  C16_27 
REMARK   11  A    between atoms: C16_27  and  C17_28 
REMARK   12  A    between atoms: C25_36  and  C24_35 
REMARK   13  A    between atoms: C24_35  and  C28_39 
REMARK   14  A    between atoms: C26_37  and  C25_36 
REMARK   15  A    between atoms: C26_37  and  C27_38 
ROOT
ATOM      1  N2  EEA d   1       7.960  27.125   4.717  0.00  0.00    -0.348 N 
ATOM      2  O2  EEA d   1       9.840  25.792   4.568  0.00  0.00    -0.274 OA
ATOM      3  C12 EEA d   1       8.725  25.995   4.206  0.00  0.00     0.218 C 
ATOM      4  H6  EEA d   1       6.976  27.194   4.551  0.00  0.00     0.163 HD
ENDROOT
BRANCH   3   5
ATOM      5  C1  EEA d   1       7.927  24.886   3.526  0.00  0.00     0.015 C 
ATOM      6  H1  EEA d   1       6.870  25.186   3.465  0.00  0.00     0.047 H 
ATOM      7  H2  EEA d   1       8.322  24.725   2.512  0.00  0.00     0.047 H 
BRANCH   5   8
ATOM      8  C2  EEA d   1       8.035  23.592   4.316  0.00  0.00    -0.010 C 
ATOM      9  H4  EEA d   1       8.859  23.715   5.034  0.00  0.00     0.043 H 
ATOM     10  H5  EEA d   1       8.287  22.794   3.603  0.00  0.00     0.043 H 
BRANCH   8  11
ATOM     11  C3  EEA d   1       6.806  23.124   5.108  0.00  0.00     0.081 A 
ATOM     12  C4  EEA d   1       5.392  23.650   5.067  0.00  0.00    -0.021 A 
ATOM     13  C5  EEA d   1       4.662  22.801   5.938  0.00  0.00     0.097 A 
ATOM     14  H7  EEA d   1       5.015  24.496   4.494  0.00  0.00     0.091 H 
ATOM     15  N12 EEA d   1       5.510  21.828   6.505  0.00  0.00    -0.128 NA
ATOM     16  O12 EEA d   1       6.852  22.069   5.961  0.00  0.00    -0.217 OA
BRANCH  13  17
ATOM     17  C6  EEA d   1       3.186  22.815   6.275  0.00  0.00    -0.005 A 
ATOM     18  C7  EEA d   1       2.779  22.003   7.472  0.00  0.00    -0.070 A 
ATOM     19  C8  EEA d   1       1.415  21.968   7.825  0.00  0.00    -0.071 A 
ATOM     20  H8  EEA d   1       3.516  21.457   8.050  0.00  0.00     0.084 H 
ATOM     21  C9  EEA d   1       0.476  22.670   7.016  0.00  0.00    -0.026 A 
ATOM     22  H9  EEA d   1       1.086  21.416   8.698  0.00  0.00     0.084 H 
ATOM     23  C10 EEA d   1       0.879  23.447   5.854  0.00  0.00    -0.071 A 
ATOM     24  C11 EEA d   1       2.273  23.498   5.467  0.00  0.00    -0.070 A 
ATOM     25  H12 EEA d   1       0.136  23.987   5.279  0.00  0.00     0.084 H 
ATOM     26  H13 EEA d   1       2.595  24.043   4.587  0.00  0.00     0.084 H 
BRANCH  21  27
ATOM     27  C18 EEA d   1      -0.985  22.705   7.461  0.00  0.00    -0.024 C 
ATOM     28  C19 EEA d   1      -1.242  22.697   8.927  0.00  0.00    -0.051 C 
ATOM     29  C20 EEA d   1      -2.523  22.802   9.400  0.00  0.00     0.034 C 
ATOM     30  H19 EEA d   1      -0.414  22.608   9.621  0.00  0.00     0.087 H 
ATOM     31 CL1  EEA d   1      -2.787  22.718  11.168  0.00  0.00    -0.084 Cl
ATOM     32  C21 EEA d   1      -3.595  22.994   8.487  0.00  0.00    -0.062 C 
ATOM     33  C22 EEA d   1      -3.330  23.088   7.073  0.00  0.00    -0.081 C 
ATOM     34  H20 EEA d   1      -4.612  23.070   8.854  0.00  0.00     0.086 H 
ATOM     35  C23 EEA d   1      -1.994  22.974   6.582  0.00  0.00    -0.072 C 
ATOM     36  H21 EEA d   1      -4.148  23.246   6.380  0.00  0.00     0.083 H 
ATOM     37  H22 EEA d   1      -1.784  23.099   5.526  0.00  0.00     0.084 H 
ENDBRANCH  21  27
ENDBRANCH  13  17
ENDBRANCH   8  11
ENDBRANCH   5   8
ENDBRANCH   3   5
BRANCH   1  38
ATOM     38  C13 EEA d   1       8.664  28.157   5.479  0.00  0.00     0.090 C 
ATOM     39  H14 EEA d   1       9.707  27.855   5.652  0.00  0.00     0.087 H 
BRANCH  38  40
ATOM     40  C14 EEA d   1       7.920  28.358   6.798  0.00  0.00     0.241 C 
ATOM     41  N1  EEA d   1       8.582  29.128   7.828  0.00  0.00    -0.346 N 
ATOM     42  H3  EEA d   1       9.545  29.392   7.769  0.00  0.00     0.163 HD
ATOM     43  O1  EEA d   1       6.738  28.194   6.854  0.00  0.00    -0.271 OA
BRANCH  41  44
ATOM     44  C24 EEA d   1       7.744  29.487   8.950  0.00  0.00     0.089 C 
ATOM     45  H23 EEA d   1       7.051  28.649   9.118  0.00  0.00     0.087 H 
BRANCH  44  46
ATOM     46  C25 EEA d   1       8.571  29.620  10.239  0.00  0.00    -0.029 C 
ATOM     47  H24 EEA d   1       9.516  29.081  10.076  0.00  0.00     0.037 H 
ATOM     48  H25 EEA d   1       8.002  29.129  11.043  0.00  0.00     0.037 H 
BRANCH  46  49
ATOM     49  C26 EEA d   1       8.929  31.023  10.730  0.00  0.00     0.018 C 
ATOM     50  H26 EEA d   1       8.194  31.295  11.502  0.00  0.00     0.049 H 
ATOM     51  H27 EEA d   1       8.828  31.703   9.871  0.00  0.00     0.049 H 
BRANCH  49  52
ATOM     52  C27 EEA d   1      10.324  31.254  11.331  0.00  0.00     0.172 C 
ATOM     53  O8  EEA d   1      11.141  32.268  10.801  0.00  0.00    -0.648 OA
ATOM     54  O8E EEA d   1      10.595  30.747  12.376  0.00  0.00    -0.648 OA
ENDBRANCH  49  52
ENDBRANCH  46  49
ENDBRANCH  44  46
BRANCH  44  55
ATOM     55  C28 EEA d   1       6.875  30.696   8.598  0.00  0.00     0.238 C 
ATOM     56  N9  EEA d   1       5.664  30.948   9.346  0.00  0.00    -0.368 N 
ATOM     57  H10 EEA d   1       5.471  30.425  10.177  0.00  0.00     0.159 HD
ATOM     58  H11 EEA d   1       5.019  31.645   9.033  0.00  0.00     0.159 HD
ATOM     59  O9  EEA d   1       7.079  31.333   7.613  0.00  0.00    -0.271 OA
ENDBRANCH  44  55
ENDBRANCH  41  44
ENDBRANCH  38  40
BRANCH  38  60
ATOM     60  C15 EEA d   1       8.607  29.508   4.761  0.00  0.00    -0.029 C 
ATOM     61  H15 EEA d   1       8.738  30.281   5.532  0.00  0.00     0.037 H 
ATOM     62  H16 EEA d   1       7.601  29.592   4.325  0.00  0.00     0.037 H 
BRANCH  60  63
ATOM     63  C16 EEA d   1       9.593  29.829   3.649  0.00  0.00     0.018 C 
ATOM     64  H17 EEA d   1       9.484  29.103   2.830  0.00  0.00     0.049 H 
ATOM     65  H18 EEA d   1      10.621  29.791   4.037  0.00  0.00     0.049 H 
BRANCH  63  66
ATOM     66  C17 EEA d   1       9.281  31.224   3.148  0.00  0.00     0.172 C 
ATOM     67  O4  EEA d   1       8.524  31.374   2.135  0.00  0.00    -0.648 OA
ATOM     68  O4E EEA d   1       9.723  32.259   3.902  0.00  0.00    -0.648 OA
ENDBRANCH  63  66
ENDBRANCH  60  63
ENDBRANCH  38  60
ENDBRANCH   1  38
TORSDOF 15
