REMARK  6 active torsions:
REMARK  status: ('A' for Active; 'I' for Inactive)
REMARK    1  A    between atoms: N2_5  and  C21_29 
REMARK    2  A    between atoms: N3_8  and  C9_17 
REMARK    3  A    between atoms: C11_19  and  O3_9 
REMARK    4  A    between atoms: N4_11  and  C22_30 
REMARK    5  A    between atoms: C12_20  and  O4_12 
REMARK    6  A    between atoms: C8_16  and  C16_24 
ROOT
ATOM      1  C1  WYE d   1      48.812  14.597  30.680  0.00  0.00    -0.039 A 
ATOM      2  N1  WYE d   1      48.403  12.803  29.076  0.00  0.00    -0.242 NA
ATOM      3  N2  WYE d   1      46.229  11.800  29.305  0.00  0.00    -0.344 N 
ATOM      4  C4  WYE d   1      49.173  13.770  29.624  0.00  0.00     0.007 A 
ATOM      5  C5  WYE d   1      45.133  11.967  30.104  0.00  0.00    -0.008 A 
ATOM      6  C6  WYE d   1      46.703  13.458  30.729  0.00  0.00     0.048 A 
ATOM      7  C8  WYE d   1      45.389  12.984  30.997  0.00  0.00    -0.002 A 
ATOM      8  C9  WYE d   1      47.549  14.449  31.258  0.00  0.00     0.046 A 
ATOM      9  C13 WYE d   1      47.196  12.700  29.664  0.00  0.00     0.142 A 
ATOM     10  H   WYE d   1      49.505  15.351  31.053  0.00  0.00     0.089 H 
ATOM     11  H   WYE d   1      50.166  13.914  29.199  0.00  0.00     0.114 H 
ATOM     12  H   WYE d   1      44.209  11.391  30.044  0.00  0.00     0.113 H 
ENDROOT
BRANCH   7  13
ATOM     13  C16 WYE d   1      44.454  13.380  31.985  0.00  0.00    -0.034 C 
ATOM     14  C15 WYE d   1      43.182  12.930  31.999  0.00  0.00     0.128 A 
ATOM     15  O2  WYE d   1      42.696  12.066  31.033  0.00  0.00    -0.305 OA
ATOM     16  C14 WYE d   1      42.128  13.265  32.990  0.00  0.00     0.221 A 
ATOM     17  C10 WYE d   1      41.390  11.831  31.355  0.00  0.00     0.096 A 
ATOM     18  C2  WYE d   1      40.546  11.018  30.637  0.00  0.00    -0.017 A 
ATOM     19  C7  WYE d   1      40.977  12.504  32.506  0.00  0.00     0.084 A 
ATOM     20  C11 WYE d   1      39.240  10.885  31.106  0.00  0.00     0.071 A 
ATOM     21  H   WYE d   1      40.883  10.499  29.739  0.00  0.00     0.092 H 
ATOM     22  C3  WYE d   1      38.814  11.564  32.274  0.00  0.00    -0.018 A 
ATOM     23  C12 WYE d   1      39.688  12.390  32.994  0.00  0.00     0.085 A 
ATOM     24  H   WYE d   1      37.787  11.442  32.619  0.00  0.00     0.092 H 
ATOM     25  O1  WYE d   1      42.199  13.979  33.964  0.00  0.00    -0.284 OA
ATOM     26  H   WYE d   1      44.774  14.074  32.763  0.00  0.00     0.089 H 
BRANCH  20  27
ATOM     27  O3  WYE d   1      38.381  10.087  30.413  0.00  0.00    -0.361 OA
ATOM     28  H   WYE d   1      38.070   9.381  30.985  0.00  0.00     0.217 HD
ENDBRANCH  20  27
BRANCH  23  29
ATOM     29  O4  WYE d   1      39.267  13.035  34.108  0.00  0.00    -0.360 OA
ATOM     30  H   WYE d   1      39.991  13.552  34.470  0.00  0.00     0.217 HD
ENDBRANCH  23  29
ENDBRANCH   7  13
BRANCH   3  31
ATOM     31  C21 WYE d   1      46.323  10.827  28.243  0.00  0.00    -0.013 C 
ATOM     32  H   WYE d   1      46.198   9.826  28.657  0.00  0.00     0.057 H 
ATOM     33  H   WYE d   1      45.542  11.018  27.507  0.00  0.00     0.057 H 
ATOM     34  H   WYE d   1      47.300  10.905  27.766  0.00  0.00     0.057 H 
ENDBRANCH   3  31
BRANCH   8  35
ATOM     35  N3  WYE d   1      47.171  15.278  32.325  0.00  0.00    -0.377 N 
ATOM     36  C17 WYE d   1      45.976  16.122  32.159  0.00  0.00     0.020 C 
ATOM     37  C19 WYE d   1      46.334  17.596  32.055  0.00  0.00     0.127 C 
ATOM     38  H   WYE d   1      45.337  15.986  33.032  0.00  0.00     0.066 H 
ATOM     39  H   WYE d   1      45.474  15.826  31.238  0.00  0.00     0.066 H 
ATOM     40  N4  WYE d   1      47.189  17.971  33.237  0.00  0.00     0.087 N 
ATOM     41  H   WYE d   1      46.881  17.779  31.130  0.00  0.00     0.082 H 
ATOM     42  H   WYE d   1      45.425  18.198  32.050  0.00  0.00     0.082 H 
ATOM     43  C20 WYE d   1      48.469  17.177  33.226  0.00  0.00     0.127 C 
ATOM     44  C18 WYE d   1      48.146  15.693  33.337  0.00  0.00     0.020 C 
ATOM     45  H   WYE d   1      49.091  17.478  34.069  0.00  0.00     0.082 H 
ATOM     46  H   WYE d   1      49.005  17.364  32.295  0.00  0.00     0.082 H 
ATOM     47  H   WYE d   1      49.065  15.127  33.183  0.00  0.00     0.066 H 
ATOM     48  H   WYE d   1      47.721  15.505  34.323  0.00  0.00     0.066 H 
BRANCH  40  49
ATOM     49  C22 WYE d   1      47.449  19.451  33.289  0.00  0.00     0.095 C 
ATOM     50  H   WYE d   1      47.965  19.760  32.380  0.00  0.00     0.071 H 
ATOM     51  H   WYE d   1      46.501  19.983  33.369  0.00  0.00     0.071 H 
ATOM     52  H   WYE d   1      48.069  19.679  34.156  0.00  0.00     0.071 H 
ENDBRANCH  40  49
ENDBRANCH   8  35
TORSDOF 6
