REMARK  1 active torsions:
REMARK  status: ('A' for Active; 'I' for Inactive)
REMARK       I    between atoms: N_1  and  C_2 
REMARK    1  A    between atoms: N_1  and  C1_4 
ROOT
ATOM      1  C1  OHO d   1      14.726  43.266   4.446  0.00  0.00     0.011 C 
ATOM      2  C2  OHO d   1      15.578  44.507   4.205  0.00  0.00    -0.046 C 
ATOM      3  C3  OHO d   1      15.987  45.185   5.519  0.00  0.00    -0.063 C 
ATOM      4  C4  OHO d   1      16.698  44.214   6.452  0.00  0.00    -0.065 C 
ATOM      5  C5  OHO d   1      15.932  42.884   6.608  0.00  0.00    -0.063 C 
ATOM      6  C6  OHO d   1      15.561  42.277   5.260  0.00  0.00    -0.046 C 
ATOM      7  H   OHO d   1      13.816  43.539   4.980  0.00  0.00     0.072 H 
ATOM      8  H   OHO d   1      14.990  45.217   3.623  0.00  0.00     0.035 H 
ATOM      9  H   OHO d   1      16.484  44.203   3.681  0.00  0.00     0.035 H 
ATOM     10  H   OHO d   1      15.086  45.544   6.017  0.00  0.00     0.033 H 
ATOM     11  H   OHO d   1      16.669  46.003   5.287  0.00  0.00     0.033 H 
ATOM     12  H   OHO d   1      16.769  44.680   7.435  0.00  0.00     0.033 H 
ATOM     13  H   OHO d   1      17.677  43.992   6.027  0.00  0.00     0.033 H 
ATOM     14  H   OHO d   1      15.012  43.083   7.157  0.00  0.00     0.033 H 
ATOM     15  H   OHO d   1      16.576  42.179   7.133  0.00  0.00     0.033 H 
ATOM     16  H   OHO d   1      16.473  42.044   4.711  0.00  0.00     0.035 H 
ATOM     17  H   OHO d   1      14.979  41.371   5.426  0.00  0.00     0.035 H 
ENDROOT
BRANCH   1  18
ATOM     18  N   OHO d   1      14.348  42.658   3.188  0.00  0.00    -0.364 N 
ATOM     19  C   OHO d   1      13.209  41.972   3.015  0.00  0.00     0.169 C 
ATOM     20  O   OHO d   1      12.379  41.816   3.930  0.00  0.00    -0.284 OA
ATOM     21  H   OHO d   1      13.002  41.535   2.038  0.00  0.00     0.180 H 
ATOM     22  H   OHO d   1      14.980  42.756   2.393  0.00  0.00     0.162 HD
ENDBRANCH   1  18
TORSDOF 1
