REMARK  8 active torsions:
REMARK  status: ('A' for Active; 'I' for Inactive)
REMARK       I    between atoms: N1_1  and  C14_2 
REMARK    1  A    between atoms: C14_2  and  C15_4 
REMARK    2  A    between atoms: C15_4  and  N16_22 
REMARK    3  A    between atoms: C2_8  and  C7_9 
REMARK       I    between atoms: C7_9  and  N23_10 
REMARK    4  A    between atoms: N23_10  and  C24_11 
REMARK    5  A    between atoms: C24_11  and  C25_12 
REMARK    6  A    between atoms: C28_15  and  C31_16 
REMARK    7  A    between atoms: C31_16  and  N49_17 
REMARK    8  A    between atoms: N16_22  and  C17_23 
ROOT
ATOM      1  N1  10U d   1      17.295  -9.279  12.518  0.00  0.00    -0.337 N 
ATOM      2  C14 10U d   1      18.197  -9.479  11.525  0.00  0.00     0.246 C 
ATOM      3  O32 10U d   1      18.364  -8.591  10.686  0.00  0.00    -0.272 OA
ATOM      4  C5  10U d   1      17.300  -9.967  13.822  0.00  0.00    -0.001 C 
ATOM      5  C4  10U d   1      15.874  -9.779  14.367  0.00  0.00    -0.048 C 
ATOM      6  C3  10U d   1      15.483  -8.368  13.878  0.00  0.00    -0.036 C 
ATOM      7  C2  10U d   1      16.291  -8.215  12.573  0.00  0.00     0.091 C 
ATOM      8  H   10U d   1      18.051  -9.556  14.496  0.00  0.00     0.064 H 
ATOM      9  H   10U d   1      17.563 -11.020  13.725  0.00  0.00     0.064 H 
ATOM     10  H   10U d   1      15.826  -9.873  15.452  0.00  0.00     0.035 H 
ATOM     11  H   10U d   1      15.187 -10.548  14.014  0.00  0.00     0.035 H 
ATOM     12  H   10U d   1      15.709  -7.591  14.608  0.00  0.00     0.036 H 
ATOM     13  H   10U d   1      14.409  -8.257  13.725  0.00  0.00     0.036 H 
ATOM     14  H   10U d   1      15.643  -8.319  11.703  0.00  0.00     0.087 H 
ENDROOT
BRANCH   7  15
ATOM     15  C7  10U d   1      16.887  -6.840  12.485  0.00  0.00     0.240 C 
ATOM     16  N23 10U d   1      16.139  -5.922  11.818  0.00  0.00    -0.355 N 
ATOM     17  H   10U d   1      15.278  -6.239  11.373  0.00  0.00     0.162 HD
ATOM     18  O22 10U d   1      17.828  -6.487  13.194  0.00  0.00    -0.271 OA
BRANCH  16  19
ATOM     19  C24 10U d   1      16.488  -4.529  11.701  0.00  0.00     0.019 C 
ATOM     20  H   10U d   1      17.113  -4.264  12.554  0.00  0.00     0.071 H 
ATOM     21  H   10U d   1      15.565  -3.950  11.669  0.00  0.00     0.071 H 
BRANCH  19  22
ATOM     22  C25 10U d   1      17.260  -4.241  10.452  0.00  0.00    -0.040 A 
ATOM     23  C30 10U d   1      16.762  -3.287   9.585  0.00  0.00    -0.074 A 
ATOM     24  C29 10U d   1      17.370  -3.084   8.355  0.00  0.00    -0.069 A 
ATOM     25  H   10U d   1      15.892  -2.694   9.868  0.00  0.00     0.084 H 
ATOM     26  C28 10U d   1      18.480  -3.848   8.009  0.00  0.00     0.007 A 
ATOM     27  H   10U d   1      16.982  -2.333   7.666  0.00  0.00     0.085 H 
ATOM     28  C27 10U d   1      18.988  -4.813   8.883  0.00  0.00    -0.069 A 
ATOM     29  C26 10U d   1      18.369  -5.005  10.107  0.00  0.00    -0.074 A 
ATOM     30  H   10U d   1      19.859  -5.406   8.605  0.00  0.00     0.085 H 
ATOM     31  H   10U d   1      18.751  -5.755  10.800  0.00  0.00     0.084 H 
BRANCH  26  32
ATOM     32  C31 10U d   1      19.111  -3.555   6.703  0.00  0.00     0.102 C 
ATOM     33  N48 10U d   1      18.412  -3.099   5.658  0.00  0.00    -0.385 N 
ATOM     34  H   10U d   1      17.408  -2.942   5.745  0.00  0.00     0.157 HD
ATOM     35  H   10U d   1      18.883  -2.909   4.774  0.00  0.00     0.157 HD
BRANCH  32  36
ATOM     36  N49 10U d   1      20.514  -3.919   6.470  0.00  0.00    -0.385 N 
ATOM     37  H   10U d   1      21.052  -4.373   7.208  0.00  0.00     0.157 HD
ATOM     38  H   10U d   1      20.951  -3.718   5.570  0.00  0.00     0.157 HD
ENDBRANCH  32  36
ENDBRANCH  26  32
ENDBRANCH  19  22
ENDBRANCH  16  19
ENDBRANCH   7  15
BRANCH   2  39
ATOM     39  C15 10U d   1      19.427 -10.359  11.746  0.00  0.00     0.154 C 
ATOM     40  H   10U d   1      19.099 -11.387  11.902  0.00  0.00     0.090 H 
ATOM     41  H   10U d   1      19.971  -9.989  12.615  0.00  0.00     0.090 H 
BRANCH  39  42
ATOM     42  N16 10U d   1      20.322 -10.318  10.571  0.00  0.00    -0.063 N 
ATOM     43  H   10U d   1      21.277 -10.208  10.911  0.00  0.00     0.278 HD
ATOM     44  H   10U d   1      20.020  -9.546   9.976  0.00  0.00     0.278 HD
BRANCH  42  45
ATOM     45  C17 10U d   1      20.272 -11.531   9.780  0.00  0.00     0.102 C 
ATOM     46  C21 10U d   1      21.029 -11.464   8.442  0.00  0.00    -0.038 C 
ATOM     47  C20 10U d   1      21.250 -12.960   8.061  0.00  0.00    -0.063 C 
ATOM     48  H   10U d   1      21.967 -10.915   8.524  0.00  0.00     0.036 H 
ATOM     49  H   10U d   1      20.473 -10.920   7.678  0.00  0.00     0.036 H 
ATOM     50  C19 10U d   1      21.356 -13.709   9.407  0.00  0.00    -0.063 C 
ATOM     51  H   10U d   1      22.146 -13.092   7.455  0.00  0.00     0.033 H 
ATOM     52  H   10U d   1      20.433 -13.344   7.450  0.00  0.00     0.033 H 
ATOM     53  C18 10U d   1      20.840 -12.758  10.510  0.00  0.00    -0.038 C 
ATOM     54  H   10U d   1      22.389 -13.995   9.603  0.00  0.00     0.033 H 
ATOM     55  H   10U d   1      20.762 -14.622   9.383  0.00  0.00     0.033 H 
ATOM     56  H   10U d   1      20.078 -13.241  11.123  0.00  0.00     0.036 H 
ATOM     57  H   10U d   1      21.641 -12.475  11.193  0.00  0.00     0.036 H 
ATOM     58  H   10U d   1      19.202 -11.629   9.599  0.00  0.00     0.084 H 
ENDBRANCH  42  45
ENDBRANCH  39  42
ENDBRANCH   2  39
TORSDOF 8
