REMARK  6 active torsions:
REMARK  status: ('A' for Active; 'I' for Inactive)
REMARK    1  A    between atoms: C12_15  and  N1_2 
REMARK    2  A    between atoms: C14_17  and  N2_5 
REMARK    3  A    between atoms: N2_5  and  C15_18 
REMARK    4  A    between atoms: N2_5  and  C16_19 
REMARK    5  A    between atoms: C13_16  and  C12_15 
REMARK    6  A    between atoms: C13_16  and  C14_17 
ROOT
ATOM      1  C1  Z80 d   1      11.984  15.294  53.722  0.00  0.00     0.052 A 
ATOM      2  N1  Z80 d   1      13.337  15.072  53.312  0.00  0.00    -0.345 N 
ATOM      3  S1  Z80 d   1      12.782  15.508  56.272  0.00  0.00    -0.086 SA
ATOM      4  C2  Z80 d   1      11.617  15.508  55.053  0.00  0.00     0.032 A 
ATOM      5  C3  Z80 d   1      14.298  15.220  55.588  0.00  0.00     0.032 A 
ATOM      6  C4  Z80 d   1      14.452  15.029  54.212  0.00  0.00     0.053 A 
ATOM      7  C5  Z80 d   1       9.637  15.527  53.107  0.00  0.00    -0.081 A 
ATOM      8  C6  Z80 d   1       9.290  15.738  54.436  0.00  0.00    -0.082 A 
ATOM      9  C7  Z80 d   1      10.285  15.728  55.407  0.00  0.00    -0.064 A 
ATOM     10  C8  Z80 d   1      15.394  15.182  56.446  0.00  0.00    -0.063 A 
ATOM     11  C9  Z80 d   1      16.675  14.952  55.966  0.00  0.00    -0.060 A 
ATOM     12  C10 Z80 d   1      16.854  14.760  54.604  0.00  0.00     0.036 A 
ATOM     13  C11 Z80 d   1      15.755  14.797  53.737  0.00  0.00    -0.035 A 
ATOM     14 CL1  Z80 d   1      18.520  14.467  53.997  0.00  0.00    -0.084 Cl
ATOM     15  C17 Z80 d   1      10.968  15.307  52.760  0.00  0.00    -0.056 A 
ATOM     16  H   Z80 d   1       8.867  15.534  52.336  0.00  0.00     0.083 H 
ATOM     17  H   Z80 d   1       8.250  15.909  54.714  0.00  0.00     0.083 H 
ATOM     18  H   Z80 d   1      10.023  15.893  56.452  0.00  0.00     0.085 H 
ATOM     19  H   Z80 d   1      15.243  15.336  57.514  0.00  0.00     0.085 H 
ATOM     20  H   Z80 d   1      17.526  14.923  56.647  0.00  0.00     0.086 H 
ATOM     21  H   Z80 d   1      15.913  14.643  52.670  0.00  0.00     0.089 H 
ATOM     22  H   Z80 d   1      11.224  15.141  51.714  0.00  0.00     0.087 H 
ENDROOT
BRANCH   2  23
ATOM     23  C12 Z80 d   1      13.566  14.861  51.871  0.00  0.00     0.002 C 
ATOM     24  H   Z80 d   1      12.598  14.665  51.409  0.00  0.00     0.065 H 
ATOM     25  H   Z80 d   1      14.269  14.034  51.767  0.00  0.00     0.065 H 
BRANCH  23  26
ATOM     26  C13 Z80 d   1      14.177  16.080  51.169  0.00  0.00    -0.035 C 
ATOM     27  H   Z80 d   1      14.544  15.755  50.196  0.00  0.00     0.037 H 
ATOM     28  H   Z80 d   1      14.967  16.473  51.810  0.00  0.00     0.037 H 
BRANCH  26  29
ATOM     29  C14 Z80 d   1      13.163  17.201  50.936  0.00  0.00    -0.009 C 
ATOM     30  H   Z80 d   1      12.160  16.845  51.173  0.00  0.00     0.063 H 
ATOM     31  H   Z80 d   1      13.399  18.050  51.578  0.00  0.00     0.063 H 
BRANCH  29  32
ATOM     32  N2  Z80 d   1      13.222  17.611  49.536  0.00  0.00    -0.421 N 
BRANCH  32  33
ATOM     33  C15 Z80 d   1      12.521  16.850  48.509  0.00  0.00    -0.024 C 
ATOM     34  H   Z80 d   1      12.899  15.828  48.495  0.00  0.00     0.055 H 
ATOM     35  H   Z80 d   1      11.454  16.841  48.730  0.00  0.00     0.055 H 
ATOM     36  H   Z80 d   1      12.688  17.314  47.537  0.00  0.00     0.055 H 
ENDBRANCH  32  33
BRANCH  32  37
ATOM     37  C16 Z80 d   1      13.956  18.812  49.162  0.00  0.00    -0.024 C 
ATOM     38  H   Z80 d   1      13.525  19.673  49.673  0.00  0.00     0.055 H 
ATOM     39  H   Z80 d   1      15.001  18.702  49.451  0.00  0.00     0.055 H 
ATOM     40  H   Z80 d   1      13.889  18.956  48.084  0.00  0.00     0.055 H 
ENDBRANCH  32  37
ENDBRANCH  29  32
ENDBRANCH  26  29
ENDBRANCH  23  26
ENDBRANCH   2  23
TORSDOF 6
