REMARK  2 active torsions:
REMARK  status: ('A' for Active; 'I' for Inactive)
REMARK    1  A    between atoms: CE1_8  and  SD_1 
REMARK    2  A    between atoms: CZ_3  and  CG_2 
ROOT
ATOM      1  CZ  JKE d   1     -12.009  10.554  -8.537  0.00  0.00     0.057 A 
ATOM      2  CD1 JKE d   1     -14.048  11.449  -7.446  0.00  0.00    -0.066 A 
ATOM      3  CD2 JKE d   1     -11.852  12.342  -6.930  0.00  0.00    -0.082 A 
ATOM      4  CE1 JKE d   1     -13.485  10.549  -8.344  0.00  0.00     0.014 A 
ATOM      5  CE2 JKE d   1     -11.239  11.460  -7.816  0.00  0.00    -0.065 A 
ATOM      6  CG1 JKE d   1     -13.234  12.336  -6.746  0.00  0.00    -0.082 A 
ATOM      7  H2  JKE d   1     -15.121  11.460  -7.291  0.00  0.00     0.085 H 
ATOM      8  H3  JKE d   1     -11.244  13.046  -6.373  0.00  0.00     0.083 H 
ATOM      9  H4  JKE d   1     -10.163  11.480  -7.944  0.00  0.00     0.085 H 
ATOM     10  H5  JKE d   1     -13.682  13.033  -6.047  0.00  0.00     0.083 H 
ENDROOT
BRANCH   1  11
ATOM     11  CG  JKE d   1     -11.350   9.602  -9.485  0.00  0.00     0.210 C 
ATOM     12  OD1 JKE d   1     -11.538   9.738 -10.711  0.00  0.00    -0.644 OA
ATOM     13  OD2 JKE d   1     -10.630   8.694  -9.019  0.00  0.00    -0.644 OA
ENDBRANCH   1  11
BRANCH   4  14
ATOM     14  SD  JKE d   1     -14.479   9.468  -9.193  0.00  0.00    -0.142 SA
ATOM     15  H1  JKE d   1     -15.440   9.618  -8.928  0.00  0.00     0.107 HD
ENDBRANCH   4  14
TORSDOF 2
