REMARK  14 active torsions:
REMARK  status: ('A' for Active; 'I' for Inactive)
REMARK    1  A    between atoms: C2_5  and  C1_1 
REMARK    2  A    between atoms: N1_3  and  C4_10 
REMARK    3  A    between atoms: N1_3  and  C5_12 
REMARK       I    between atoms: C23_30  and  N1_3 
REMARK    4  A    between atoms: C14_21  and  O1_4 
REMARK    5  A    between atoms: C3_8  and  C2_5 
REMARK    6  A    between atoms: N2_6  and  C13_20 
REMARK       I    between atoms: C15_22  and  N2_6 
REMARK    7  A    between atoms: C4_10  and  C3_8 
REMARK    8  A    between atoms: O3_9  and  C16_23 
REMARK    9  A    between atoms: C17_24  and  O3_9 
REMARK   10  A    between atoms: C12_19  and  C9_16 
REMARK   11  A    between atoms: C13_20  and  C12_19 
REMARK   12  A    between atoms: C13_20  and  C14_21 
REMARK   13  A    between atoms: C16_23  and  C15_22 
REMARK   14  A    between atoms: C22_29  and  C23_30 
ROOT
ATOM      1  F1  LT6 d   1      16.185  39.426  47.372  0.00  0.00    -0.205 F 
ATOM      2  C17 LT6 d   1      18.805  39.023  44.888  0.00  0.00     0.088 A 
ATOM      3  C18 LT6 d   1      18.392  37.796  44.313  0.00  0.00    -0.050 A 
ATOM      4  C19 LT6 d   1      17.250  37.124  44.803  0.00  0.00    -0.077 A 
ATOM      5  C20 LT6 d   1      16.499  37.684  45.843  0.00  0.00    -0.044 A 
ATOM      6  C21 LT6 d   1      16.907  38.905  46.392  0.00  0.00     0.134 A 
ATOM      7  C22 LT6 d   1      18.050  39.566  45.931  0.00  0.00     0.103 A 
ATOM      8  H27 LT6 d   1      18.956  37.370  43.491  0.00  0.00     0.087 H 
ATOM      9  H28 LT6 d   1      16.955  36.174  44.373  0.00  0.00     0.083 H 
ATOM     10  H29 LT6 d   1      15.615  37.180  46.217  0.00  0.00     0.088 H 
ENDROOT
BRANCH   2  11
ATOM     11  O3  LT6 d   1      19.885  39.793  44.525  0.00  0.00    -0.341 OA
BRANCH  11  12
ATOM     12  C16 LT6 d   1      20.907  39.316  43.669  0.00  0.00     0.099 C 
ATOM     13  H25 LT6 d   1      20.848  39.818  42.692  0.00  0.00     0.089 H 
ATOM     14  H26 LT6 d   1      20.808  38.229  43.529  0.00  0.00     0.089 H 
BRANCH  12  15
ATOM     15  C15 LT6 d   1      22.243  39.641  44.350  0.00  0.00     0.242 C 
ATOM     16  N2  LT6 d   1      22.061  40.261  45.583  0.00  0.00    -0.352 N 
ATOM     17  H7  LT6 d   1      21.130  40.471  45.880  0.00  0.00     0.163 HD
ATOM     18  O2  LT6 d   1      23.341  39.376  43.862  0.00  0.00    -0.271 OA
BRANCH  16  19
ATOM     19  C13 LT6 d   1      23.175  40.618  46.462  0.00  0.00     0.036 C 
ATOM     20  H22 LT6 d   1      24.118  40.456  45.919  0.00  0.00     0.076 H 
BRANCH  19  21
ATOM     21  C12 LT6 d   1      23.113  42.110  46.893  0.00  0.00    -0.020 C 
ATOM     22  H20 LT6 d   1      23.304  42.739  46.011  0.00  0.00     0.043 H 
ATOM     23  H21 LT6 d   1      22.107  42.322  47.284  0.00  0.00     0.043 H 
BRANCH  21  24
ATOM     24  C9  LT6 d   1      24.138  42.455  47.970  0.00  0.00    -0.056 A 
ATOM     25  C8  LT6 d   1      25.515  42.416  47.678  0.00  0.00    -0.077 A 
ATOM     26  C7  LT6 d   1      26.463  42.730  48.646  0.00  0.00    -0.082 A 
ATOM     27  H17 LT6 d   1      25.841  42.137  46.683  0.00  0.00     0.084 H 
ATOM     28  C6  LT6 d   1      26.043  43.097  49.923  0.00  0.00    -0.083 A 
ATOM     29  H16 LT6 d   1      27.520  42.690  48.409  0.00  0.00     0.083 H 
ATOM     30  C11 LT6 d   1      24.675  43.153  50.224  0.00  0.00    -0.082 A 
ATOM     31  H15 LT6 d   1      26.775  43.340  50.685  0.00  0.00     0.083 H 
ATOM     32  C10 LT6 d   1      23.730  42.826  49.255  0.00  0.00    -0.077 A 
ATOM     33  H19 LT6 d   1      24.352  43.452  51.215  0.00  0.00     0.083 H 
ATOM     34  H18 LT6 d   1      22.674  42.859  49.498  0.00  0.00     0.084 H 
ENDBRANCH  21  24
ENDBRANCH  19  21
BRANCH  19  35
ATOM     35  C14 LT6 d   1      23.142  39.693  47.687  0.00  0.00     0.036 C 
ATOM     36  H23 LT6 d   1      24.014  39.906  48.323  0.00  0.00     0.077 H 
ATOM     37  H24 LT6 d   1      22.219  39.880  48.255  0.00  0.00     0.077 H 
BRANCH  35  38
ATOM     38  O1  LT6 d   1      23.177  38.314  47.288  0.00  0.00    -0.399 OA
ATOM     39  H4  LT6 d   1      22.424  38.125  46.741  0.00  0.00     0.209 HD
ENDBRANCH  35  38
ENDBRANCH  19  35
ENDBRANCH  16  19
ENDBRANCH  12  15
ENDBRANCH  11  12
ENDBRANCH   2  11
BRANCH   7  40
ATOM     40  C23 LT6 d   1      18.489  40.845  46.569  0.00  0.00     0.259 C 
ATOM     41  N1  LT6 d   1      17.775  42.050  46.437  0.00  0.00    -0.352 N 
ATOM     42  O4  LT6 d   1      19.548  40.786  47.221  0.00  0.00    -0.267 OA
BRANCH  41  43
ATOM     43  C4  LT6 d   1      16.544  42.141  45.628  0.00  0.00    -0.003 C 
ATOM     44  H10 LT6 d   1      15.746  42.591  46.237  0.00  0.00     0.064 H 
ATOM     45  H11 LT6 d   1      16.242  41.130  45.317  0.00  0.00     0.064 H 
BRANCH  43  46
ATOM     46  C3  LT6 d   1      16.770  43.005  44.377  0.00  0.00    -0.050 C 
ATOM     47  H8  LT6 d   1      15.834  43.527  44.131  0.00  0.00     0.035 H 
ATOM     48  H9  LT6 d   1      17.556  43.744  44.592  0.00  0.00     0.035 H 
BRANCH  46  49
ATOM     49  C2  LT6 d   1      17.200  42.159  43.167  0.00  0.00    -0.067 C 
ATOM     50  H5  LT6 d   1      17.062  42.760  42.256  0.00  0.00     0.032 H 
ATOM     51  H6  LT6 d   1      18.264  41.905  43.281  0.00  0.00     0.032 H 
BRANCH  49  52
ATOM     52  C1  LT6 d   1      16.407  40.859  43.012  0.00  0.00    -0.076 C 
ATOM     53  H1  LT6 d   1      16.770  40.311  42.130  0.00  0.00     0.027 H 
ATOM     54  H2  LT6 d   1      15.340  41.093  42.885  0.00  0.00     0.027 H 
ATOM     55  H3  LT6 d   1      16.542  40.238  43.910  0.00  0.00     0.027 H 
ENDBRANCH  49  52
ENDBRANCH  46  49
ENDBRANCH  43  46
ENDBRANCH  41  43
BRANCH  41  56
ATOM     56  C5  LT6 d   1      18.225  43.286  47.090  0.00  0.00    -0.016 C 
ATOM     57  H12 LT6 d   1      19.146  43.086  47.658  0.00  0.00     0.056 H 
ATOM     58  H13 LT6 d   1      17.442  43.645  47.775  0.00  0.00     0.056 H 
ATOM     59  H14 LT6 d   1      18.424  44.053  46.327  0.00  0.00     0.056 H 
ENDBRANCH  41  56
ENDBRANCH   7  40
TORSDOF 14
