REMARK  15 active torsions:
REMARK  status: ('A' for Active; 'I' for Inactive)
REMARK       I    between atoms: C1_1  and  N1_2 
REMARK    1  A    between atoms: C11_25  and  C1_1 
REMARK    2  A    between atoms: C2_4  and  C6_16 
REMARK    3  A    between atoms: C6_16  and  N2_5 
REMARK       I    between atoms: C17_31  and  N3_8 
REMARK    4  A    between atoms: N3_8  and  C18_32 
REMARK       I    between atoms: C32_46  and  N5_14 
REMARK    5  A    between atoms: C37_51  and  N6_17 
REMARK       I    between atoms: N7_20  and  C45_59 
REMARK    6  A    between atoms: C46_60  and  N7_20 
REMARK    7  A    between atoms: C13_27  and  C14_28 
REMARK    8  A    between atoms: C16_30  and  C17_31 
REMARK    9  A    between atoms: C18_32  and  C19_33 
REMARK   10  A    between atoms: C23_37  and  C24_38 
REMARK   11  A    between atoms: C31_45  and  C32_46 
REMARK   12  A    between atoms: C33_47  and  C37_51 
REMARK   13  A    between atoms: C45_59  and  C44_58 
REMARK   14  A    between atoms: C46_60  and  C47_61 
REMARK   15  A    between atoms: C46_60  and  C53_67 
ROOT
ATOM      1  N4  LKJ d   1      25.869  26.848  18.293  0.00  0.00    -0.238 NA
ATOM      2  C14 LKJ d   1      27.760  24.895  18.778  0.00  0.00    -0.021 A 
ATOM      3  C15 LKJ d   1      26.559  24.930  19.480  0.00  0.00    -0.039 A 
ATOM      4  C16 LKJ d   1      25.596  25.894  19.205  0.00  0.00     0.126 A 
ATOM      5  C31 LKJ d   1      27.048  26.822  17.604  0.00  0.00     0.126 A 
ATOM      6  C42 LKJ d   1      28.018  25.861  17.827  0.00  0.00    -0.039 A 
ATOM      7  H18 LKJ d   1      26.372  24.194  20.253  0.00  0.00     0.088 H 
ATOM      8  H47 LKJ d   1      28.950  25.867  17.273  0.00  0.00     0.088 H 
ENDROOT
BRANCH   2   9
ATOM      9  C13 LKJ d   1      28.727  23.947  18.999  0.00  0.00    -0.021 A 
ATOM     10  C12 LKJ d   1      29.915  24.062  18.274  0.00  0.00    -0.039 A 
ATOM     11  C11 LKJ d   1      30.911  23.120  18.458  0.00  0.00     0.126 A 
ATOM     12  H17 LKJ d   1      30.055  24.879  17.576  0.00  0.00     0.088 H 
ATOM     13  N8  LKJ d   1      30.725  22.112  19.330  0.00  0.00    -0.238 NA
ATOM     14  C44 LKJ d   1      29.625  22.033  20.097  0.00  0.00     0.126 A 
ATOM     15  C43 LKJ d   1      28.554  22.913  19.923  0.00  0.00    -0.039 A 
ATOM     16  H48 LKJ d   1      27.631  22.799  20.480  0.00  0.00     0.088 H 
BRANCH  11  17
ATOM     17  C1  LKJ d   1      32.205  23.173  17.716  0.00  0.00     0.272 C 
ATOM     18  N1  LKJ d   1      33.295  22.767  18.430  0.00  0.00    -0.340 N 
ATOM     19  C2  LKJ d   1      34.696  22.673  17.962  0.00  0.00     0.030 C 
ATOM     20  C5  LKJ d   1      33.339  22.229  19.792  0.00  0.00    -0.001 C 
ATOM     21  C3  LKJ d   1      35.495  23.170  19.175  0.00  0.00    -0.043 C 
ATOM     22  H1  LKJ d   1      34.962  21.622  17.774  0.00  0.00     0.075 H 
ATOM     23  C4  LKJ d   1      34.627  22.827  20.378  0.00  0.00    -0.048 C 
ATOM     24  H2  LKJ d   1      35.659  24.256  19.113  0.00  0.00     0.036 H 
ATOM     25  H3  LKJ d   1      36.465  22.655  19.238  0.00  0.00     0.036 H 
ATOM     26  H5  LKJ d   1      34.401  23.732  20.961  0.00  0.00     0.035 H 
ATOM     27  H6  LKJ d   1      35.134  22.093  21.022  0.00  0.00     0.035 H 
ATOM     28  H7  LKJ d   1      33.388  21.130  19.778  0.00  0.00     0.064 H 
ATOM     29  H8  LKJ d   1      32.459  22.550  20.369  0.00  0.00     0.064 H 
ATOM     30  O1  LKJ d   1      32.258  23.675  16.606  0.00  0.00    -0.266 OA
BRANCH  19  31
ATOM     31  C6  LKJ d   1      34.867  23.425  16.641  0.00  0.00     0.018 C 
ATOM     32  H9  LKJ d   1      34.821  24.510  16.817  0.00  0.00     0.068 H 
ATOM     33  H10 LKJ d   1      34.074  23.134  15.937  0.00  0.00     0.068 H 
BRANCH  31  34
ATOM     34  N2  LKJ d   1      36.166  23.064  16.102  0.00  0.00    -0.364 N 
ATOM     35  C7  LKJ d   1      36.431  21.750  15.537  0.00  0.00    -0.021 C 
ATOM     36  C8  LKJ d   1      37.822  21.947  14.944  0.00  0.00    -0.067 C 
ATOM     37  H12 LKJ d   1      35.802  20.861  15.537  0.00  0.00     0.111 H 
ATOM     38  C9  LKJ d   1      38.366  23.298  15.426  0.00  0.00    -0.067 C 
ATOM     39  H14 LKJ d   1      38.341  21.248  14.290  0.00  0.00     0.085 H 
ATOM     40  C10 LKJ d   1      37.237  24.066  16.101  0.00  0.00    -0.021 C 
ATOM     41  H15 LKJ d   1      39.390  23.650  15.306  0.00  0.00     0.085 H 
ATOM     42  H16 LKJ d   1      37.228  25.086  16.481  0.00  0.00     0.111 H 
ENDBRANCH  31  34
ENDBRANCH  19  31
ENDBRANCH  11  17
BRANCH  14  43
ATOM     43  C45 LKJ d   1      29.539  20.790  20.866  0.00  0.00     0.271 C 
ATOM     44  O6  LKJ d   1      28.467  20.326  21.245  0.00  0.00    -0.266 OA
ATOM     45  N7  LKJ d   1      30.603  20.071  20.660  0.00  0.00    -0.341 N 
ATOM     46  H13 LKJ d   1      31.254  20.581  20.097  0.00  0.00     0.163 HD
BRANCH  45  47
ATOM     47  C46 LKJ d   1      31.152  18.758  20.987  0.00  0.00     0.100 C 
ATOM     48  H49 LKJ d   1      32.036  18.831  20.337  0.00  0.00     0.090 H 
BRANCH  47  49
ATOM     49  C47 LKJ d   1      30.432  17.658  20.194  0.00  0.00    -0.025 C 
ATOM     50  C48 LKJ d   1      29.241  16.939  20.768  0.00  0.00    -0.059 C 
ATOM     51  C49 LKJ d   1      28.857  15.754  19.857  0.00  0.00    -0.065 C 
ATOM     52  H51 LKJ d   1      28.393  17.636  20.838  0.00  0.00     0.033 H 
ATOM     53  H52 LKJ d   1      29.490  16.563  21.771  0.00  0.00     0.033 H 
ATOM     54  C50 LKJ d   1      29.508  15.708  18.474  0.00  0.00    -0.065 C 
ATOM     55  H53 LKJ d   1      27.767  15.786  19.711  0.00  0.00     0.033 H 
ATOM     56  H54 LKJ d   1      29.129  14.828  20.384  0.00  0.00     0.033 H 
ATOM     57  C51 LKJ d   1      31.016  15.993  18.435  0.00  0.00    -0.065 C 
ATOM     58  H55 LKJ d   1      29.007  16.455  17.840  0.00  0.00     0.033 H 
ATOM     59  H56 LKJ d   1      29.344  14.704  18.057  0.00  0.00     0.033 H 
ATOM     60  C52 LKJ d   1      31.499  16.702  19.690  0.00  0.00    -0.059 C 
ATOM     61  H57 LKJ d   1      31.234  16.628  17.563  0.00  0.00     0.033 H 
ATOM     62  H58 LKJ d   1      31.555  15.039  18.338  0.00  0.00     0.033 H 
ATOM     63  H59 LKJ d   1      31.716  15.956  20.469  0.00  0.00     0.033 H 
ATOM     64  H60 LKJ d   1      32.414  17.267  19.459  0.00  0.00     0.033 H 
ATOM     65  H50 LKJ d   1      30.027  18.170  19.308  0.00  0.00     0.043 H 
ENDBRANCH  47  49
BRANCH  47  66
ATOM     66  C53 LKJ d   1      31.953  18.452  22.230  0.00  0.00     0.197 C 
ATOM     67  O4  LKJ d   1      31.657  17.607  23.107  0.00  0.00    -0.646 OA
ATOM     68  O5  LKJ d   1      33.025  19.090  22.220  0.00  0.00    -0.646 OA
ENDBRANCH  47  66
ENDBRANCH  45  47
ENDBRANCH  14  43
ENDBRANCH   2   9
BRANCH   4  69
ATOM     69  C17 LKJ d   1      24.384  25.929  20.085  0.00  0.00     0.270 C 
ATOM     70  O2  LKJ d   1      24.189  25.017  20.878  0.00  0.00    -0.266 OA
ATOM     71  N3  LKJ d   1      23.743  27.103  20.257  0.00  0.00    -0.351 N 
ATOM     72  H4  LKJ d   1      24.057  27.872  19.700  0.00  0.00     0.163 HD
BRANCH  71  73
ATOM     73  C18 LKJ d   1      22.623  27.371  21.185  0.00  0.00     0.019 C 
ATOM     74  H19 LKJ d   1      22.838  28.292  21.747  0.00  0.00     0.071 H 
ATOM     75  H20 LKJ d   1      22.531  26.527  21.885  0.00  0.00     0.071 H 
BRANCH  73  76
ATOM     76  C19 LKJ d   1      21.319  27.541  20.452  0.00  0.00    -0.040 A 
ATOM     77  C20 LKJ d   1      20.697  26.393  19.966  0.00  0.00    -0.075 A 
ATOM     78  C21 LKJ d   1      19.492  26.461  19.282  0.00  0.00    -0.082 A 
ATOM     79  H21 LKJ d   1      21.164  25.428  20.125  0.00  0.00     0.084 H 
ATOM     80  C22 LKJ d   1      18.929  27.722  19.119  0.00  0.00    -0.072 A 
ATOM     81  H22 LKJ d   1      19.011  25.571  18.892  0.00  0.00     0.083 H 
ATOM     82  C23 LKJ d   1      19.544  28.882  19.609  0.00  0.00    -0.025 A 
ATOM     83  H23 LKJ d   1      17.984  27.811  18.596  0.00  0.00     0.084 H 
ATOM     84  C30 LKJ d   1      20.766  28.796  20.283  0.00  0.00    -0.065 A 
ATOM     85  H29 LKJ d   1      21.262  29.683  20.660  0.00  0.00     0.085 H 
BRANCH  82  86
ATOM     86  C24 LKJ d   1      18.915  30.106  19.387  0.00  0.00    -0.026 A 
ATOM     87  C25 LKJ d   1      17.723  30.149  18.651  0.00  0.00    -0.072 A 
ATOM     88  C26 LKJ d   1      17.094  31.377  18.411  0.00  0.00    -0.082 A 
ATOM     89  H24 LKJ d   1      17.288  29.233  18.268  0.00  0.00     0.084 H 
ATOM     90  C27 LKJ d   1      17.641  32.571  18.923  0.00  0.00    -0.083 A 
ATOM     91  H25 LKJ d   1      16.181  31.410  17.828  0.00  0.00     0.083 H 
ATOM     92  C28 LKJ d   1      18.843  32.548  19.640  0.00  0.00    -0.082 A 
ATOM     93  H26 LKJ d   1      17.128  33.512  18.761  0.00  0.00     0.083 H 
ATOM     94  C29 LKJ d   1      19.472  31.318  19.858  0.00  0.00    -0.072 A 
ATOM     95  H27 LKJ d   1      19.278  33.466  20.019  0.00  0.00     0.083 H 
ATOM     96  H28 LKJ d   1      20.410  31.293  20.401  0.00  0.00     0.084 H 
ENDBRANCH  82  86
ENDBRANCH  73  76
ENDBRANCH  71  73
ENDBRANCH   4  69
BRANCH   5  97
ATOM     97  C32 LKJ d   1      27.312  27.803  16.524  0.00  0.00     0.272 C 
ATOM     98  O3  LKJ d   1      28.455  28.100  16.260  0.00  0.00    -0.266 OA
ATOM     99  N5  LKJ d   1      26.238  28.115  15.755  0.00  0.00    -0.340 N 
ATOM    100  C33 LKJ d   1      26.213  29.100  14.645  0.00  0.00     0.038 C 
ATOM    101  C36 LKJ d   1      24.872  27.673  16.024  0.00  0.00    -0.001 C 
ATOM    102  C34 LKJ d   1      24.846  28.966  13.977  0.00  0.00    -0.043 C 
ATOM    103  H30 LKJ d   1      26.355  30.118  15.037  0.00  0.00     0.075 H 
ATOM    104  C35 LKJ d   1      24.156  27.838  14.694  0.00  0.00    -0.048 C 
ATOM    105  H31 LKJ d   1      24.962  28.729  12.909  0.00  0.00     0.036 H 
ATOM    106  H32 LKJ d   1      24.272  29.898  14.085  0.00  0.00     0.036 H 
ATOM    107  H33 LKJ d   1      24.229  26.912  14.105  0.00  0.00     0.035 H 
ATOM    108  H34 LKJ d   1      23.097  28.084  14.860  0.00  0.00     0.035 H 
ATOM    109  H35 LKJ d   1      24.405  28.299  16.798  0.00  0.00     0.064 H 
ATOM    110  H36 LKJ d   1      24.859  26.621  16.346  0.00  0.00     0.064 H 
BRANCH 100 111
ATOM    111  C37 LKJ d   1      27.295  28.788  13.620  0.00  0.00     0.102 C 
ATOM    112  H37 LKJ d   1      27.708  27.784  13.795  0.00  0.00     0.079 H 
ATOM    113  H38 LKJ d   1      26.883  28.843  12.601  0.00  0.00     0.079 H 
BRANCH 111 114
ATOM    114  N6  LKJ d   1      28.316  29.787  13.800  0.00  0.00    -0.069 N 
ATOM    115  C38 LKJ d   1      29.410  29.907  12.840  0.00  0.00     0.084 C 
ATOM    116  C39 LKJ d   1      30.491  30.572  13.681  0.00  0.00    -0.041 C 
ATOM    117  H39 LKJ d   1      29.125  30.536  11.984  0.00  0.00     0.076 H 
ATOM    118  H40 LKJ d   1      29.735  28.921  12.478  0.00  0.00     0.076 H 
ATOM    119  C40 LKJ d   1      29.825  30.932  15.011  0.00  0.00    -0.041 C 
ATOM    120  H41 LKJ d   1      30.861  31.479  13.181  0.00  0.00     0.035 H 
ATOM    121  H42 LKJ d   1      31.328  29.878  13.848  0.00  0.00     0.035 H 
ATOM    122  C41 LKJ d   1      28.318  30.667  14.932  0.00  0.00     0.084 C 
ATOM    123  H43 LKJ d   1      29.997  31.997  15.228  0.00  0.00     0.035 H 
ATOM    124  H44 LKJ d   1      30.261  30.319  15.814  0.00  0.00     0.035 H 
ATOM    125  H45 LKJ d   1      27.935  30.176  15.839  0.00  0.00     0.076 H 
ATOM    126  H46 LKJ d   1      27.745  31.587  14.743  0.00  0.00     0.076 H 
ATOM    127  H11 LKJ d   1      27.764  30.447  13.275  0.00  0.00     0.280 HD
ENDBRANCH 111 114
ENDBRANCH 100 111
ENDBRANCH   5  97
TORSDOF 15
