REMARK WARNING: 32 MAX_TORS EXCEEDED!!!
REMARK  52 active torsions:
REMARK  status: ('A' for Active; 'I' for Inactive)
REMARK    1  A    between atoms: N_1  and  CA_2 
REMARK    2  A    between atoms: CA_2  and  C_3 
REMARK    3  A    between atoms: CA_2  and  CB_5 
REMARK       I    between atoms: C_3  and  N_10 
REMARK    4  A    between atoms: CB_5  and  CG_6 
REMARK    5  A    between atoms: CG_6  and  CD_7 
REMARK    6  A    between atoms: CA_11  and  C_12 
REMARK       I    between atoms: C_12  and  N_17 
REMARK    7  A    between atoms: N_17  and  CA_18 
REMARK    8  A    between atoms: CA_18  and  C_19 
REMARK    9  A    between atoms: CA_18  and  CB_21 
REMARK       I    between atoms: C_19  and  N_25 
REMARK   10  A    between atoms: CB_21  and  CG1_22 
REMARK   11  A    between atoms: CB_21  and  CG2_23 
REMARK   12  A    between atoms: CG1_22  and  CD1_24 
REMARK   13  A    between atoms: N_25  and  CA_26 
REMARK   14  A    between atoms: CA_26  and  C_27 
REMARK   15  A    between atoms: CA_26  and  CB_29 
REMARK       I    between atoms: C_27  and  N_30 
REMARK   16  A    between atoms: N_30  and  CA_31 
REMARK   17  A    between atoms: CA_31  and  C_32 
REMARK   18  A    between atoms: CA_31  and  CB_34 
REMARK       I    between atoms: C_32  and  N_38 
REMARK   19  A    between atoms: CB_34  and  CG1_35 
REMARK   20  A    between atoms: CB_34  and  CG2_36 
REMARK   21  A    between atoms: CG1_35  and  CD1_37 
REMARK   22  A    between atoms: N_38  and  CA_39 
REMARK   23  A    between atoms: CA_39  and  C_40 
REMARK   24  A    between atoms: CA_39  and  CB_42 
REMARK       I    between atoms: C_40  and  N_46 
REMARK   25  A    between atoms: CB_42  and  CG1_43 
REMARK   26  A    between atoms: CB_42  and  CG2_44 
REMARK   27  A    between atoms: CG1_43  and  CD1_45 
REMARK   28  A    between atoms: N_46  and  CA_47 
REMARK   29  A    between atoms: CA_47  and  C_48 
REMARK   30  A    between atoms: CA_47  and  CB_50 
REMARK       I    between atoms: C_48  and  N_54 
REMARK   31  A    between atoms: CB_50  and  CG1_51 
REMARK   32  A    between atoms: CB_50  and  CG2_52 
REMARK   33  A    between atoms: CG1_51  and  CD1_53 
REMARK   34  A    between atoms: N_54  and  CA_55 
REMARK   35  A    between atoms: CA_55  and  C_56 
REMARK   36  A    between atoms: CA_55  and  CB_58 
REMARK       I    between atoms: C_56  and  N_61 
REMARK   37  A    between atoms: CB_58  and  OG1_59 
REMARK   38  A    between atoms: CB_58  and  CG2_60 
REMARK   39  A    between atoms: N_61  and  CA_62 
REMARK   40  A    between atoms: CA_62  and  C_63 
REMARK   41  A    between atoms: CA_62  and  CB_65 
REMARK       I    between atoms: C_63  and  N_69 
REMARK   42  A    between atoms: CB_65  and  CG_66 
REMARK   43  A    between atoms: N_69  and  CA_70 
REMARK   44  A    between atoms: CA_70  and  C_71 
REMARK   45  A    between atoms: CA_70  and  CB_73 
REMARK       I    between atoms: C_71  and  N_76 
REMARK   46  A    between atoms: CB_73  and  OG1_74 
REMARK   47  A    between atoms: CB_73  and  CG2_75 
REMARK   48  A    between atoms: N_76  and  CA_77 
REMARK   49  A    between atoms: CA_77  and  C_78 
REMARK   50  A    between atoms: CA_77  and  CB_80 
REMARK   51  A    between atoms: CB_80  and  CG_81 
REMARK   52  A    between atoms: CG_81  and  CD_82 
ROOT
ATOM      1  CA  ILE d   1     -24.895 -23.547  13.137  0.00  0.00     0.092 C 
ATOM      2  H   ILE d   1     -24.474 -24.546  13.029  0.00  0.00     0.088 H 
ENDROOT
BRANCH   1   3
ATOM      3  N   ILE d   1     -24.418 -22.941  14.393  0.00  0.00    -0.346 N 
ATOM      4  C   ILE d   1     -23.536 -23.525  15.197  0.00  0.00     0.241 C 
ATOM      5  O   ILE d   1     -23.122 -24.660  15.014  0.00  0.00    -0.271 OA
ATOM      6  H   ILE d   1     -24.784 -22.027  14.659  0.00  0.00     0.163 HD
BRANCH   4   7
ATOM      7  CA  ILE d   1     -23.054 -22.714  16.415  0.00  0.00     0.092 C 
ATOM      8  H   ILE d   1     -23.588 -21.764  16.405  0.00  0.00     0.088 H 
BRANCH   7   9
ATOM      9  N   ILE d   1     -23.316 -23.458  17.620  0.00  0.00    -0.346 N 
ATOM     10  C   ALA d   1     -24.296 -23.152  18.454  0.00  0.00     0.240 C 
ATOM     11  O   ALA d   1     -25.038 -22.196  18.275  0.00  0.00    -0.271 OA
ATOM     12  H   ILE d   1     -22.720 -24.256  17.840  0.00  0.00     0.163 HD
BRANCH  10  13
ATOM     13  CA  ALA d   1     -24.494 -24.116  19.660  0.00  0.00     0.086 C 
ATOM     14  H   ALA d   1     -23.523 -24.579  19.837  0.00  0.00     0.086 H 
BRANCH  13  15
ATOM     15  N   ALA d   1     -24.862 -23.454  20.911  0.00  0.00    -0.346 N 
ATOM     16  C   ILE d   1     -23.958 -23.084  21.820  0.00  0.00     0.241 C 
ATOM     17  O   ILE d   1     -22.733 -23.286  21.705  0.00  0.00    -0.271 OA
ATOM     18  H   ALA d   1     -25.848 -23.268  21.096  0.00  0.00     0.163 HD
BRANCH  16  19
ATOM     19  CA  ILE d   1     -24.513 -22.405  23.080  0.00  0.00     0.092 C 
ATOM     20  H   ILE d   1     -25.521 -22.762  23.291  0.00  0.00     0.088 H 
BRANCH  19  21
ATOM     21  N   ILE d   1     -23.642 -22.761  24.202  0.00  0.00    -0.346 N 
ATOM     22  C   PRO d   1     -23.680 -23.994  24.714  0.00  0.00     0.241 C 
ATOM     23  O   PRO d   1     -24.381 -24.893  24.236  0.00  0.00    -0.271 OA
ATOM     24  H   ILE d   1     -23.006 -22.067  24.593  0.00  0.00     0.163 HD
BRANCH  22  25
ATOM     25  CA  PRO d   1     -22.861 -24.256  25.991  0.00  0.00     0.091 C 
ATOM     26  N   PRO d   1     -23.766 -24.778  27.044  0.00  0.00    -0.337 N 
ATOM     27  C   GLU d   1     -24.658 -23.883  27.569  0.00  0.00     0.251 C 
ATOM     28  CD  PRO d   1     -23.473 -26.195  27.372  0.00  0.00    -0.001 C 
ATOM     29  O   GLU d   1     -24.589 -22.659  27.353  0.00  0.00    -0.271 OA
ATOM     30  CG  PRO d   1     -22.508 -26.631  26.291  0.00  0.00    -0.048 C 
ATOM     31  H   PRO d   1     -24.374 -26.808  27.393  0.00  0.00     0.064 H 
ATOM     32  H   PRO d   1     -23.052 -26.309  28.371  0.00  0.00     0.064 H 
ATOM     33  CB  PRO d   1     -21.833 -25.390  25.783  0.00  0.00    -0.036 C 
ATOM     34  H   PRO d   1     -21.776 -27.335  26.687  0.00  0.00     0.035 H 
ATOM     35  H   PRO d   1     -23.035 -27.142  25.485  0.00  0.00     0.035 H 
ATOM     36  H   PRO d   1     -20.902 -25.192  26.315  0.00  0.00     0.036 H 
ATOM     37  H   PRO d   1     -21.548 -25.487  24.735  0.00  0.00     0.036 H 
ATOM     38  H   PRO d   1     -22.372 -23.317  26.252  0.00  0.00     0.087 H 
BRANCH  27  39
ATOM     39  CA  GLU d   1     -25.778 -24.409  28.503  0.00  0.00     0.176 C 
ATOM     40  H   GLU d   1     -26.675 -24.422  27.884  0.00  0.00     0.099 H 
BRANCH  39  41
ATOM     41  N   GLU d   1     -25.636 -25.831  28.967  0.00  0.00    -0.066 N 
ATOM     42  H   GLU d   1     -25.521 -26.442  28.158  0.00  0.00     0.275 HD
ATOM     43  H   GLU d   1     -24.819 -25.910  29.573  0.00  0.00     0.275 HD
ATOM     44  H   GLU d   1     -26.472 -26.104  29.484  0.00  0.00     0.275 HD
ENDBRANCH  39  41
BRANCH  39  45
ATOM     45  CB  GLU d   1     -25.954 -23.455  29.707  0.00  0.00    -0.021 C 
ATOM     46  H   GLU d   1     -26.965 -23.615  30.081  0.00  0.00     0.037 H 
ATOM     47  H   GLU d   1     -25.738 -22.452  29.339  0.00  0.00     0.037 H 
BRANCH  45  48
ATOM     48  CG  GLU d   1     -25.000 -23.698  30.905  0.00  0.00     0.018 C 
ATOM     49  H   GLU d   1     -25.235 -24.680  31.316  0.00  0.00     0.049 H 
ATOM     50  H   GLU d   1     -25.149 -22.881  31.611  0.00  0.00     0.049 H 
BRANCH  48  51
ATOM     51  CD  GLU d   1     -23.522 -23.706  30.520  0.00  0.00     0.172 C 
ATOM     52  OE1 GLU d   1     -22.851 -22.673  30.722  0.00  0.00    -0.648 OA
ATOM     53  OE2 GLU d   1     -23.034 -24.736  30.009  0.00  0.00    -0.648 OA
ENDBRANCH  48  51
ENDBRANCH  45  48
ENDBRANCH  39  45
ENDBRANCH  27  39
ENDBRANCH  22  25
ENDBRANCH  19  21
BRANCH  19  54
ATOM     54  CB  ILE d   1     -24.680 -20.866  22.888  0.00  0.00    -0.030 C 
ATOM     55  H   ILE d   1     -25.722 -20.679  22.630  0.00  0.00     0.043 H 
BRANCH  54  56
ATOM     56  CG1 ILE d   1     -23.816 -20.375  21.747  0.00  0.00    -0.063 C 
ATOM     57  H   ILE d   1     -23.596 -21.229  21.107  0.00  0.00     0.033 H 
ATOM     58  H   ILE d   1     -22.923 -19.923  22.178  0.00  0.00     0.033 H 
BRANCH  56  59
ATOM     59  CD1 ILE d   1     -24.472 -19.365  20.928  0.00  0.00    -0.076 C 
ATOM     60  H   ILE d   1     -25.382 -19.783  20.498  0.00  0.00     0.027 H 
ATOM     61  H   ILE d   1     -24.723 -18.504  21.547  0.00  0.00     0.027 H 
ATOM     62  H   ILE d   1     -23.800 -19.055  20.128  0.00  0.00     0.027 H 
ENDBRANCH  56  59
ENDBRANCH  54  56
BRANCH  54  63
ATOM     63  CG2 ILE d   1     -24.406 -20.073  24.200  0.00  0.00    -0.071 C 
ATOM     64  H   ILE d   1     -25.106 -20.395  24.971  0.00  0.00     0.028 H 
ATOM     65  H   ILE d   1     -23.385 -20.263  24.532  0.00  0.00     0.028 H 
ATOM     66  H   ILE d   1     -24.536 -19.007  24.013  0.00  0.00     0.028 H 
ENDBRANCH  54  63
ENDBRANCH  19  54
ENDBRANCH  16  19
ENDBRANCH  13  15
BRANCH  13  67
ATOM     67  CB  ALA d   1     -25.535 -25.137  19.315  0.00  0.00    -0.049 C 
ATOM     68  H   ALA d   1     -25.597 -25.875  20.115  0.00  0.00     0.030 H 
ATOM     69  H   ALA d   1     -26.500 -24.645  19.198  0.00  0.00     0.030 H 
ATOM     70  H   ALA d   1     -25.262 -25.631  18.383  0.00  0.00     0.030 H 
ENDBRANCH  13  67
ENDBRANCH  10  13
ENDBRANCH   7   9
BRANCH   7  71
ATOM     71  CB  ILE d   1     -21.559 -22.453  16.359  0.00  0.00    -0.030 C 
ATOM     72  H   ILE d   1     -21.007 -23.392  16.385  0.00  0.00     0.043 H 
BRANCH  71  73
ATOM     73  CG1 ILE d   1     -21.148 -21.624  17.608  0.00  0.00    -0.063 C 
ATOM     74  H   ILE d   1     -21.620 -22.104  18.465  0.00  0.00     0.033 H 
ATOM     75  H   ILE d   1     -21.455 -20.597  17.411  0.00  0.00     0.033 H 
BRANCH  73  76
ATOM     76  CD1 ILE d   1     -19.616 -21.575  17.918  0.00  0.00    -0.076 C 
ATOM     77  H   ILE d   1     -19.249 -22.587  18.089  0.00  0.00     0.027 H 
ATOM     78  H   ILE d   1     -19.089 -21.134  17.072  0.00  0.00     0.027 H 
ATOM     79  H   ILE d   1     -19.446 -20.970  18.809  0.00  0.00     0.027 H 
ENDBRANCH  73  76
ENDBRANCH  71  73
BRANCH  71  80
ATOM     80  CG2 ILE d   1     -21.189 -21.796  15.074  0.00  0.00    -0.071 C 
ATOM     81  H   ILE d   1     -21.466 -22.444  14.243  0.00  0.00     0.028 H 
ATOM     82  H   ILE d   1     -21.717 -20.846  14.988  0.00  0.00     0.028 H 
ATOM     83  H   ILE d   1     -20.114 -21.618  15.055  0.00  0.00     0.028 H 
ENDBRANCH  71  80
ENDBRANCH   7  71
ENDBRANCH   4   7
ENDBRANCH   1   3
BRANCH   1  84
ATOM     84  C   ILE d   1     -24.474 -22.616  11.987  0.00  0.00     0.241 C 
ATOM     85  O   ILE d   1     -24.819 -21.432  12.011  0.00  0.00    -0.271 OA
ATOM     86  N   ILE d   1     -23.737 -23.159  11.010  0.00  0.00    -0.346 N 
ATOM     87  H   ILE d   1     -23.508 -24.151  11.075  0.00  0.00     0.163 HD
BRANCH  86  88
ATOM     88  CA  ILE d   1     -23.239 -22.407   9.850  0.00  0.00     0.092 C 
ATOM     89  H   ILE d   1     -23.455 -21.346   9.974  0.00  0.00     0.088 H 
BRANCH  88  90
ATOM     90  C   ILE d   1     -23.934 -22.990   8.605  0.00  0.00     0.241 C 
ATOM     91  O   ILE d   1     -23.857 -24.207   8.344  0.00  0.00    -0.271 OA
ATOM     92  N   THR d   1     -24.633 -22.122   7.884  0.00  0.00    -0.344 N 
ATOM     93  H   THR d   1     -24.656 -21.151   8.196  0.00  0.00     0.163 HD
BRANCH  92  94
ATOM     94  CA  THR d   1     -25.372 -22.470   6.671  0.00  0.00     0.113 C 
ATOM     95  H   THR d   1     -25.094 -23.472   6.343  0.00  0.00     0.091 H 
BRANCH  94  96
ATOM     96  C   THR d   1     -25.045 -21.375   5.607  0.00  0.00     0.243 C 
ATOM     97  O   THR d   1     -24.730 -20.237   5.966  0.00  0.00    -0.271 OA
ATOM     98  N   ASP d   1     -25.133 -21.729   4.330  0.00  0.00    -0.345 N 
ATOM     99  H   ASP d   1     -25.262 -22.716   4.108  0.00  0.00     0.163 HD
BRANCH  98 100
ATOM    100  CA  ASP d   1     -25.053 -20.765   3.217  0.00  0.00     0.098 C 
ATOM    101  H   ASP d   1     -24.504 -19.908   3.607  0.00  0.00     0.088 H 
BRANCH 100 102
ATOM    102  C   ASP d   1     -26.426 -20.269   2.745  0.00  0.00     0.241 C 
ATOM    103  O   ASP d   1     -27.415 -20.988   2.808  0.00  0.00    -0.271 OA
ATOM    104  N   THR d   1     -26.472 -19.037   2.219  0.00  0.00    -0.344 N 
ATOM    105  H   THR d   1     -25.618 -18.480   2.205  0.00  0.00     0.163 HD
BRANCH 104 106
ATOM    106  CA  THR d   1     -27.702 -18.454   1.661  0.00  0.00     0.113 C 
ATOM    107  H   THR d   1     -28.531 -19.154   1.766  0.00  0.00     0.091 H 
BRANCH 106 108
ATOM    108  C   THR d   1     -27.493 -18.202   0.160  0.00  0.00     0.243 C 
ATOM    109  O   THR d   1     -28.166 -18.812  -0.660  0.00  0.00    -0.271 OA
ATOM    110  N   GLU d   1     -26.542 -17.317  -0.182  0.00  0.00    -0.345 N 
ATOM    111  H   GLU d   1     -26.111 -16.761   0.556  0.00  0.00     0.163 HD
BRANCH 110 112
ATOM    112  CA  GLU d   1     -26.090 -17.108  -1.567  0.00  0.00     0.097 C 
ATOM    113  H   GLU d   1     -25.514 -16.184  -1.518  0.00  0.00     0.089 H 
BRANCH 112 114
ATOM    114  C   GLU d   1     -27.147 -16.815  -2.645  0.00  0.00     0.196 C 
ATOM    115  O   GLU d   1     -28.278 -16.705  -2.467  0.00  0.00    -0.646 OA
ATOM    116  OXT GLU d   1     -26.804 -16.527  -3.789  0.00  0.00    -0.646 OA
ENDBRANCH 112 114
BRANCH 112 117
ATOM    117  CB  GLU d   1     -25.291 -18.340  -1.996  0.00  0.00    -0.028 C 
ATOM    118  H   GLU d   1     -24.835 -18.746  -1.093  0.00  0.00     0.037 H 
ATOM    119  H   GLU d   1     -24.591 -18.007  -2.762  0.00  0.00     0.037 H 
BRANCH 117 120
ATOM    120  CG  GLU d   1     -26.112 -19.466  -2.615  0.00  0.00     0.018 C 
ATOM    121  H   GLU d   1     -26.330 -19.193  -3.647  0.00  0.00     0.049 H 
ATOM    122  H   GLU d   1     -27.013 -19.593  -2.014  0.00  0.00     0.049 H 
BRANCH 120 123
ATOM    123  CD  GLU d   1     -25.373 -20.789  -2.630  0.00  0.00     0.172 C 
ATOM    124  OE1 GLU d   1     -25.058 -21.269  -3.730  0.00  0.00    -0.648 OA
ATOM    125  OE2 GLU d   1     -25.104 -21.343  -1.530  0.00  0.00    -0.648 OA
ENDBRANCH 120 123
ENDBRANCH 117 120
ENDBRANCH 112 117
ENDBRANCH 110 112
ENDBRANCH 106 108
BRANCH 106 126
ATOM    126  CB  THR d   1     -28.139 -17.217   2.440  0.00  0.00     0.060 C 
ATOM    127  H   THR d   1     -28.239 -16.372   1.758  0.00  0.00     0.086 H 
BRANCH 126 128
ATOM    128  OG1 THR d   1     -27.154 -16.886   3.424  0.00  0.00    -0.393 OA
ATOM    129  H   THR d   1     -26.317 -16.707   2.990  0.00  0.00     0.210 HD
ENDBRANCH 126 128
BRANCH 126 130
ATOM    130  CG2 THR d   1     -29.483 -17.481   3.094  0.00  0.00    -0.050 C 
ATOM    131  H   THR d   1     -30.222 -17.707   2.325  0.00  0.00     0.031 H 
ATOM    132  H   THR d   1     -29.394 -18.328   3.775  0.00  0.00     0.031 H 
ATOM    133  H   THR d   1     -29.795 -16.597   3.650  0.00  0.00     0.031 H 
ENDBRANCH 126 130
ENDBRANCH 106 126
ENDBRANCH 104 106
ENDBRANCH 100 102
BRANCH 100 134
ATOM    134  CB  ASP d   1     -24.316 -21.380   2.021  0.00  0.00     0.043 C 
ATOM    135  H   ASP d   1     -24.930 -21.223   1.134  0.00  0.00     0.052 H 
ATOM    136  H   ASP d   1     -24.150 -22.435   2.237  0.00  0.00     0.052 H 
BRANCH 134 137
ATOM    137  CG  ASP d   1     -22.963 -20.737   1.771  0.00  0.00     0.175 C 
ATOM    138  OD1 ASP d   1     -22.914 -19.652   1.123  0.00  0.00    -0.648 OA
ATOM    139  OD2 ASP d   1     -21.954 -21.333   2.203  0.00  0.00    -0.648 OA
ENDBRANCH 134 137
ENDBRANCH 100 134
ENDBRANCH  98 100
ENDBRANCH  94  96
BRANCH  94 140
ATOM    140  CB  THR d   1     -26.904 -22.416   6.936  0.00  0.00     0.060 C 
ATOM    141  H   THR d   1     -27.392 -22.466   5.963  0.00  0.00     0.086 H 
BRANCH 140 142
ATOM    142  OG1 THR d   1     -27.224 -21.200   7.641  0.00  0.00    -0.393 OA
ATOM    143  H   THR d   1     -26.963 -20.445   7.109  0.00  0.00     0.210 HD
ENDBRANCH 140 142
BRANCH 140 144
ATOM    144  CG2 THR d   1     -27.410 -23.613   7.812  0.00  0.00    -0.050 C 
ATOM    145  H   THR d   1     -27.192 -24.552   7.303  0.00  0.00     0.031 H 
ATOM    146  H   THR d   1     -26.903 -23.595   8.777  0.00  0.00     0.031 H 
ATOM    147  H   THR d   1     -28.486 -23.522   7.963  0.00  0.00     0.031 H 
ENDBRANCH 140 144
ENDBRANCH  94 140
ENDBRANCH  92  94
ENDBRANCH  88  90
BRANCH  88 148
ATOM    148  CB  ILE d   1     -21.711 -22.552   9.701  0.00  0.00    -0.030 C 
ATOM    149  H   ILE d   1     -21.488 -23.587   9.442  0.00  0.00     0.043 H 
BRANCH 148 150
ATOM    150  CG1 ILE d   1     -20.979 -22.259  11.032  0.00  0.00    -0.063 C 
ATOM    151  H   ILE d   1     -21.661 -22.539  11.835  0.00  0.00     0.033 H 
ATOM    152  H   ILE d   1     -20.700 -21.206  11.013  0.00  0.00     0.033 H 
BRANCH 150 153
ATOM    153  CD1 ILE d   1     -19.723 -23.034  11.242  0.00  0.00    -0.076 C 
ATOM    154  H   ILE d   1     -19.950 -24.100  11.237  0.00  0.00     0.027 H 
ATOM    155  H   ILE d   1     -19.020 -22.808  10.441  0.00  0.00     0.027 H 
ATOM    156  H   ILE d   1     -19.284 -22.759  12.201  0.00  0.00     0.027 H 
ENDBRANCH 150 153
ENDBRANCH 148 150
BRANCH 148 157
ATOM    157  CG2 ILE d   1     -21.198 -21.643   8.554  0.00  0.00    -0.071 C 
ATOM    158  H   ILE d   1     -21.678 -21.933   7.620  0.00  0.00     0.028 H 
ATOM    159  H   ILE d   1     -21.439 -20.604   8.780  0.00  0.00     0.028 H 
ATOM    160  H   ILE d   1     -20.118 -21.755   8.459  0.00  0.00     0.028 H 
ENDBRANCH 148 157
ENDBRANCH  88 148
ENDBRANCH  86  88
ENDBRANCH   1  84
BRANCH   1 161
ATOM    161  CB  ILE d   1     -26.394 -23.647  13.134  0.00  0.00    -0.030 C 
ATOM    162  H   ILE d   1     -26.874 -22.668  13.137  0.00  0.00     0.043 H 
BRANCH 161 163
ATOM    163  CG1 ILE d   1     -26.836 -24.382  14.445  0.00  0.00    -0.063 C 
ATOM    164  H   ILE d   1     -26.492 -23.755  15.268  0.00  0.00     0.033 H 
ATOM    165  H   ILE d   1     -26.417 -25.386  14.379  0.00  0.00     0.033 H 
BRANCH 163 166
ATOM    166  CD1 ILE d   1     -28.369 -24.574  14.668  0.00  0.00    -0.076 C 
ATOM    167  H   ILE d   1     -28.855 -23.599  14.700  0.00  0.00     0.027 H 
ATOM    168  H   ILE d   1     -28.783 -25.161  13.848  0.00  0.00     0.027 H 
ATOM    169  H   ILE d   1     -28.535 -25.096  15.611  0.00  0.00     0.027 H 
ENDBRANCH 163 166
ENDBRANCH 161 163
BRANCH 161 170
ATOM    170  CG2 ILE d   1     -26.863 -24.358  11.807  0.00  0.00    -0.071 C 
ATOM    171  H   ILE d   1     -26.533 -23.775  10.947  0.00  0.00     0.028 H 
ATOM    172  H   ILE d   1     -26.429 -25.357  11.758  0.00  0.00     0.028 H 
ATOM    173  H   ILE d   1     -27.950 -24.433  11.801  0.00  0.00     0.028 H 
ENDBRANCH 161 170
ENDBRANCH   1 161
TORSDOF 52
