REMARK  1 active torsions:
REMARK  status: ('A' for Active; 'I' for Inactive)
REMARK    1  A    between atoms: NAA_1  and  CAY_25 
ROOT
ATOM      1  NAA SGE d   1      -3.499  -0.781 -28.906  0.00  0.00    -0.282 NA
ATOM      2  CAB SGE d   1      -4.479   1.443 -28.267  0.00  0.00     0.003 C 
ATOM      3  CAC SGE d   1      -2.262  -0.416 -28.194  0.00  0.00     0.033 C 
ATOM      4  CAD SGE d   1      -2.188   0.901 -27.463  0.00  0.00    -0.003 C 
ATOM      5  CAE SGE d   1      -1.311  -1.480 -27.934  0.00  0.00    -0.001 C 
ATOM      6  CAF SGE d   1      -3.237   1.958 -27.684  0.00  0.00    -0.014 C 
ATOM      7  CAG SGE d   1      -4.587  -0.063 -28.189  0.00  0.00     0.011 C 
ATOM      8  CAH SGE d   1      -5.636   2.312 -28.397  0.00  0.00     0.113 C 
ATOM      9  CAI SGE d   1      -1.499  -2.695 -28.666  0.00  0.00    -0.035 C 
ATOM     10  CAJ SGE d   1      -0.174  -1.185 -27.062  0.00  0.00    -0.021 C 
ATOM     11  CAK SGE d   1      -0.478  -3.653 -28.346  0.00  0.00     0.105 C 
ATOM     12  CAL SGE d   1       0.702  -3.293 -27.612  0.00  0.00     0.105 C 
ATOM     13  CAM SGE d   1      -1.068   1.088 -26.659  0.00  0.00    -0.070 C 
ATOM     14  CAN SGE d   1       0.870  -2.106 -26.894  0.00  0.00    -0.037 C 
ATOM     15  CAO SGE d   1      -3.113   3.361 -27.495  0.00  0.00    -0.069 C 
ATOM     16  CAP SGE d   1      -5.429   3.737 -28.183  0.00  0.00     0.105 C 
ATOM     17  OAQ SGE d   1      -6.957   2.143 -28.826  0.00  0.00    -0.322 OA
ATOM     18  OAR SGE d   1      -0.309  -4.907 -28.972  0.00  0.00    -0.323 OA
ATOM     19  OAS SGE d   1       1.473  -4.416 -27.569  0.00  0.00    -0.323 OA
ATOM     20  OAT SGE d   1      -6.623   4.342 -28.490  0.00  0.00    -0.323 OA
ATOM     21  CAU SGE d   1      -7.673   3.389 -28.764  0.00  0.00     0.115 C 
ATOM     22  CAV SGE d   1       0.972  -5.432 -28.507  0.00  0.00     0.115 C 
ATOM     23  CAW SGE d   1      -0.098   0.089 -26.490  0.00  0.00    -0.071 C 
ATOM     24  CAX SGE d   1      -4.228   4.225 -27.739  0.00  0.00    -0.047 C 
ATOM     25  H   SGE d   1      -4.521  -0.340 -27.137  0.00  0.00     0.063 H 
ATOM     26  H   SGE d   1      -5.529  -0.346 -28.660  0.00  0.00     0.063 H 
ATOM     27  H   SGE d   1      -2.310  -2.870 -29.373  0.00  0.00     0.089 H 
ATOM     28  H   SGE d   1      -0.940   2.040 -26.145  0.00  0.00     0.085 H 
ATOM     29  H   SGE d   1       1.735  -1.913 -26.260  0.00  0.00     0.089 H 
ATOM     30  H   SGE d   1      -2.164   3.781 -27.163  0.00  0.00     0.085 H 
ATOM     31  H   SGE d   1      -8.459   3.392 -28.009  0.00  0.00     0.118 H 
ATOM     32  H   SGE d   1      -8.222   3.611 -29.679  0.00  0.00     0.118 H 
ATOM     33  H   SGE d   1       1.665  -5.602 -29.331  0.00  0.00     0.118 H 
ATOM     34  H   SGE d   1       0.864  -6.407 -28.031  0.00  0.00     0.118 H 
ATOM     35  H   SGE d   1       0.771   0.320 -25.873  0.00  0.00     0.084 H 
ATOM     36  H   SGE d   1      -4.119   5.296 -27.568  0.00  0.00     0.087 H 
ENDROOT
BRANCH   1  37
ATOM     37  CAY SGE d   1      -3.416  -0.363 -30.350  0.00  0.00    -0.028 C 
ATOM     38  H   SGE d   1      -4.361  -0.585 -30.846  0.00  0.00     0.048 H 
ATOM     39  H   SGE d   1      -3.218   0.707 -30.406  0.00  0.00     0.048 H 
ATOM     40  H   SGE d   1      -2.610  -0.909 -30.839  0.00  0.00     0.048 H 
ENDBRANCH   1  37
TORSDOF 1
