REMARK  8 active torsions:
REMARK  status: ('A' for Active; 'I' for Inactive)
REMARK    1  A    between atoms: O3A_8  and  PB_1 
REMARK    2  A    between atoms: PA_5  and  O3A_8 
REMARK    3  A    between atoms: PA_5  and  O5'_9 
REMARK    4  A    between atoms: O5'_9  and  C5'_10 
REMARK    5  A    between atoms: C5'_10  and  C4'_11 
REMARK    6  A    between atoms: C3'_13  and  O3'_14 
REMARK    7  A    between atoms: C2'_15  and  O2'_16 
REMARK    8  A    between atoms: C1'_17  and  N9_18 
ROOT
ATOM      1  C4' ADP d   1      81.215   5.815  -6.545  0.00  0.00     0.089 C 
ATOM      2  O4' ADP d   1      80.876   4.784  -7.484  0.00  0.00    -0.353 OA
ATOM      3  C3' ADP d   1      81.209   7.134  -7.309  0.00  0.00     0.091 C 
ATOM      4  C2' ADP d   1      81.536   6.694  -8.715  0.00  0.00     0.105 C 
ATOM      5  C1' ADP d   1      80.980   5.271  -8.820  0.00  0.00     0.139 C 
ATOM      6  H   ADP d   1      82.209   5.651  -6.129  0.00  0.00     0.090 H 
ATOM      7  H   ADP d   1      80.264   7.669  -7.220  0.00  0.00     0.091 H 
ATOM      8  H   ADP d   1      81.101   7.335  -9.482  0.00  0.00     0.093 H 
ATOM      9  H   ADP d   1      81.628   4.631  -9.419  0.00  0.00     0.122 H 
ENDROOT
BRANCH   5  10
ATOM     10  N9  ADP d   1      79.642   5.286  -9.487  0.00  0.00    -0.294 N 
ATOM     11  C8  ADP d   1      78.456   5.479  -8.896  0.00  0.00     0.071 A 
ATOM     12  N7  ADP d   1      77.450   5.451  -9.804  0.00  0.00    -0.236 NA
ATOM     13  H   ADP d   1      78.318   5.638  -7.827  0.00  0.00     0.144 H 
ATOM     14  C5  ADP d   1      77.992   5.240 -11.004  0.00  0.00     0.149 A 
ATOM     15  C6  ADP d   1      77.486   5.095 -12.388  0.00  0.00     0.155 A 
ATOM     16  C4  ADP d   1      79.434   5.138 -10.796  0.00  0.00     0.167 A 
ATOM     17  N6  ADP d   1      76.150   5.182 -12.632  0.00  0.00    -0.382 N 
ATOM     18  N1  ADP d   1      78.381   4.882 -13.388  0.00  0.00    -0.222 NA
ATOM     19  H   ADP d   1      75.501   5.347 -11.863  0.00  0.00     0.157 HD
ATOM     20  H   ADP d   1      75.798   5.083 -13.584  0.00  0.00     0.157 HD
ATOM     21  C2  ADP d   1      79.705   4.804 -13.128  0.00  0.00     0.091 A 
ATOM     22  N3  ADP d   1      80.226   4.930 -11.882  0.00  0.00    -0.222 NA
ATOM     23  H   ADP d   1      80.387   4.631 -13.960  0.00  0.00     0.146 H 
ENDBRANCH   5  10
BRANCH   4  24
ATOM     24  O2' ADP d   1      82.956   6.743  -8.917  0.00  0.00    -0.388 OA
ATOM     25  H   ADP d   1      83.266   7.641  -8.783  0.00  0.00     0.210 HD
ENDBRANCH   4  24
BRANCH   1  26
ATOM     26  C5' ADP d   1      80.316   5.799  -5.303  0.00  0.00     0.058 C 
ATOM     27  H   ADP d   1      80.381   4.795  -4.885  0.00  0.00     0.079 H 
ATOM     28  H   ADP d   1      80.669   6.600  -4.653  0.00  0.00     0.079 H 
BRANCH  26  29
ATOM     29  O5' ADP d   1      78.930   6.051  -5.546  0.00  0.00    -0.287 OA
BRANCH  29  30
ATOM     30  PA  ADP d   1      77.965   6.037  -4.272  0.00  0.00     0.418 P 
ATOM     31  O1A ADP d   1      76.774   6.869  -4.635  0.00  0.00    -0.624 OA
ATOM     32  O2A ADP d   1      77.848   4.610  -3.832  0.00  0.00    -0.624 OA
BRANCH  30  33
ATOM     33  O3A ADP d   1      78.792   6.786  -3.128  0.00  0.00    -0.173 OA
BRANCH  33  34
ATOM     34  PB  ADP d   1      78.076   7.540  -1.909  0.00  0.00     0.431 P 
ATOM     35  O1B ADP d   1      78.092   9.002  -2.251  0.00  0.00    -0.616 OA
ATOM     36  O2B ADP d   1      79.034   7.164  -0.824  0.00  0.00    -0.616 OA
ATOM     37  O3B ADP d   1      76.686   6.985  -1.699  0.00  0.00    -0.616 OA
ENDBRANCH  33  34
ENDBRANCH  30  33
ENDBRANCH  29  30
ENDBRANCH  26  29
ENDBRANCH   1  26
BRANCH   3  38
ATOM     38  O3' ADP d   1      82.183   8.063  -6.813  0.00  0.00    -0.390 OA
ATOM     39  H   ADP d   1      83.059   7.679  -6.893  0.00  0.00     0.210 HD
ENDBRANCH   3  38
TORSDOF 8
