REMARK  9 active torsions:
REMARK  status: ('A' for Active; 'I' for Inactive)
REMARK    1  A    between atoms: C8_1  and  C7_2 
REMARK       I    between atoms: C7_2  and  N2_4 
REMARK    2  A    between atoms: N2_4  and  C2_5 
REMARK    3  A    between atoms: C3_6  and  O3_7 
REMARK    4  A    between atoms: C4_8  and  O4_9 
REMARK    5  A    between atoms: C5_10  and  C6_11 
REMARK    6  A    between atoms: C6_11  and  O6_12 
REMARK    7  A    between atoms: C1_14  and  O1_15 
REMARK    8  A    between atoms: O1_15  and  C1'_16 
REMARK    9  A    between atoms: C4'_19  and  N1'_20 
ROOT
ATOM      1  C2  LEC d   1      27.734 130.205  16.567  0.00  0.00     0.087 C 
ATOM      2  C3  LEC d   1      27.348 130.590  18.024  0.00  0.00     0.086 C 
ATOM      3  C4  LEC d   1      26.701 131.990  18.030  0.00  0.00     0.089 C 
ATOM      4  C5  LEC d   1      25.442 131.977  17.115  0.00  0.00     0.089 C 
ATOM      5  O5  LEC d   1      25.821 131.571  15.749  0.00  0.00    -0.349 OA
ATOM      6  C1  LEC d   1      26.480 130.244  15.677  0.00  0.00     0.159 C 
ATOM      7  H   LEC d   1      28.465 130.928  16.206  0.00  0.00     0.084 H 
ATOM      8  H   LEC d   1      26.633 129.866  18.414  0.00  0.00     0.090 H 
ATOM      9  H   LEC d   1      26.389 132.279  19.034  0.00  0.00     0.091 H 
ATOM     10  H   LEC d   1      24.735 131.258  17.528  0.00  0.00     0.090 H 
ATOM     11  H   LEC d   1      26.796 130.055  14.651  0.00  0.00     0.133 H 
ENDROOT
BRANCH   6  12
ATOM     12  O1  LEC d   1      25.548 129.244  16.088  0.00  0.00    -0.318 OA
BRANCH  12  13
ATOM     13  C1' LEC d   1      24.340 128.796  15.474  0.00  0.00     0.072 A 
ATOM     14  C2' LEC d   1      24.229 127.454  15.014  0.00  0.00    -0.048 A 
ATOM     15  C3' LEC d   1      23.030 127.018  14.404  0.00  0.00    -0.048 A 
ATOM     16  H   LEC d   1      25.065 126.765  15.131  0.00  0.00     0.087 H 
ATOM     17  C4' LEC d   1      21.921 127.918  14.250  0.00  0.00     0.103 A 
ATOM     18  H   LEC d   1      22.947 125.991  14.048  0.00  0.00     0.087 H 
ATOM     19  C5' LEC d   1      22.035 129.256  14.712  0.00  0.00    -0.048 A 
ATOM     20  C6' LEC d   1      23.239 129.697  15.323  0.00  0.00    -0.048 A 
ATOM     21  H   LEC d   1      21.198 129.945  14.598  0.00  0.00     0.087 H 
ATOM     22  H   LEC d   1      23.324 130.724  15.678  0.00  0.00     0.087 H 
BRANCH  17  23
ATOM     23  N1' LEC d   1      20.735 127.487  13.642  0.00  0.00    -0.116 N 
ATOM     24  O2' LEC d   1      19.764 128.275  13.503  0.00  0.00    -0.532 OA
ATOM     25  O1' LEC d   1      20.634 126.315  13.224  0.00  0.00    -0.532 OA
ENDBRANCH  17  23
ENDBRANCH  12  13
ENDBRANCH   6  12
BRANCH   1  26
ATOM     26  N2  LEC d   1      28.354 128.884  16.505  0.00  0.00    -0.349 N 
ATOM     27  C7  LEC d   1      29.674 128.716  16.301  0.00  0.00     0.214 C 
ATOM     28  O7  LEC d   1      30.432 129.690  16.153  0.00  0.00    -0.274 OA
ATOM     29  H   LEC d   1      27.765 128.059  16.620  0.00  0.00     0.163 HD
BRANCH  27  30
ATOM     30  C8  LEC d   1      30.249 127.307  16.251  0.00  0.00    -0.003 C 
ATOM     31  H   LEC d   1      30.716 127.141  15.280  0.00  0.00     0.040 H 
ATOM     32  H   LEC d   1      30.994 127.192  17.038  0.00  0.00     0.040 H 
ATOM     33  H   LEC d   1      29.447 126.583  16.399  0.00  0.00     0.040 H 
ENDBRANCH  27  30
ENDBRANCH   1  26
BRANCH   2  34
ATOM     34  O3  LEC d   1      28.515 130.573  18.863  0.00  0.00    -0.391 OA
ATOM     35  H   LEC d   1      28.898 129.692  18.859  0.00  0.00     0.210 HD
ENDBRANCH   2  34
BRANCH   4  36
ATOM     36  C6  LEC d   1      24.744 133.360  17.083  0.00  0.00     0.043 C 
ATOM     37  H   LEC d   1      24.749 133.773  18.092  0.00  0.00     0.078 H 
ATOM     38  H   LEC d   1      23.728 133.226  16.711  0.00  0.00     0.078 H 
BRANCH  36  39
ATOM     39  O6  LEC d   1      25.421 134.265  16.224  0.00  0.00    -0.398 OA
ATOM     40  H   LEC d   1      26.322 134.386  16.534  0.00  0.00     0.209 HD
ENDBRANCH  36  39
ENDBRANCH   4  36
BRANCH   3  41
ATOM     41  O4  LEC d   1      27.674 132.915  17.538  0.00  0.00    -0.390 OA
ATOM     42  H   LEC d   1      27.299 133.798  17.530  0.00  0.00     0.210 HD
ENDBRANCH   3  41
TORSDOF 9
