REMARK  10 active torsions:
REMARK  status: ('A' for Active; 'I' for Inactive)
REMARK    1  A    between atoms: C1_1  and  C2_2 
REMARK    2  A    between atoms: C2_2  and  C4_4 
REMARK    3  A    between atoms: C6_6  and  C17_17 
REMARK    4  A    between atoms: C9_9  and  O19_19 
REMARK    5  A    between atoms: C13_13  and  C23_23 
REMARK    6  A    between atoms: C14_14  and  O21_21 
REMARK    7  A    between atoms: C16_16  and  O20_20 
REMARK    8  A    between atoms: O21_21  and  C22_22 
REMARK       I    between atoms: C23_23  and  N25_25 
REMARK    9  A    between atoms: N25_25  and  C26_26 
REMARK   10  A    between atoms: C26_26  and  C27_27 
ROOT
ATOM      1  C4  CEK d   1      15.558  50.593  64.403  0.00  0.00     0.090 C 
ATOM      2  C5  CEK d   1      14.658  49.332  64.575  0.00  0.00     0.185 C 
ATOM      3  C6  CEK d   1      14.651  48.369  63.326  0.00  0.00     0.103 C 
ATOM      4  C7  CEK d   1      14.747  49.204  62.037  0.00  0.00     0.077 C 
ATOM      5  C8  CEK d   1      15.297  50.452  62.003  0.00  0.00    -0.020 C 
ATOM      6  C9  CEK d   1      15.801  51.040  63.130  0.00  0.00     0.085 C 
ATOM      7  O10 CEK d   1      14.222  48.582  60.934  0.00  0.00    -0.312 OA
ATOM      8  C11 CEK d   1      13.208  47.818  61.507  0.00  0.00     0.104 A 
ATOM      9  C12 CEK d   1      13.376  47.647  62.883  0.00  0.00     0.033 A 
ATOM     10  C13 CEK d   1      12.103  47.247  60.836  0.00  0.00     0.099 A 
ATOM     11  C14 CEK d   1      11.165  46.495  61.595  0.00  0.00     0.089 A 
ATOM     12  C15 CEK d   1      11.358  46.338  62.986  0.00  0.00    -0.017 A 
ATOM     13  C16 CEK d   1      12.455  46.910  63.624  0.00  0.00     0.079 A 
ATOM     14  O18 CEK d   1      14.011  49.093  65.593  0.00  0.00    -0.290 OA
ATOM     15  H   CEK d   1      15.335  50.992  61.057  0.00  0.00     0.091 H 
ATOM     16  H   CEK d   1      10.638  45.761  63.567  0.00  0.00     0.092 H 
ENDROOT
BRANCH  10  17
ATOM     17  C23 CEK d   1      11.992  47.480  59.328  0.00  0.00     0.257 C 
ATOM     18  O24 CEK d   1      12.997  47.711  58.658  0.00  0.00    -0.267 OA
ATOM     19  N25 CEK d   1      10.829  47.412  58.652  0.00  0.00    -0.352 N 
ATOM     20  H   CEK d   1      10.135  46.744  58.988  0.00  0.00     0.163 HD
BRANCH  19  21
ATOM     21  C26 CEK d   1      10.468  48.218  57.468  0.00  0.00     0.020 C 
ATOM     22  H   CEK d   1      10.735  47.646  56.579  0.00  0.00     0.071 H 
ATOM     23  H   CEK d   1      11.002  49.166  57.533  0.00  0.00     0.071 H 
BRANCH  21  24
ATOM     24  C27 CEK d   1       8.952  48.529  57.397  0.00  0.00    -0.029 A 
ATOM     25  C28 CEK d   1       7.917  47.562  57.550  0.00  0.00    -0.018 A 
ATOM     26  C29 CEK d   1       6.540  47.991  57.464  0.00  0.00    -0.025 A 
ATOM     27  C36 CEK d   1       8.176  46.201  57.784  0.00  0.00    -0.072 A 
ATOM     28  C30 CEK d   1       6.249  49.335  57.234  0.00  0.00    -0.072 A 
ATOM     29  C33 CEK d   1       5.507  47.051  57.613  0.00  0.00    -0.072 A 
ATOM     30  C31 CEK d   1       7.276  50.265  57.087  0.00  0.00    -0.082 A 
ATOM     31  H   CEK d   1       5.211  49.660  57.169  0.00  0.00     0.084 H 
ATOM     32  C32 CEK d   1       8.608  49.869  57.168  0.00  0.00    -0.074 A 
ATOM     33  H   CEK d   1       7.034  51.312  56.907  0.00  0.00     0.083 H 
ATOM     34  H   CEK d   1       9.396  50.613  57.051  0.00  0.00     0.084 H 
ATOM     35  C34 CEK d   1       5.809  45.711  57.843  0.00  0.00    -0.082 A 
ATOM     36  H   CEK d   1       4.467  47.371  57.548  0.00  0.00     0.084 H 
ATOM     37  C35 CEK d   1       7.133  45.288  57.927  0.00  0.00    -0.082 A 
ATOM     38  H   CEK d   1       5.002  44.987  57.958  0.00  0.00     0.083 H 
ATOM     39  H   CEK d   1       7.355  44.236  58.106  0.00  0.00     0.083 H 
ATOM     40  H   CEK d   1       9.207  45.855  57.855  0.00  0.00     0.084 H 
ENDBRANCH  21  24
ENDBRANCH  19  21
ENDBRANCH  10  17
BRANCH  11  41
ATOM     41  O21 CEK d   1      10.077  45.937  60.914  0.00  0.00    -0.355 OA
BRANCH  41  42
ATOM     42  C22 CEK d   1       9.119  45.012  61.489  0.00  0.00     0.010 C 
ATOM     43  H   CEK d   1       9.639  44.116  61.828  0.00  0.00     0.066 H 
ATOM     44  H   CEK d   1       8.620  45.486  62.334  0.00  0.00     0.066 H 
ATOM     45  H   CEK d   1       8.380  44.741  60.735  0.00  0.00     0.066 H 
ENDBRANCH  41  42
ENDBRANCH  11  41
BRANCH   3  46
ATOM     46  C17 CEK d   1      15.842  47.384  63.434  0.00  0.00    -0.052 C 
ATOM     47  H   CEK d   1      15.834  46.710  62.577  0.00  0.00     0.030 H 
ATOM     48  H   CEK d   1      16.776  47.946  63.447  0.00  0.00     0.030 H 
ATOM     49  H   CEK d   1      15.751  46.806  64.353  0.00  0.00     0.030 H 
ENDBRANCH   3  46
BRANCH  13  50
ATOM     50  O20 CEK d   1      12.607  46.734  64.974  0.00  0.00    -0.360 OA
ATOM     51  H   CEK d   1      13.403  47.184  65.266  0.00  0.00     0.217 HD
ENDBRANCH  13  50
BRANCH   6  52
ATOM     52  O19 CEK d   1      16.589  52.144  62.943  0.00  0.00    -0.360 OA
ATOM     53  H   CEK d   1      16.886  52.472  63.795  0.00  0.00     0.217 HD
ENDBRANCH   6  52
BRANCH   1  54
ATOM     54  C2  CEK d   1      16.116  51.253  65.656  0.00  0.00     0.162 C 
ATOM     55  O3  CEK d   1      17.239  51.754  65.656  0.00  0.00    -0.293 OA
BRANCH  54  56
ATOM     56  C1  CEK d   1      15.238  51.299  66.907  0.00  0.00    -0.016 C 
ATOM     57  H   CEK d   1      15.746  50.788  67.725  0.00  0.00     0.038 H 
ATOM     58  H   CEK d   1      15.055  52.337  67.183  0.00  0.00     0.038 H 
ATOM     59  H   CEK d   1      14.289  50.804  66.702  0.00  0.00     0.038 H 
ENDBRANCH  54  56
ENDBRANCH   1  54
TORSDOF 10
