REMARK WARNING: 32 MAX_TORS EXCEEDED!!!
REMARK  60 active torsions:
REMARK  status: ('A' for Active; 'I' for Inactive)
REMARK    1  A    between atoms: N_1  and  CA_2 
REMARK    2  A    between atoms: CA_2  and  C_3 
REMARK    3  A    between atoms: CA_2  and  CB_5 
REMARK    4  A    between atoms: C_3  and  O_4 
REMARK    5  A    between atoms: C_3  and  N_9 
REMARK    6  A    between atoms: CB_5  and  CG_6 
REMARK       I    between atoms: CG_6  and  ND2_8 
REMARK    7  A    between atoms: N_9  and  CA_10 
REMARK    8  A    between atoms: CA_10  and  CB_11 
REMARK    9  A    between atoms: CA_10  and  C_21 
REMARK   10  A    between atoms: CB_11  and  CG_12 
REMARK       I    between atoms: C_21  and  N_23 
REMARK   11  A    between atoms: N_23  and  CA_24 
REMARK   12  A    between atoms: CA_24  and  C_25 
REMARK   13  A    between atoms: CA_24  and  CB_27 
REMARK   14  A    between atoms: C_25  and  O_26 
REMARK   15  A    between atoms: C_25  and  N_35 
REMARK   16  A    between atoms: CB_27  and  CG_28 
REMARK   17  A    between atoms: CZ_33  and  OH_34 
REMARK   18  A    between atoms: N_35  and  CA_36 
REMARK   19  A    between atoms: CA_36  and  CB_37 
REMARK   20  A    between atoms: CA_36  and  C_38 
REMARK       I    between atoms: C_38  and  N_40 
REMARK   21  A    between atoms: N_40  and  CA_41 
REMARK   22  A    between atoms: CA_41  and  C_42 
REMARK   23  A    between atoms: CA_41  and  CB_44 
REMARK       I    between atoms: C_42  and  N_48 
REMARK   24  A    between atoms: CB_44  and  CG_45 
REMARK       I    between atoms: CG_45  and  ND2_47 
REMARK   25  A    between atoms: N_48  and  CA_49 
REMARK   26  A    between atoms: CA_49  and  CB_50 
REMARK   27  A    between atoms: CA_49  and  C_54 
REMARK   28  A    between atoms: CB_50  and  CG_51 
REMARK   29  A    between atoms: CG_51  and  CD1_52 
REMARK   30  A    between atoms: CG_51  and  CD2_53 
REMARK       I    between atoms: C_54  and  N_56 
REMARK   31  A    between atoms: N_56  and  CA_57 
REMARK   32  A    between atoms: CA_57  and  C_58 
REMARK   33  A    between atoms: CA_57  and  CB_60 
REMARK       I    between atoms: C_58  and  N_65 
REMARK   34  A    between atoms: CB_60  and  CG_61 
REMARK   35  A    between atoms: CG_61  and  CD_62 
REMARK   36  A    between atoms: N_65  and  CA_66 
REMARK   37  A    between atoms: CA_66  and  C_67 
REMARK   38  A    between atoms: CA_66  and  CB_69 
REMARK       I    between atoms: C_67  and  N_74 
REMARK   39  A    between atoms: CB_69  and  CG_70 
REMARK   40  A    between atoms: CG_70  and  CD_71 
REMARK   41  A    between atoms: CD_71  and  CE_72 
REMARK   42  A    between atoms: CE_72  and  NZ_73 
REMARK   43  A    between atoms: N_74  and  CA_75 
REMARK   44  A    between atoms: CA_75  and  CB_76 
REMARK   45  A    between atoms: CA_75  and  C_80 
REMARK   46  A    between atoms: CB_76  and  CG_77 
REMARK   47  A    between atoms: CG_77  and  CD1_78 
REMARK   48  A    between atoms: CG_77  and  CD2_79 
REMARK       I    between atoms: C_80  and  N_82 
REMARK   49  A    between atoms: N_82  and  CA_83 
REMARK   50  A    between atoms: CA_83  and  CB_84 
REMARK   51  A    between atoms: CA_83  and  C_88 
REMARK   52  A    between atoms: CB_84  and  CG_85 
REMARK   53  A    between atoms: CG_85  and  CD1_86 
REMARK   54  A    between atoms: CG_85  and  CD2_87 
REMARK       I    between atoms: C_88  and  N_90 
REMARK   55  A    between atoms: N_90  and  CA_91 
REMARK   56  A    between atoms: CA_91  and  CB_92 
REMARK   57  A    between atoms: CA_91  and  C_99 
REMARK   58  A    between atoms: CB_92  and  CG_93 
REMARK   59  A    between atoms: CG_93  and  CD_94 
REMARK   60  A    between atoms: CD_94  and  NE_95 
REMARK       I    between atoms: NE_95  and  CZ_96 
REMARK       I    between atoms: CZ_96  and  NH1_97 
ROOT
ATOM      1  CA  DLE d   1       6.977 -43.870   1.370  0.00  0.00     0.089 C 
ATOM      2  H46 DLE d   1       7.150 -43.322   0.432  0.00  0.00     0.087 H 
ENDROOT
BRANCH   1   3
ATOM      3  N   DLE d   1       5.514 -43.808   1.703  0.00  0.00    -0.346 N 
ATOM      4  C   DSG d   1       4.977 -42.728   2.144  0.00  0.00     0.241 C 
ATOM      5  O   DSG d   1       5.451 -41.569   2.320  0.00  0.00    -0.271 OA
ATOM      6  H45 DLE d   1       4.947 -44.623   1.579  0.00  0.00     0.163 HD
BRANCH   4   7
ATOM      7  CA  DSG d   1       3.489 -42.831   2.530  0.00  0.00     0.097 C 
ATOM      8  H40 DSG d   1       3.215 -41.894   3.036  0.00  0.00     0.088 H 
BRANCH   7   9
ATOM      9  N   DSG d   1       3.283 -43.900   3.518  0.00  0.00    -0.346 N 
ATOM     10  C   DAL d   1       3.761 -44.183   4.660  0.00  0.00     0.248 C 
ATOM     11  O   DAL d   1       4.334 -43.231   5.180  0.00  0.00    -0.271 OA
ATOM     12  H39 DSG d   1       2.600 -44.566   3.218  0.00  0.00     0.163 HD
BRANCH  10  13
ATOM     13  CA  DAL d   1       3.887 -45.419   5.504  0.00  0.00     0.177 C 
ATOM     14  H35 DAL d   1       4.706 -45.302   6.229  0.00  0.00     0.099 H 
BRANCH  13  15
ATOM     15  N   DAL d   1       4.177 -46.599   4.632  0.00  0.00    -0.035 N 
ATOM     16  H33 DAL d   1       4.392 -47.349   5.270  0.00  0.00     0.281 HD
ATOM     17  H34 DAL d   1       3.307 -46.796   4.162  0.00  0.00     0.281 HD
BRANCH  15  18
ATOM     18  C   DTY d   1       5.059 -46.673   3.732  0.00  0.00     0.210 C 
ATOM     19  H24 DTY d   1       4.662 -46.096   2.884  0.00  0.00     0.132 H 
BRANCH  18  20
ATOM     20  CA  DTY d   1       5.206 -48.099   3.188  0.00  0.00     0.065 C 
ATOM     21  H23 DTY d   1       5.112 -48.046   2.093  0.00  0.00     0.079 H 
BRANCH  20  22
ATOM     22  N   DTY d   1       4.087 -48.966   3.687  0.00  0.00    -0.350 N 
ATOM     23  C   DTR d   1       3.114 -49.040   2.829  0.00  0.00     0.249 C 
ATOM     24  O   DTR d   1       3.192 -48.448   1.701  0.00  0.00    -0.271 OA
ATOM     25  H22 DTY d   1       4.090 -49.431   4.573  0.00  0.00     0.163 HD
BRANCH  23  26
ATOM     26  CA  DTR d   1       2.115 -50.244   2.833  0.00  0.00     0.184 C 
ATOM     27  H13 DTR d   1       1.148 -49.868   2.467  0.00  0.00     0.100 H 
BRANCH  26  28
ATOM     28  N   DTR d   1       1.887 -50.736   4.221  0.00  0.00    -0.034 N 
ATOM     29  H11 DTR d   1       1.127 -51.391   4.122  0.00  0.00     0.281 HD
ATOM     30  H12 DTR d   1       2.734 -51.236   4.440  0.00  0.00     0.281 HD
BRANCH  28  31
ATOM     31  C   DSG d   1       1.580 -50.040   5.431  0.00  0.00     0.218 C 
ATOM     32  H5  DSG d   1       0.568 -50.255   5.804  0.00  0.00     0.132 H 
BRANCH  31  33
ATOM     33  CA  DSG d   1       2.641 -50.736   6.288  0.00  0.00     0.157 C 
ATOM     34  H4  DSG d   1       3.638 -50.610   5.840  0.00  0.00     0.091 H 
BRANCH  33  35
ATOM     35  N   DSG d   1       2.258 -52.152   6.331  0.00  0.00    -0.070 N 
ATOM     36  H1  DSG d   1       2.926 -52.664   6.886  0.00  0.00     0.274 HD
ATOM     37  H2  DSG d   1       2.243 -52.525   5.395  0.00  0.00     0.274 HD
ATOM     38  H3  DSG d   1       1.342 -52.240   6.742  0.00  0.00     0.274 HD
ENDBRANCH  33  35
BRANCH  33  39
ATOM     39  CB  DSG d   1       2.642 -50.196   7.733  0.00  0.00     0.039 C 
ATOM     40  H7  DSG d   1       1.620 -50.277   8.130  0.00  0.00     0.050 H 
ATOM     41  H8  DSG d   1       2.941 -49.138   7.704  0.00  0.00     0.050 H 
BRANCH  39  42
ATOM     42  CG  DSG d   1       3.605 -50.948   8.707  0.00  0.00     0.217 C 
ATOM     43  OD1 DSG d   1       4.483 -50.315   9.305  0.00  0.00    -0.274 OA
ATOM     44  ND2 DSG d   1       3.369 -52.279   8.904  0.00  0.00    -0.370 N 
ATOM     45  H9  DSG d   1       3.957 -52.806   9.518  0.00  0.00     0.159 HD
ATOM     46  H10 DSG d   1       2.608 -52.727   8.434  0.00  0.00     0.159 HD
ENDBRANCH  39  42
ENDBRANCH  33  39
ENDBRANCH  31  33
BRANCH  31  47
ATOM     47  O   DSG d   1       1.680 -48.805   5.245  0.00  0.00    -0.368 OA
ATOM     48  H6  DSG d   1       1.475 -48.347   6.052  0.00  0.00     0.212 HD
ENDBRANCH  31  47
ENDBRANCH  28  31
ENDBRANCH  26  28
BRANCH  26  49
ATOM     49  CB  DTR d   1       2.575 -51.365   1.828  0.00  0.00    -0.004 C 
ATOM     50  H14 DTR d   1       2.358 -51.021   0.806  0.00  0.00     0.044 H 
ATOM     51  H15 DTR d   1       1.996 -52.276   2.039  0.00  0.00     0.044 H 
BRANCH  49  52
ATOM     52  CG  DTR d   1       4.075 -51.717   1.911  0.00  0.00    -0.028 A 
ATOM     53  CD1 DTR d   1       4.564 -52.724   2.658  0.00  0.00    -0.015 A 
ATOM     54  NE1 DTR d   1       5.892 -52.797   2.529  0.00  0.00    -0.365 N 
ATOM     55  H16 DTR d   1       3.963 -53.386   3.280  0.00  0.00     0.112 H 
ATOM     56  CE2 DTR d   1       6.314 -51.838   1.685  0.00  0.00     0.042 A 
ATOM     57  H17 DTR d   1       6.499 -53.482   3.002  0.00  0.00     0.165 HD
ATOM     58  CZ2 DTR d   1       7.593 -51.476   1.232  0.00  0.00    -0.056 A 
ATOM     59  CD2 DTR d   1       5.168 -51.141   1.246  0.00  0.00    -0.002 A 
ATOM     60  CH2 DTR d   1       7.744 -50.422   0.317  0.00  0.00    -0.081 A 
ATOM     61  H18 DTR d   1       8.465 -52.011   1.589  0.00  0.00     0.086 H 
ATOM     62  CZ3 DTR d   1       6.608 -49.719  -0.130  0.00  0.00    -0.082 A 
ATOM     63  H19 DTR d   1       8.730 -50.151  -0.044  0.00  0.00     0.083 H 
ATOM     64  CE3 DTR d   1       5.328 -50.074   0.332  0.00  0.00    -0.070 A 
ATOM     65  H20 DTR d   1       6.721 -48.901  -0.833  0.00  0.00     0.083 H 
ATOM     66  H21 DTR d   1       4.459 -49.526  -0.015  0.00  0.00     0.084 H 
ENDBRANCH  49  52
ENDBRANCH  26  49
ENDBRANCH  23  26
ENDBRANCH  20  22
BRANCH  20  67
ATOM     67  CB  DTY d   1       6.619 -48.685   3.494  0.00  0.00    -0.018 C 
ATOM     68  H26 DTY d   1       7.370 -47.890   3.377  0.00  0.00     0.043 H 
ATOM     69  H27 DTY d   1       6.832 -49.498   2.784  0.00  0.00     0.043 H 
BRANCH  67  70
ATOM     70  CG  DTY d   1       6.694 -49.239   4.929  0.00  0.00    -0.056 A 
ATOM     71  CD1 DTY d   1       6.504 -50.608   5.152  0.00  0.00    -0.074 A 
ATOM     72  CE1 DTY d   1       6.533 -51.131   6.427  0.00  0.00    -0.051 A 
ATOM     73  H28 DTY d   1       6.331 -51.267   4.309  0.00  0.00     0.084 H 
ATOM     74  CZ  DTY d   1       6.820 -50.289   7.475  0.00  0.00     0.065 A 
ATOM     75  H30 DTY d   1       6.334 -52.182   6.599  0.00  0.00     0.087 H 
ATOM     76  CE2 DTY d   1       7.043 -48.946   7.273  0.00  0.00    -0.051 A 
ATOM     77  CD2 DTY d   1       6.991 -48.400   5.988  0.00  0.00    -0.074 A 
ATOM     78  H31 DTY d   1       7.261 -48.305   8.120  0.00  0.00     0.087 H 
ATOM     79  H29 DTY d   1       7.179 -47.345   5.825  0.00  0.00     0.084 H 
BRANCH  74  80
ATOM     80  OH  DTY d   1       6.894 -50.802   8.716  0.00  0.00    -0.361 OA
ATOM     81  H32 DTY d   1       6.253 -50.375   9.273  0.00  0.00     0.217 HD
ENDBRANCH  74  80
ENDBRANCH  67  70
ENDBRANCH  20  67
ENDBRANCH  18  20
BRANCH  18  82
ATOM     82  O   DTY d   1       6.115 -46.064   4.059  0.00  0.00    -0.368 OA
ATOM     83  H25 DTY d   1       6.753 -46.141   3.360  0.00  0.00     0.212 HD
ENDBRANCH  18  82
ENDBRANCH  15  18
ENDBRANCH  13  15
BRANCH  13  84
ATOM     84  CB  DAL d   1       2.554 -45.553   6.251  0.00  0.00    -0.041 C 
ATOM     85  H36 DAL d   1       2.392 -44.661   6.875  0.00  0.00     0.030 H 
ATOM     86  H37 DAL d   1       2.580 -46.448   6.890  0.00  0.00     0.030 H 
ATOM     87  H38 DAL d   1       1.734 -45.646   5.524  0.00  0.00     0.030 H 
ENDBRANCH  13  84
ENDBRANCH  10  13
ENDBRANCH   7   9
BRANCH   7  88
ATOM     88  CB  DSG d   1       2.615 -42.898   1.228  0.00  0.00     0.036 C 
ATOM     89  H41 DSG d   1       1.653 -43.389   1.437  0.00  0.00     0.051 H 
ATOM     90  H42 DSG d   1       3.145 -43.451   0.438  0.00  0.00     0.051 H 
BRANCH  88  91
ATOM     91  CG  DSG d   1       2.389 -41.433   0.800  0.00  0.00     0.217 C 
ATOM     92  OD1 DSG d   1       2.569 -41.045  -0.376  0.00  0.00    -0.274 OA
ATOM     93  ND2 DSG d   1       2.076 -40.631   1.844  0.00  0.00    -0.370 N 
ATOM     94  H43 DSG d   1       1.906 -39.657   1.693  0.00  0.00     0.159 HD
ATOM     95  H44 DSG d   1       2.015 -41.012   2.767  0.00  0.00     0.159 HD
ENDBRANCH  88  91
ENDBRANCH   7  88
ENDBRANCH   4   7
ENDBRANCH   1   3
BRANCH   1  96
ATOM     96  CB  DLE d   1       7.467 -45.292   1.226  0.00  0.00    -0.035 C 
ATOM     97  H47 DLE d   1       6.593 -45.957   1.159  0.00  0.00     0.037 H 
ATOM     98  H48 DLE d   1       8.056 -45.550   2.119  0.00  0.00     0.037 H 
BRANCH  96  99
ATOM     99  CG  DLE d   1       8.349 -45.514  -0.024  0.00  0.00    -0.059 C 
ATOM    100  H49 DLE d   1       7.637 -45.696  -0.843  0.00  0.00     0.038 H 
BRANCH  99 101
ATOM    101  CD1 DLE d   1       9.224 -44.392  -0.501  0.00  0.00    -0.073 C 
ATOM    102  H50 DLE d   1       9.780 -44.715  -1.393  0.00  0.00     0.028 H 
ATOM    103  H51 DLE d   1       9.933 -44.117   0.293  0.00  0.00     0.028 H 
ATOM    104  H52 DLE d   1       8.600 -43.522  -0.753  0.00  0.00     0.028 H 
ENDBRANCH  99 101
BRANCH  99 105
ATOM    105  CD2 DLE d   1       9.198 -46.774   0.112  0.00  0.00    -0.073 C 
ATOM    106  H53 DLE d   1       8.568 -47.605   0.461  0.00  0.00     0.028 H 
ATOM    107  H54 DLE d   1      10.005 -46.596   0.838  0.00  0.00     0.028 H 
ATOM    108  H55 DLE d   1       9.633 -47.030  -0.865  0.00  0.00     0.028 H 
ENDBRANCH  99 105
ENDBRANCH  96  99
ENDBRANCH   1  96
BRANCH   1 109
ATOM    109  C   DLE d   1       7.834 -43.240   2.527  0.00  0.00     0.241 C 
ATOM    110  O   DLE d   1       8.574 -42.288   2.184  0.00  0.00    -0.271 OA
ATOM    111  N   DGL d   1       7.778 -43.682   3.720  0.00  0.00    -0.346 N 
ATOM    112  H56 DGL d   1       7.198 -44.476   3.903  0.00  0.00     0.163 HD
BRANCH 111 113
ATOM    113  CA  DGL d   1       8.539 -43.073   4.874  0.00  0.00     0.090 C 
ATOM    114  H57 DGL d   1       9.613 -43.141   4.646  0.00  0.00     0.087 H 
BRANCH 113 115
ATOM    115  C   DGL d   1       8.151 -41.600   5.097  0.00  0.00     0.241 C 
ATOM    116  O   DGL d   1       9.144 -40.860   5.100  0.00  0.00    -0.271 OA
ATOM    117  N   DLY d   1       7.005 -41.145   4.823  0.00  0.00    -0.346 N 
ATOM    118  H62 DLY d   1       6.356 -41.764   4.380  0.00  0.00     0.163 HD
BRANCH 117 119
ATOM    119  CA  DLY d   1       6.556 -39.785   5.103  0.00  0.00     0.089 C 
ATOM    120  H63 DLY d   1       7.032 -39.452   6.037  0.00  0.00     0.087 H 
BRANCH 119 121
ATOM    121  C   DLY d   1       7.110 -38.957   3.961  0.00  0.00     0.241 C 
ATOM    122  O   DLY d   1       8.083 -38.302   4.335  0.00  0.00    -0.271 OA
ATOM    123  N   DLE d   1       7.265 -39.449   2.778  0.00  0.00    -0.346 N 
ATOM    124  H75 DLE d   1       6.864 -40.346   2.591  0.00  0.00     0.163 HD
BRANCH 123 125
ATOM    125  CA  DLE d   1       8.001 -38.772   1.668  0.00  0.00     0.089 C 
ATOM    126  H76 DLE d   1       7.709 -37.712   1.683  0.00  0.00     0.087 H 
BRANCH 125 127
ATOM    127  CB  DLE d   1       7.740 -39.308   0.229  0.00  0.00    -0.035 C 
ATOM    128  H77 DLE d   1       8.243 -40.280   0.118  0.00  0.00     0.037 H 
ATOM    129  H78 DLE d   1       8.158 -38.593  -0.495  0.00  0.00     0.037 H 
BRANCH 127 130
ATOM    130  CG  DLE d   1       6.232 -39.492  -0.069  0.00  0.00    -0.059 C 
ATOM    131  H79 DLE d   1       5.861 -40.227   0.660  0.00  0.00     0.038 H 
BRANCH 130 132
ATOM    132  CD1 DLE d   1       5.405 -38.205   0.146  0.00  0.00    -0.073 C 
ATOM    133  H80 DLE d   1       4.348 -38.406  -0.083  0.00  0.00     0.028 H 
ATOM    134  H81 DLE d   1       5.780 -37.413  -0.519  0.00  0.00     0.028 H 
ATOM    135  H82 DLE d   1       5.498 -37.880   1.193  0.00  0.00     0.028 H 
ENDBRANCH 130 132
BRANCH 130 136
ATOM    136  CD2 DLE d   1       5.978 -40.089  -1.470  0.00  0.00    -0.073 C 
ATOM    137  H83 DLE d   1       6.579 -41.002  -1.594  0.00  0.00     0.028 H 
ATOM    138  H84 DLE d   1       6.263 -39.355  -2.238  0.00  0.00     0.028 H 
ATOM    139  H85 DLE d   1       4.911 -40.335  -1.576  0.00  0.00     0.028 H 
ENDBRANCH 130 136
ENDBRANCH 127 130
ENDBRANCH 125 127
BRANCH 125 140
ATOM    140  C   DLE d   1       9.514 -38.881   1.941  0.00  0.00     0.241 C 
ATOM    141  O   DLE d   1      10.214 -37.928   1.571  0.00  0.00    -0.271 OA
ATOM    142  N   DLE d   1       9.976 -39.964   2.404  0.00  0.00    -0.346 N 
ATOM    143  H86 DLE d   1       9.383 -40.703   2.722  0.00  0.00     0.163 HD
BRANCH 142 144
ATOM    144  CA  DLE d   1      11.431 -40.064   2.443  0.00  0.00     0.089 C 
ATOM    145  H87 DLE d   1      11.849 -39.853   1.448  0.00  0.00     0.087 H 
BRANCH 144 146
ATOM    146  CB  DLE d   1      11.818 -41.492   2.864  0.00  0.00    -0.035 C 
ATOM    147  H88 DLE d   1      11.059 -41.859   3.570  0.00  0.00     0.037 H 
ATOM    148  H89 DLE d   1      12.796 -41.448   3.366  0.00  0.00     0.037 H 
BRANCH 146 149
ATOM    149  CG  DLE d   1      11.920 -42.502   1.698  0.00  0.00    -0.059 C 
ATOM    150  H90 DLE d   1      11.065 -42.344   1.024  0.00  0.00     0.038 H 
BRANCH 149 151
ATOM    151  CD1 DLE d   1      13.214 -42.364   0.855  0.00  0.00    -0.073 C 
ATOM    152  H91 DLE d   1      13.209 -43.114   0.051  0.00  0.00     0.028 H 
ATOM    153  H92 DLE d   1      14.091 -42.524   1.500  0.00  0.00     0.028 H 
ATOM    154  H93 DLE d   1      13.260 -41.356   0.416  0.00  0.00     0.028 H 
ENDBRANCH 149 151
BRANCH 149 155
ATOM    155  CD2 DLE d   1      11.819 -43.864   2.303  0.00  0.00    -0.073 C 
ATOM    156  H94 DLE d   1      10.894 -43.935   2.894  0.00  0.00     0.028 H 
ATOM    157  H95 DLE d   1      12.686 -44.040   2.956  0.00  0.00     0.028 H 
ATOM    158  H96 DLE d   1      11.802 -44.620   1.504  0.00  0.00     0.028 H 
ENDBRANCH 149 155
ENDBRANCH 146 149
ENDBRANCH 144 146
BRANCH 144 159
ATOM    159  C   DLE d   1      11.969 -38.982   3.484  0.00  0.00     0.241 C 
ATOM    160  O   DLE d   1      12.973 -38.313   3.111  0.00  0.00    -0.271 OA
ATOM    161  N   DAR d   1      11.266 -38.742   4.547  0.00  0.00    -0.345 N 
ATOM    162  H97 DAR d   1      10.421 -39.274   4.606  0.00  0.00     0.163 HD
BRANCH 161 163
ATOM    163  CA  DAR d   1      11.485 -37.819   5.699  0.00  0.00     0.096 C 
ATOM    164  H98 DAR d   1      12.463 -38.048   6.146  0.00  0.00     0.089 H 
BRANCH 163 165
ATOM    165  CB  DAR d   1      10.409 -37.948   6.768  0.00  0.00    -0.035 C 
ATOM    166  H99 DAR d   1       9.434 -38.080   6.276  0.00  0.00     0.036 H 
ATOM    167 0H10 DAR d   1      10.395 -37.028   7.370  0.00  0.00     0.036 H 
BRANCH 165 168
ATOM    168  CG  DAR d   1      10.659 -39.131   7.686  0.00  0.00    -0.047 C 
ATOM    169 1H10 DAR d   1      11.533 -38.933   8.323  0.00  0.00     0.035 H 
ATOM    170 2H10 DAR d   1      10.838 -40.038   7.089  0.00  0.00     0.035 H 
BRANCH 168 171
ATOM    171  CD  DAR d   1       9.415 -39.314   8.551  0.00  0.00     0.009 C 
ATOM    172 3H10 DAR d   1       8.725 -39.994   8.030  0.00  0.00     0.064 H 
ATOM    173 4H10 DAR d   1       8.934 -38.333   8.682  0.00  0.00     0.064 H 
BRANCH 171 174
ATOM    174  NE  DAR d   1       9.707 -39.877   9.891  0.00  0.00    -0.227 N 
ATOM    175  CZ  DAR d   1      10.310 -39.227  10.926  0.00  0.00     0.665 C 
ATOM    176  NH1 DAR d   1      10.822 -37.987  10.815  0.00  0.00    -0.235 N 
ATOM    177  NH2 DAR d   1      10.406 -39.871  12.102  0.00  0.00    -0.235 N 
ATOM    178 6H10 DAR d   1      11.268 -37.539  11.628  0.00  0.00     0.174 HD
ATOM    179 7H10 DAR d   1      10.768 -37.486   9.917  0.00  0.00     0.174 HD
ATOM    180 8H10 DAR d   1      10.019 -40.820  12.202  0.00  0.00     0.174 HD
ATOM    181 9H10 DAR d   1      10.867 -39.415  12.903  0.00  0.00     0.174 HD
ATOM    182 5H10 DAR d   1       9.427 -40.854  10.056  0.00  0.00     0.177 HD
ENDBRANCH 171 174
ENDBRANCH 168 171
ENDBRANCH 165 168
ENDBRANCH 163 165
BRANCH 163 183
ATOM    183  C   DAR d   1      11.469 -36.365   5.223  0.00  0.00     0.196 C 
ATOM    184  O   DAR d   1      12.184 -35.544   5.752  0.00  0.00    -0.646 OA
ATOM    185  OXT DAR d   1      10.800 -35.908   4.304  0.00  0.00    -0.646 OA
ENDBRANCH 163 183
ENDBRANCH 161 163
ENDBRANCH 144 159
ENDBRANCH 142 144
ENDBRANCH 125 140
ENDBRANCH 123 125
ENDBRANCH 119 121
BRANCH 119 186
ATOM    186  CB  DLY d   1       4.992 -39.623   5.314  0.00  0.00    -0.038 C 
ATOM    187  H64 DLY d   1       4.696 -40.178   6.216  0.00  0.00     0.036 H 
ATOM    188  H65 DLY d   1       4.471 -40.040   4.440  0.00  0.00     0.036 H 
BRANCH 186 189
ATOM    189  CG  DLY d   1       4.582 -38.149   5.481  0.00  0.00    -0.061 C 
ATOM    190  H66 DLY d   1       4.801 -37.632   4.535  0.00  0.00     0.033 H 
ATOM    191  H67 DLY d   1       5.199 -37.720   6.284  0.00  0.00     0.033 H 
BRANCH 189 192
ATOM    192  CD  DLY d   1       3.074 -37.874   5.838  0.00  0.00    -0.043 C 
ATOM    193  H68 DLY d   1       2.531 -37.716   4.894  0.00  0.00     0.035 H 
ATOM    194  H69 DLY d   1       3.036 -36.955   6.441  0.00  0.00     0.035 H 
BRANCH 192 195
ATOM    195  CE  DLY d   1       2.315 -39.012   6.646  0.00  0.00     0.080 C 
ATOM    196  H70 DLY d   1       2.976 -39.888   6.723  0.00  0.00     0.075 H 
ATOM    197  H71 DLY d   1       1.404 -39.287   6.094  0.00  0.00     0.075 H 
BRANCH 195 198
ATOM    198  NZ  DLY d   1       1.924 -38.582   8.033  0.00  0.00    -0.079 N 
ATOM    199  H72 DLY d   1       1.448 -39.339   8.498  0.00  0.00     0.274 HD
ATOM    200  H73 DLY d   1       1.311 -37.784   7.977  0.00  0.00     0.274 HD
ATOM    201  H74 DLY d   1       2.751 -38.335   8.554  0.00  0.00     0.274 HD
ENDBRANCH 195 198
ENDBRANCH 192 195
ENDBRANCH 189 192
ENDBRANCH 186 189
ENDBRANCH 119 186
ENDBRANCH 117 119
ENDBRANCH 113 115
BRANCH 113 202
ATOM    202  CB  DGL d   1       8.262 -43.763   6.209  0.00  0.00    -0.029 C 
ATOM    203  H58 DGL d   1       7.179 -43.831   6.391  0.00  0.00     0.037 H 
ATOM    204  H59 DGL d   1       8.739 -43.214   7.034  0.00  0.00     0.037 H 
BRANCH 202 205
ATOM    205  CG  DGL d   1       8.855 -45.120   6.074  0.00  0.00     0.018 C 
ATOM    206  H60 DGL d   1       9.201 -45.260   5.039  0.00  0.00     0.049 H 
ATOM    207  H61 DGL d   1       8.088 -45.873   6.310  0.00  0.00     0.049 H 
BRANCH 205 208
ATOM    208  CD  DGL d   1      10.043 -45.297   7.029  0.00  0.00     0.172 C 
ATOM    209  OE1 DGL d   1       9.832 -46.124   7.971  0.00  0.00    -0.648 OA
ATOM    210  OE2 DGL d   1      11.130 -44.711   6.748  0.00  0.00    -0.648 OA
ENDBRANCH 205 208
ENDBRANCH 202 205
ENDBRANCH 113 202
ENDBRANCH 111 113
ENDBRANCH   1 109
TORSDOF 60
