REMARK  16 active torsions:
REMARK  status: ('A' for Active; 'I' for Inactive)
REMARK       I    between atoms: N1_3  and  C1_1 
REMARK    1  A    between atoms: C1_1  and  C15_25 
REMARK    2  A    between atoms: C2_5  and  C3_9 
REMARK       I    between atoms: N2_7  and  C4_12 
REMARK    3  A    between atoms: C6_16  and  N2_7 
REMARK       I    between atoms: C3_9  and  N4_13 
REMARK    4  A    between atoms: C4_12  and  C7_17 
REMARK    5  A    between atoms: N4_13  and  C24_34 
REMARK    6  A    between atoms: N4_13  and  C25_35 
REMARK    7  A    between atoms: C8_18  and  O4_14 
REMARK    8  A    between atoms: C8_18  and  C5_15 
REMARK    9  A    between atoms: C6_16  and  C8_18 
REMARK   10  A    between atoms: C12_22  and  C6_16 
REMARK   11  A    between atoms: C11_21  and  C12_22 
REMARK   12  A    between atoms: C19_29  and  C28_38 
REMARK   13  A    between atoms: C24_34  and  C29_39 
REMARK   14  A    between atoms: C25_35  and  C30_40 
REMARK   15  A    between atoms: C29_39  and  C31_41 
REMARK   16  A    between atoms: C30_40  and  C32_42 
ROOT
ATOM      1  C6  74A d   1      22.452  10.762  22.925  0.00  0.00     0.043 C 
ATOM      2  H   74A d   1      21.579  11.305  22.563  0.00  0.00     0.077 H 
ENDROOT
BRANCH   1   3
ATOM      3  N2  74A d   1      23.504  11.731  23.295  0.00  0.00    -0.349 N 
ATOM      4  C4  74A d   1      23.301  13.036  23.390  0.00  0.00     0.252 C 
ATOM      5  O3  74A d   1      22.215  13.584  23.213  0.00  0.00    -0.268 OA
ATOM      6  H   74A d   1      24.440  11.374  23.488  0.00  0.00     0.163 HD
BRANCH   4   7
ATOM      7  C7  74A d   1      24.474  13.883  23.700  0.00  0.00     0.033 A 
ATOM      8  C10 74A d   1      25.767  13.492  23.222  0.00  0.00    -0.052 A 
ATOM      9  C2  74A d   1      26.897  14.308  23.505  0.00  0.00     0.033 A 
ATOM     10  H   74A d   1      25.884  12.575  22.645  0.00  0.00     0.086 H 
ATOM     11  C13 74A d   1      26.727  15.528  24.223  0.00  0.00    -0.062 A 
ATOM     12  C19 74A d   1      25.467  15.938  24.697  0.00  0.00    -0.060 A 
ATOM     13  H   74A d   1      27.596  16.160  24.410  0.00  0.00     0.085 H 
ATOM     14  C14 74A d   1      24.309  15.111  24.443  0.00  0.00    -0.062 A 
ATOM     15  H   74A d   1      23.326  15.409  24.807  0.00  0.00     0.085 H 
BRANCH   9  16
ATOM     16  C3  74A d   1      28.272  13.860  23.147  0.00  0.00     0.253 C 
ATOM     17  O2  74A d   1      29.028  13.742  24.142  0.00  0.00    -0.267 OA
ATOM     18  N4  74A d   1      28.628  13.543  21.873  0.00  0.00    -0.348 N 
BRANCH  18  19
ATOM     19  C24 74A d   1      29.945  12.911  21.622  0.00  0.00    -0.002 C 
ATOM     20  H   74A d   1      30.482  12.898  22.570  0.00  0.00     0.064 H 
ATOM     21  H   74A d   1      30.436  13.490  20.840  0.00  0.00     0.064 H 
BRANCH  19  22
ATOM     22  C29 74A d   1      29.860  11.446  21.123  0.00  0.00    -0.053 C 
ATOM     23  H   74A d   1      30.861  11.015  21.150  0.00  0.00     0.034 H 
ATOM     24  H   74A d   1      29.450  11.450  20.113  0.00  0.00     0.034 H 
BRANCH  22  25
ATOM     25  C31 74A d   1      28.942  10.595  22.015  0.00  0.00    -0.075 C 
ATOM     26  H   74A d   1      29.330  10.590  23.033  0.00  0.00     0.027 H 
ATOM     27  H   74A d   1      27.938  11.019  22.010  0.00  0.00     0.027 H 
ATOM     28  H   74A d   1      28.909   9.575  21.632  0.00  0.00     0.027 H 
ENDBRANCH  22  25
ENDBRANCH  19  22
ENDBRANCH  18  19
BRANCH  18  29
ATOM     29  C25 74A d   1      27.772  13.913  20.693  0.00  0.00    -0.002 C 
ATOM     30  H   74A d   1      26.852  14.361  21.070  0.00  0.00     0.064 H 
ATOM     31  H   74A d   1      27.586  13.008  20.114  0.00  0.00     0.064 H 
BRANCH  29  32
ATOM     32  C30 74A d   1      28.462  14.944  19.764  0.00  0.00    -0.053 C 
ATOM     33  H   74A d   1      27.744  15.237  18.998  0.00  0.00     0.034 H 
ATOM     34  H   74A d   1      29.354  14.475  19.348  0.00  0.00     0.034 H 
BRANCH  32  35
ATOM     35  C32 74A d   1      28.906  16.226  20.515  0.00  0.00    -0.075 C 
ATOM     36  H   74A d   1      28.034  16.707  20.958  0.00  0.00     0.027 H 
ATOM     37  H   74A d   1      29.613  15.959  21.301  0.00  0.00     0.027 H 
ATOM     38  H   74A d   1      29.383  16.910  19.813  0.00  0.00     0.027 H 
ENDBRANCH  32  35
ENDBRANCH  29  32
ENDBRANCH  18  29
ENDBRANCH   9  16
BRANCH  12  39
ATOM     39  C28 74A d   1      25.331  17.276  25.479  0.00  0.00    -0.051 C 
ATOM     40  H   74A d   1      24.652  17.941  24.944  0.00  0.00     0.033 H 
ATOM     41  H   74A d   1      24.935  17.075  26.474  0.00  0.00     0.033 H 
ATOM     42  H   74A d   1      26.310  17.747  25.564  0.00  0.00     0.033 H 
ENDBRANCH  12  39
ENDBRANCH   4   7
ENDBRANCH   1   3
BRANCH   1  43
ATOM     43  C8  74A d   1      21.907   9.950  24.118  0.00  0.00     0.084 C 
ATOM     44  H   74A d   1      22.760   9.471  24.599  0.00  0.00     0.089 H 
BRANCH  43  45
ATOM     45  O4  74A d   1      20.941   8.994  23.635  0.00  0.00    -0.391 OA
ATOM     46  H   74A d   1      21.359   8.415  22.993  0.00  0.00     0.210 HD
ENDBRANCH  43  45
BRANCH  43  47
ATOM     47  C5  74A d   1      21.178  10.844  25.140  0.00  0.00     0.143 C 
ATOM     48  N3  74A d   1      20.822   9.989  26.300  0.00  0.00    -0.065 N 
ATOM     49  C23 74A d   1      19.969  10.697  27.283  0.00  0.00     0.097 C 
ATOM     50  H   74A d   1      21.686   9.718  26.769  0.00  0.00     0.277 HD
ATOM     51  H   74A d   1      20.300   9.185  25.951  0.00  0.00     0.277 HD
ATOM     52  C22 74A d   1      18.652  11.165  26.571  0.00  0.00     0.020 C 
ATOM     53  H   74A d   1      20.502  11.562  27.677  0.00  0.00     0.078 H 
ATOM     54  H   74A d   1      19.724  10.027  28.107  0.00  0.00     0.078 H 
ATOM     55  N1  74A d   1      18.989  12.111  25.453  0.00  0.00    -0.344 N 
ATOM     56  H   74A d   1      18.133  10.297  26.165  0.00  0.00     0.066 H 
ATOM     57  H   74A d   1      18.012  11.672  27.293  0.00  0.00     0.066 H 
ATOM     58  C1  74A d   1      18.490  13.359  25.248  0.00  0.00     0.253 C 
ATOM     59  C9  74A d   1      19.942  11.545  24.477  0.00  0.00     0.027 C 
ATOM     60  O1  74A d   1      18.777  14.081  24.296  0.00  0.00    -0.267 OA
ATOM     61  H   74A d   1      20.320  12.370  23.873  0.00  0.00     0.067 H 
ATOM     62  H   74A d   1      19.409  10.790  23.900  0.00  0.00     0.067 H 
ATOM     63  H   74A d   1      21.814  11.657  25.489  0.00  0.00     0.091 H 
BRANCH  58  64
ATOM     64  C15 74A d   1      17.539  13.921  26.238  0.00  0.00     0.032 A 
ATOM     65  C26 74A d   1      18.074  14.624  27.372  0.00  0.00    -0.068 A 
ATOM     66  C34 74A d   1      17.170  15.164  28.330  0.00  0.00    -0.082 A 
ATOM     67  H   74A d   1      19.151  14.741  27.496  0.00  0.00     0.085 H 
ATOM     68  C35 74A d   1      15.755  14.985  28.142  0.00  0.00    -0.083 A 
ATOM     69  H   74A d   1      17.546  15.707  29.197  0.00  0.00     0.083 H 
ATOM     70  C33 74A d   1      15.222  14.292  27.013  0.00  0.00    -0.082 A 
ATOM     71  H   74A d   1      15.068  15.391  28.885  0.00  0.00     0.083 H 
ATOM     72  C27 74A d   1      16.127  13.751  26.057  0.00  0.00    -0.068 A 
ATOM     73  H   74A d   1      14.145  14.180  26.886  0.00  0.00     0.083 H 
ATOM     74  H   74A d   1      15.748  13.209  25.190  0.00  0.00     0.085 H 
ENDBRANCH  58  64
ENDBRANCH  43  47
ENDBRANCH   1  43
BRANCH   1  75
ATOM     75  C12 74A d   1      23.031   9.855  21.809  0.00  0.00    -0.020 C 
ATOM     76  H   74A d   1      22.204   9.292  21.377  0.00  0.00     0.043 H 
ATOM     77  H   74A d   1      23.791   9.217  22.260  0.00  0.00     0.043 H 
BRANCH  75  78
ATOM     78  C11 74A d   1      23.699  10.649  20.676  0.00  0.00    -0.050 A 
ATOM     79  C20 74A d   1      25.045  10.356  20.328  0.00  0.00    -0.039 A 
ATOM     80  C17 74A d   1      25.627  11.087  19.259  0.00  0.00     0.119 A 
ATOM     81  H   74A d   1      25.612   9.595  20.864  0.00  0.00     0.089 H 
ATOM     82  F1  74A d   1      26.838  10.841  18.912  0.00  0.00    -0.206 F 
ATOM     83  C16 74A d   1      24.968  12.101  18.559  0.00  0.00    -0.009 A 
ATOM     84  C18 74A d   1      23.646  12.400  18.971  0.00  0.00     0.119 A 
ATOM     85  H   74A d   1      25.447  12.635  17.738  0.00  0.00     0.092 H 
ATOM     86  F2  74A d   1      22.997  13.396  18.366  0.00  0.00    -0.206 F 
ATOM     87  C21 74A d   1      22.988  11.685  19.996  0.00  0.00    -0.039 A 
ATOM     88  H   74A d   1      21.957  11.919  20.263  0.00  0.00     0.089 H 
ENDBRANCH  75  78
ENDBRANCH   1  75
TORSDOF 16
