REMARK WARNING: 32 MAX_TORS EXCEEDED!!!
REMARK  49 active torsions:
REMARK  status: ('A' for Active; 'I' for Inactive)
REMARK    1  A    between atoms: N_1  and  CA_2 
REMARK    2  A    between atoms: CA_2  and  C_3 
REMARK    3  A    between atoms: CA_2  and  CB_5 
REMARK       I    between atoms: C_3  and  N_8 
REMARK    4  A    between atoms: CB_5  and  OG1_6 
REMARK    5  A    between atoms: CB_5  and  CG2_7 
REMARK    6  A    between atoms: N_8  and  CA_9 
REMARK    7  A    between atoms: CA_9  and  C_10 
REMARK    8  A    between atoms: CA_9  and  CB_12 
REMARK       I    between atoms: C_10  and  N_14 
REMARK    9  A    between atoms: CB_12  and  OG_13 
REMARK   10  A    between atoms: N_14  and  CA_15 
REMARK   11  A    between atoms: CA_15  and  C_16 
REMARK   12  A    between atoms: CA_15  and  CB_18 
REMARK       I    between atoms: C_16  and  N_25 
REMARK   13  A    between atoms: CB_18  and  CG_19 
REMARK   14  A    between atoms: N_25  and  CA_26 
REMARK   15  A    between atoms: CA_26  and  C_27 
REMARK   16  A    between atoms: CA_26  and  CB_29 
REMARK       I    between atoms: C_27  and  N_30 
REMARK   17  A    between atoms: N_30  and  CA_31 
REMARK   18  A    between atoms: CA_31  and  C_32 
REMARK   19  A    between atoms: CA_31  and  CB_34 
REMARK       I    between atoms: C_32  and  N_39 
REMARK   20  A    between atoms: CB_34  and  CG_35 
REMARK   21  A    between atoms: CG_35  and  CD_36 
REMARK   22  A    between atoms: N_39  and  CA_40 
REMARK   23  A    between atoms: CA_40  and  C_41 
REMARK   24  A    between atoms: CA_40  and  CB_43 
REMARK       I    between atoms: C_41  and  N_51 
REMARK   25  A    between atoms: CB_43  and  CG_44 
REMARK   26  A    between atoms: CZ_49  and  OH_50 
REMARK   27  A    between atoms: N_51  and  CA_52 
REMARK   28  A    between atoms: CA_52  and  C_53 
REMARK   29  A    between atoms: CA_52  and  CB_55 
REMARK       I    between atoms: C_53  and  N_65 
REMARK   30  A    between atoms: CB_55  and  CG_56 
REMARK   31  A    between atoms: N_65  and  CA_66 
REMARK   32  A    between atoms: CA_66  and  C_67 
REMARK   33  A    between atoms: CA_66  and  CB_69 
REMARK       I    between atoms: C_67  and  N_70 
REMARK   34  A    between atoms: N_70  and  CA_71 
REMARK   35  A    between atoms: CA_71  and  C_72 
REMARK   36  A    between atoms: CA_71  and  CB_74 
REMARK       I    between atoms: C_72  and  N_78 
REMARK   37  A    between atoms: CB_74  and  CG_75 
REMARK   38  A    between atoms: CG_75  and  CD1_76 
REMARK   39  A    between atoms: CG_75  and  CD2_77 
REMARK   40  A    between atoms: N_78  and  CA_79 
REMARK   41  A    between atoms: CA_79  and  C_80 
REMARK   42  A    between atoms: CA_79  and  CB_82 
REMARK       I    between atoms: C_80  and  N_86 
REMARK   43  A    between atoms: CB_82  and  CG_83 
REMARK   44  A    between atoms: CG_83  and  CD1_84 
REMARK   45  A    between atoms: CG_83  and  CD2_85 
REMARK   46  A    between atoms: N_86  and  CA_87 
REMARK   47  A    between atoms: CA_87  and  C_88 
REMARK   48  A    between atoms: CA_87  and  CB_90 
REMARK   49  A    between atoms: CB_90  and  OG_91 
ROOT
ATOM      1  CA  TYR d   1      37.641 -14.178  26.776  0.00  0.00     0.093 C 
ATOM      2  H36 TYR d   1      37.126 -13.231  26.559  0.00  0.00     0.088 H 
ENDROOT
BRANCH   1   3
ATOM      3  N   TYR d   1      37.854 -14.298  28.210  0.00  0.00    -0.346 N 
ATOM      4  C   GLU d   1      36.826 -14.279  29.048  0.00  0.00     0.241 C 
ATOM      5  O   GLU d   1      35.665 -14.298  28.643  0.00  0.00    -0.271 OA
ATOM      6  H35 TYR d   1      38.783 -14.396  28.567  0.00  0.00     0.163 HD
BRANCH   4   7
ATOM      7  CA  GLU d   1      37.126 -14.310  30.528  0.00  0.00     0.090 C 
ATOM      8  H30 GLU d   1      36.192 -14.595  31.034  0.00  0.00     0.087 H 
BRANCH   7   9
ATOM      9  N   GLU d   1      38.118 -15.320  30.850  0.00  0.00    -0.346 N 
ATOM     10  C   ALA d   1      37.868 -16.610  30.687  0.00  0.00     0.240 C 
ATOM     11  O   ALA d   1      36.749 -17.028  30.314  0.00  0.00    -0.271 OA
ATOM     12  H29 GLU d   1      39.009 -15.035  31.203  0.00  0.00     0.163 HD
BRANCH  10  13
ATOM     13  CA  ALA d   1      39.030 -17.542  30.982  0.00  0.00     0.086 C 
ATOM     14  H25 ALA d   1      38.804 -18.483  30.460  0.00  0.00     0.086 H 
BRANCH  13  15
ATOM     15  N   ALA d   1      40.337 -17.065  30.443  0.00  0.00    -0.346 N 
ATOM     16  C   PHE d   1      40.468 -16.825  29.136  0.00  0.00     0.241 C 
ATOM     17  O   PHE d   1      39.536 -16.881  28.396  0.00  0.00    -0.271 OA
ATOM     18  H24 ALA d   1      41.112 -16.925  31.059  0.00  0.00     0.163 HD
BRANCH  16  19
ATOM     19  CA  PHE d   1      41.865 -16.437  28.584  0.00  0.00     0.093 C 
ATOM     20  H16 PHE d   1      41.723 -15.928  27.619  0.00  0.00     0.088 H 
BRANCH  19  21
ATOM     21  N   PHE d   1      42.474 -15.490  29.485  0.00  0.00    -0.346 N 
ATOM     22  C   SER d   1      41.822 -14.406  29.928  0.00  0.00     0.243 C 
ATOM     23  O   SER d   1      40.807 -13.986  29.407  0.00  0.00    -0.271 OA
ATOM     24  H15 PHE d   1      43.413 -15.647  29.789  0.00  0.00     0.163 HD
BRANCH  22  25
ATOM     25  CA  SER d   1      42.379 -13.698  31.160  0.00  0.00     0.109 C 
ATOM     26  H11 SER d   1      43.478 -13.736  31.159  0.00  0.00     0.090 H 
BRANCH  25  27
ATOM     27  N   SER d   1      41.927 -12.330  31.106  0.00  0.00    -0.344 N 
ATOM     28  C   THR d   1      42.487 -11.413  30.323  0.00  0.00     0.251 C 
ATOM     29  O   THR d   1      43.434 -11.652  29.568  0.00  0.00    -0.271 OA
ATOM     30  H10 SER d   1      41.157 -12.059  31.684  0.00  0.00     0.163 HD
BRANCH  28  31
ATOM     31  CA  THR d   1      41.905  -9.990  30.379  0.00  0.00     0.199 C 
ATOM     32  H4  THR d   1      41.245  -9.877  31.252  0.00  0.00     0.103 H 
BRANCH  31  33
ATOM     33  N   THR d   1      43.021  -8.978  30.434  0.00  0.00    -0.064 N 
ATOM     34  H1  THR d   1      43.546  -9.102  31.286  0.00  0.00     0.275 HD
ATOM     35  H2  THR d   1      42.633  -8.048  30.412  0.00  0.00     0.275 HD
ATOM     36  H3  THR d   1      43.631  -9.107  29.642  0.00  0.00     0.275 HD
ENDBRANCH  31  33
BRANCH  31  37
ATOM     37  CB  THR d   1      41.133  -9.777  29.085  0.00  0.00     0.068 C 
ATOM     38  H5  THR d   1      41.772 -10.060  28.235  0.00  0.00     0.086 H 
BRANCH  37  39
ATOM     39  OG1 THR d   1      40.796  -8.392  28.984  0.00  0.00    -0.393 OA
ATOM     40  H6  THR d   1      40.313  -8.243  28.180  0.00  0.00     0.210 HD
ENDBRANCH  37  39
BRANCH  37  41
ATOM     41  CG2 THR d   1      39.821 -10.653  29.047  0.00  0.00    -0.050 C 
ATOM     42  H7  THR d   1      39.289 -10.475  28.101  0.00  0.00     0.031 H 
ATOM     43  H8  THR d   1      39.171 -10.377  29.891  0.00  0.00     0.031 H 
ATOM     44  H9  THR d   1      40.088 -11.717  29.123  0.00  0.00     0.031 H 
ENDBRANCH  37  41
ENDBRANCH  31  37
ENDBRANCH  28  31
ENDBRANCH  25  27
BRANCH  25  45
ATOM     45  CB  SER d   1      41.832 -14.386  32.435  0.00  0.00     0.044 C 
ATOM     46  H12 SER d   1      42.217 -13.865  33.324  0.00  0.00     0.077 H 
ATOM     47  H13 SER d   1      42.162 -15.435  32.453  0.00  0.00     0.077 H 
BRANCH  45  48
ATOM     48  OG  SER d   1      40.408 -14.339  32.441  0.00  0.00    -0.398 OA
ATOM     49  H14 SER d   1      40.122 -13.433  32.427  0.00  0.00     0.209 HD
ENDBRANCH  45  48
ENDBRANCH  25  45
ENDBRANCH  22  25
ENDBRANCH  19  21
BRANCH  19  50
ATOM     50  CB  PHE d   1      42.722 -17.712  28.307  0.00  0.00    -0.014 C 
ATOM     51  H17 PHE d   1      43.082 -18.109  29.268  0.00  0.00     0.043 H 
ATOM     52  H18 PHE d   1      43.582 -17.428  27.682  0.00  0.00     0.043 H 
BRANCH  50  53
ATOM     53  CG  PHE d   1      41.933 -18.816  27.585  0.00  0.00    -0.056 A 
ATOM     54  CD1 PHE d   1      41.838 -18.818  26.185  0.00  0.00    -0.077 A 
ATOM     55  CE1 PHE d   1      41.100 -19.780  25.498  0.00  0.00    -0.082 A 
ATOM     56  H19 PHE d   1      42.354 -18.049  25.622  0.00  0.00     0.084 H 
ATOM     57  CZ  PHE d   1      40.465 -20.812  26.222  0.00  0.00    -0.083 A 
ATOM     58  H21 PHE d   1      41.014 -19.736  24.418  0.00  0.00     0.083 H 
ATOM     59  CE2 PHE d   1      40.587 -20.843  27.649  0.00  0.00    -0.082 A 
ATOM     60  H23 PHE d   1      39.892 -21.572  25.704  0.00  0.00     0.083 H 
ATOM     61  CD2 PHE d   1      41.311 -19.841  28.311  0.00  0.00    -0.077 A 
ATOM     62  H22 PHE d   1      40.120 -21.640  28.216  0.00  0.00     0.083 H 
ATOM     63  H20 PHE d   1      41.390 -19.859  29.392  0.00  0.00     0.084 H 
ENDBRANCH  50  53
ENDBRANCH  19  50
ENDBRANCH  16  19
ENDBRANCH  13  15
BRANCH  13  64
ATOM     64  CB  ALA d   1      39.150 -17.895  32.520  0.00  0.00    -0.049 C 
ATOM     65  H26 ALA d   1      38.176 -18.244  32.893  0.00  0.00     0.030 H 
ATOM     66  H27 ALA d   1      39.458 -16.999  33.079  0.00  0.00     0.030 H 
ATOM     67  H28 ALA d   1      39.900 -18.688  32.657  0.00  0.00     0.030 H 
ENDBRANCH  13  64
ENDBRANCH  10  13
ENDBRANCH   7   9
BRANCH   7  68
ATOM     68  CB  GLU d   1      37.549 -12.939  31.101  0.00  0.00    -0.029 C 
ATOM     69  H31 GLU d   1      38.581 -12.729  30.782  0.00  0.00     0.037 H 
ATOM     70  H32 GLU d   1      37.508 -12.990  32.199  0.00  0.00     0.037 H 
BRANCH  68  71
ATOM     71  CG  GLU d   1      36.659 -11.804  30.636  0.00  0.00     0.018 C 
ATOM     72  H33 GLU d   1      35.610 -12.113  30.754  0.00  0.00     0.049 H 
ATOM     73  H34 GLU d   1      36.867 -11.611  29.573  0.00  0.00     0.049 H 
BRANCH  71  74
ATOM     74  CD  GLU d   1      36.864 -10.554  31.385  0.00  0.00     0.172 C 
ATOM     75  OE1 GLU d   1      35.908  -9.720  31.387  0.00  0.00    -0.648 OA
ATOM     76  OE2 GLU d   1      37.962 -10.408  31.967  0.00  0.00    -0.648 OA
ENDBRANCH  71  74
ENDBRANCH  68  71
ENDBRANCH   7  68
ENDBRANCH   4   7
ENDBRANCH   1   3
BRANCH   1  77
ATOM     77  C   TYR d   1      36.801 -15.341  26.327  0.00  0.00     0.241 C 
ATOM     78  O   TYR d   1      35.872 -15.195  25.548  0.00  0.00    -0.271 OA
ATOM     79  N   TRP d   1      37.169 -16.520  26.802  0.00  0.00    -0.346 N 
ATOM     80  H44 TRP d   1      38.009 -16.581  27.341  0.00  0.00     0.163 HD
BRANCH  79  81
ATOM     81  CA  TRP d   1      36.396 -17.734  26.570  0.00  0.00     0.093 C 
ATOM     82  H45 TRP d   1      36.393 -17.903  25.483  0.00  0.00     0.088 H 
BRANCH  81  83
ATOM     83  C   TRP d   1      34.928 -17.601  26.998  0.00  0.00     0.241 C 
ATOM     84  O   TRP d   1      34.011 -17.934  26.215  0.00  0.00    -0.271 OA
ATOM     85  N   ALA d   1      34.690 -17.073  28.204  0.00  0.00    -0.346 N 
ATOM     86  H54 ALA d   1      35.450 -16.722  28.750  0.00  0.00     0.163 HD
BRANCH  85  87
ATOM     87  CA  ALA d   1      33.334 -17.005  28.727  0.00  0.00     0.086 C 
ATOM     88  H55 ALA d   1      32.893 -18.012  28.697  0.00  0.00     0.086 H 
BRANCH  87  89
ATOM     89  C   ALA d   1      32.511 -16.081  27.849  0.00  0.00     0.240 C 
ATOM     90  O   ALA d   1      31.287 -16.273  27.701  0.00  0.00    -0.271 OA
ATOM     91  N   LEU d   1      33.172 -15.089  27.239  0.00  0.00    -0.346 N 
ATOM     92  H59 LEU d   1      34.152 -14.974  27.401  0.00  0.00     0.163 HD
BRANCH  91  93
ATOM     93  CA  LEU d   1      32.488 -14.188  26.354  0.00  0.00     0.089 C 
ATOM     94  H60 LEU d   1      31.611 -13.836  26.918  0.00  0.00     0.087 H 
BRANCH  93  95
ATOM     95  C   LEU d   1      31.974 -14.754  25.086  0.00  0.00     0.241 C 
ATOM     96  O   LEU d   1      31.239 -14.055  24.430  0.00  0.00    -0.271 OA
ATOM     97  N   LEU d   1      32.398 -15.953  24.707  0.00  0.00    -0.346 N 
ATOM     98  H70 LEU d   1      33.156 -16.380  25.199  0.00  0.00     0.163 HD
BRANCH  97  99
ATOM     99  CA  LEU d   1      31.767 -16.683  23.558  0.00  0.00     0.089 C 
ATOM    100  H71 LEU d   1      31.828 -16.047  22.663  0.00  0.00     0.087 H 
BRANCH  99 101
ATOM    101  C   LEU d   1      30.304 -16.950  23.863  0.00  0.00     0.241 C 
ATOM    102  O   LEU d   1      29.472 -17.105  22.944  0.00  0.00    -0.271 OA
ATOM    103  N   SER d   1      29.988 -16.977  25.164  0.00  0.00    -0.343 N 
ATOM    104  H81 SER d   1      30.723 -17.037  25.840  0.00  0.00     0.163 HD
BRANCH 103 105
ATOM    105  CA  SER d   1      28.622 -16.923  25.622  0.00  0.00     0.116 C 
ATOM    106  H82 SER d   1      28.012 -16.445  24.842  0.00  0.00     0.093 H 
BRANCH 105 107
ATOM    107  C   SER d   1      28.495 -16.080  26.917  0.00  0.00     0.198 C 
ATOM    108  O   SER d   1      27.896 -14.990  26.914  0.00  0.00    -0.646 OA
ATOM    109  OXT SER d   1      28.989 -16.475  27.988  0.00  0.00    -0.646 OA
ENDBRANCH 105 107
BRANCH 105 110
ATOM    110  CB  SER d   1      28.111 -18.329  25.836  0.00  0.00     0.045 C 
ATOM    111  H83 SER d   1      27.935 -18.814  24.865  0.00  0.00     0.077 H 
ATOM    112  H84 SER d   1      27.172 -18.302  26.408  0.00  0.00     0.077 H 
BRANCH 110 113
ATOM    113  OG  SER d   1      29.074 -19.029  26.544  0.00  0.00    -0.398 OA
ATOM    114  H85 SER d   1      29.224 -18.602  27.380  0.00  0.00     0.209 HD
ENDBRANCH 110 113
ENDBRANCH 105 110
ENDBRANCH 103 105
ENDBRANCH  99 101
BRANCH  99 115
ATOM    115  CB  LEU d   1      32.507 -17.981  23.275  0.00  0.00    -0.035 C 
ATOM    116  H72 LEU d   1      31.974 -18.503  22.467  0.00  0.00     0.037 H 
ATOM    117  H73 LEU d   1      32.477 -18.592  24.189  0.00  0.00     0.037 H 
BRANCH 115 118
ATOM    118  CG  LEU d   1      33.988 -17.837  22.850  0.00  0.00    -0.059 C 
ATOM    119  H74 LEU d   1      34.527 -17.258  23.614  0.00  0.00     0.038 H 
BRANCH 118 120
ATOM    120  CD1 LEU d   1      34.591 -19.247  22.762  0.00  0.00    -0.073 C 
ATOM    121  H75 LEU d   1      35.647 -19.176  22.461  0.00  0.00     0.028 H 
ATOM    122  H76 LEU d   1      34.036 -19.837  22.018  0.00  0.00     0.028 H 
ATOM    123  H77 LEU d   1      34.522 -19.737  23.744  0.00  0.00     0.028 H 
ENDBRANCH 118 120
BRANCH 118 124
ATOM    124  CD2 LEU d   1      34.119 -17.106  21.492  0.00  0.00    -0.073 C 
ATOM    125  H78 LEU d   1      33.683 -16.100  21.574  0.00  0.00     0.028 H 
ATOM    126  H79 LEU d   1      33.586 -17.675  20.716  0.00  0.00     0.028 H 
ATOM    127  H80 LEU d   1      35.182 -17.024  21.221  0.00  0.00     0.028 H 
ENDBRANCH 118 124
ENDBRANCH 115 118
ENDBRANCH  99 115
ENDBRANCH  97  99
ENDBRANCH  93  95
BRANCH  93 128
ATOM    128  CB  LEU d   1      33.310 -12.967  25.993  0.00  0.00    -0.035 C 
ATOM    129  H61 LEU d   1      32.795 -12.407  25.199  0.00  0.00     0.037 H 
ATOM    130  H62 LEU d   1      34.298 -13.290  25.632  0.00  0.00     0.037 H 
BRANCH 128 131
ATOM    131  CG  LEU d   1      33.493 -12.058  27.210  0.00  0.00    -0.059 C 
ATOM    132  H63 LEU d   1      33.890 -12.691  28.017  0.00  0.00     0.038 H 
BRANCH 131 133
ATOM    133  CD1 LEU d   1      34.541 -11.037  26.917  0.00  0.00    -0.073 C 
ATOM    134  H64 LEU d   1      34.672 -10.384  27.793  0.00  0.00     0.028 H 
ATOM    135  H65 LEU d   1      34.232 -10.432  26.052  0.00  0.00     0.028 H 
ATOM    136  H66 LEU d   1      35.492 -11.542  26.691  0.00  0.00     0.028 H 
ENDBRANCH 131 133
BRANCH 131 137
ATOM    137  CD2 LEU d   1      32.139 -11.454  27.766  0.00  0.00    -0.073 C 
ATOM    138  H67 LEU d   1      31.424 -12.269  27.955  0.00  0.00     0.028 H 
ATOM    139  H68 LEU d   1      31.716 -10.759  27.025  0.00  0.00     0.028 H 
ATOM    140  H69 LEU d   1      32.336 -10.914  28.704  0.00  0.00     0.028 H 
ENDBRANCH 131 137
ENDBRANCH 128 131
ENDBRANCH  93 128
ENDBRANCH  91  93
ENDBRANCH  87  89
BRANCH  87 141
ATOM    141  CB  ALA d   1      33.319 -16.518  30.162  0.00  0.00    -0.049 C 
ATOM    142  H56 ALA d   1      32.281 -16.479  30.525  0.00  0.00     0.030 H 
ATOM    143  H57 ALA d   1      33.764 -15.513  30.213  0.00  0.00     0.030 H 
ATOM    144  H58 ALA d   1      33.901 -17.209  30.790  0.00  0.00     0.030 H 
ENDBRANCH  87 141
ENDBRANCH  85  87
ENDBRANCH  81  83
BRANCH  81 145
ATOM    145  CB  TRP d   1      37.063 -18.954  27.208  0.00  0.00    -0.012 C 
ATOM    146  H46 TRP d   1      36.878 -18.944  28.292  0.00  0.00     0.044 H 
ATOM    147  H47 TRP d   1      38.146 -18.916  27.020  0.00  0.00     0.044 H 
BRANCH 145 148
ATOM    148  CG  TRP d   1      36.500 -20.222  26.619  0.00  0.00    -0.028 A 
ATOM    149  CD1 TRP d   1      35.597 -21.034  27.170  0.00  0.00    -0.015 A 
ATOM    150  NE1 TRP d   1      35.298 -22.083  26.300  0.00  0.00    -0.365 N 
ATOM    151  H48 TRP d   1      35.157 -20.898  28.157  0.00  0.00     0.112 H 
ATOM    152  CE2 TRP d   1      35.989 -21.885  25.136  0.00  0.00     0.042 A 
ATOM    153  H49 TRP d   1      34.666 -22.871  26.500  0.00  0.00     0.165 HD
ATOM    154  CD2 TRP d   1      36.790 -20.745  25.314  0.00  0.00    -0.002 A 
ATOM    155  CZ2 TRP d   1      36.033 -22.666  23.971  0.00  0.00    -0.056 A 
ATOM    156  CE3 TRP d   1      37.633 -20.317  24.251  0.00  0.00    -0.070 A 
ATOM    157  CZ3 TRP d   1      37.652 -21.071  23.079  0.00  0.00    -0.082 A 
ATOM    158  H50 TRP d   1      38.245 -19.428  24.350  0.00  0.00     0.084 H 
ATOM    159  CH2 TRP d   1      36.855 -22.231  22.950  0.00  0.00    -0.081 A 
ATOM    160  H52 TRP d   1      38.286 -20.764  22.256  0.00  0.00     0.083 H 
ATOM    161  H53 TRP d   1      36.890 -22.794  22.025  0.00  0.00     0.083 H 
ATOM    162  H51 TRP d   1      35.446 -23.573  23.876  0.00  0.00     0.086 H 
ENDBRANCH 145 148
ENDBRANCH  81 145
ENDBRANCH  79  81
ENDBRANCH   1  77
BRANCH   1 163
ATOM    163  CB  TYR d   1      38.973 -14.230  26.004  0.00  0.00    -0.014 C 
ATOM    164  H37 TYR d   1      38.742 -14.549  24.977  0.00  0.00     0.043 H 
ATOM    165  H38 TYR d   1      39.602 -14.989  26.491  0.00  0.00     0.043 H 
BRANCH 163 166
ATOM    166  CG  TYR d   1      39.793 -12.967  25.905  0.00  0.00    -0.056 A 
ATOM    167  CD1 TYR d   1      39.314 -11.856  25.215  0.00  0.00    -0.074 A 
ATOM    168  CE1 TYR d   1      40.081 -10.728  25.066  0.00  0.00    -0.051 A 
ATOM    169  H39 TYR d   1      38.318 -11.883  24.788  0.00  0.00     0.084 H 
ATOM    170  CZ  TYR d   1      41.344 -10.681  25.606  0.00  0.00     0.065 A 
ATOM    171  H41 TYR d   1      39.691  -9.875  24.523  0.00  0.00     0.087 H 
ATOM    172  CE2 TYR d   1      41.878 -11.779  26.297  0.00  0.00    -0.051 A 
ATOM    173  CD2 TYR d   1      41.097 -12.927  26.421  0.00  0.00    -0.074 A 
ATOM    174  H42 TYR d   1      42.873 -11.736  26.724  0.00  0.00     0.087 H 
ATOM    175  H40 TYR d   1      41.502 -13.799  26.922  0.00  0.00     0.084 H 
BRANCH 170 176
ATOM    176  OH  TYR d   1      42.077  -9.553  25.441  0.00  0.00    -0.361 OA
ATOM    177  H43 TYR d   1      41.568  -8.914  24.955  0.00  0.00     0.217 HD
ENDBRANCH 170 176
ENDBRANCH 163 166
ENDBRANCH   1 163
TORSDOF 49
