REMARK  5 active torsions:
REMARK  status: ('A' for Active; 'I' for Inactive)
REMARK    1  A    between atoms: C51_1  and  C11_2 
REMARK    2  A    between atoms: C11_2  and  C10_3 
REMARK       I    between atoms: C10_3  and  N11_5 
REMARK    3  A    between atoms: N11_5  and  C9_6 
REMARK    4  A    between atoms: C6_12  and  N1_16 
REMARK    5  A    between atoms: N1_16  and  C5_17 
ROOT
ATOM      1  C9  DJK d   1       8.196  -8.557  -2.262  0.00  0.00     0.035 A 
ATOM      2  C8  DJK d   1       7.803  -7.735  -3.335  0.00  0.00    -0.041 A 
ATOM      3  C13 DJK d   1       9.558  -8.876  -2.131  0.00  0.00    -0.055 A 
ATOM      4  C17 DJK d   1      10.530  -8.384  -3.009  0.00  0.00    -0.052 A 
ATOM      5  C18 DJK d   1      10.153  -7.544  -4.060  0.00  0.00     0.072 A 
ATOM      6  C7  DJK d   1       8.787  -7.227  -4.220  0.00  0.00     0.041 A 
ATOM      7  C6  DJK d   1       8.467  -6.381  -5.300  0.00  0.00     0.142 A 
ATOM      8  N3  DJK d   1       9.498  -5.928  -6.109  0.00  0.00    -0.224 NA
ATOM      9  C19 DJK d   1      10.791  -6.246  -5.921  0.00  0.00     0.089 A 
ATOM     10  N2  DJK d   1      11.116  -7.047  -4.903  0.00  0.00    -0.241 NA
ATOM     11  H   DJK d   1       6.751  -7.491  -3.484  0.00  0.00     0.088 H 
ATOM     12  H   DJK d   1       9.868  -9.530  -1.316  0.00  0.00     0.087 H 
ATOM     13  H   DJK d   1      11.577  -8.655  -2.874  0.00  0.00     0.087 H 
ATOM     14  H   DJK d   1      11.560  -5.857  -6.588  0.00  0.00     0.146 H 
ENDROOT
BRANCH   7  15
ATOM     15  N1  DJK d   1       7.139  -6.034  -5.491  0.00  0.00    -0.340 N 
ATOM     16  H   DJK d   1       6.477  -6.412  -4.813  0.00  0.00     0.167 HD
BRANCH  15  17
ATOM     17  C5  DJK d   1       6.603  -5.246  -6.478  0.00  0.00     0.035 A 
ATOM     18  C4  DJK d   1       7.136  -5.199  -7.781  0.00  0.00    -0.040 A 
ATOM     19  C3  DJK d   1       6.577  -4.398  -8.781  0.00  0.00     0.013 A 
ATOM     20  H   DJK d   1       8.011  -5.805  -8.017  0.00  0.00     0.089 H 
ATOM     21  C22 DJK d   1       5.449  -3.632  -8.479  0.00  0.00    -0.066 A 
ATOM     22 BR   DJK d   1       7.339  -4.387 -10.514  0.00  0.00    -0.051 Br
ATOM     23  C21 DJK d   1       4.909  -3.676  -7.181  0.00  0.00    -0.080 A 
ATOM     24  H   DJK d   1       4.990  -3.005  -9.243  0.00  0.00     0.085 H 
ATOM     25  C20 DJK d   1       5.477  -4.480  -6.190  0.00  0.00    -0.057 A 
ATOM     26  H   DJK d   1       4.033  -3.073  -6.944  0.00  0.00     0.083 H 
ATOM     27  H   DJK d   1       5.039  -4.508  -5.192  0.00  0.00     0.086 H 
ENDBRANCH  15  17
ENDBRANCH   7  15
BRANCH   1  28
ATOM     28  N11 DJK d   1       7.368  -9.166  -1.334  0.00  0.00    -0.327 N 
ATOM     29  C10 DJK d   1       6.256  -8.784  -0.668  0.00  0.00     0.221 C 
ATOM     30  O61 DJK d   1       5.348  -8.131  -1.194  0.00  0.00    -0.273 OA
ATOM     31  H   DJK d   1       7.663 -10.114  -1.101  0.00  0.00     0.169 HD
BRANCH  29  32
ATOM     32  C11 DJK d   1       6.143  -9.260   0.768  0.00  0.00     0.006 C 
ATOM     33  H   DJK d   1       5.129  -9.620   0.943  0.00  0.00     0.046 H 
ATOM     34  H   DJK d   1       6.866 -10.059   0.934  0.00  0.00     0.046 H 
BRANCH  32  35
ATOM     35  C51 DJK d   1       6.436  -8.120   1.734  0.00  0.00    -0.068 C 
ATOM     36  H   DJK d   1       7.447  -7.750   1.562  0.00  0.00     0.028 H 
ATOM     37  H   DJK d   1       5.721  -7.314   1.571  0.00  0.00     0.028 H 
ATOM     38  H   DJK d   1       6.350  -8.482   2.758  0.00  0.00     0.028 H 
ENDBRANCH  32  35
ENDBRANCH  29  32
ENDBRANCH   1  28
TORSDOF 5
