REMARK  20 active torsions:
REMARK  status: ('A' for Active; 'I' for Inactive)
REMARK    1  A    between atoms: PA_1  and  O3A_4 
REMARK    2  A    between atoms: PA_1  and  O5E_16 
REMARK    3  A    between atoms: O3A_4  and  PB_5 
REMARK    4  A    between atoms: PB_5  and  O3B_8 
REMARK    5  A    between atoms: O3B_8  and  PG_9 
REMARK    6  A    between atoms: PG_9  and  O3G_12 
REMARK    7  A    between atoms: O3G_12  and  PD_13 
REMARK    8  A    between atoms: PD_13  and  O5F_35 
REMARK    9  A    between atoms: O5E_16  and  C5E_17 
REMARK   10  A    between atoms: C5E_17  and  C4E_18 
REMARK   11  A    between atoms: C3E_20  and  O3E_21 
REMARK   12  A    between atoms: C2E_22  and  O2E_23 
REMARK   13  A    between atoms: C1E_24  and  N9A_25 
REMARK   14  A    between atoms: C6A_29  and  N6A_30 
REMARK   15  A    between atoms: O5F_35  and  C5F_36 
REMARK   16  A    between atoms: C5F_36  and  C4F_37 
REMARK   17  A    between atoms: C3F_39  and  O3F_40 
REMARK   18  A    between atoms: C2F_41  and  O2F_42 
REMARK   19  A    between atoms: C1F_43  and  N9B_44 
REMARK   20  A    between atoms: C6B_48  and  N6B_49 
ROOT
ATOM      1  O3B B4P d   1      13.174  -3.934  10.921  0.00  0.00    -0.180 OA
ENDROOT
BRANCH   1   2
ATOM      2  PB  B4P d   1      13.251  -3.682   9.279  0.00  0.00     0.427 P 
ATOM      3  O1B B4P d   1      12.921  -2.217   8.984  0.00  0.00    -0.624 OA
ATOM      4  O2B B4P d   1      14.452  -4.332   8.613  0.00  0.00    -0.624 OA
BRANCH   2   5
ATOM      5  O3A B4P d   1      11.946  -4.596   9.221  0.00  0.00    -0.180 OA
BRANCH   5   6
ATOM      6  PA  B4P d   1      11.190  -4.891   7.836  0.00  0.00     0.417 P 
ATOM      7  O1A B4P d   1       9.765  -4.399   8.037  0.00  0.00    -0.624 OA
ATOM      8  O2A B4P d   1      11.394  -6.389   7.616  0.00  0.00    -0.624 OA
BRANCH   6   9
ATOM      9  O5E B4P d   1      11.932  -4.024   6.679  0.00  0.00    -0.287 OA
BRANCH   9  10
ATOM     10  C5E B4P d   1      11.082  -3.804   5.575  0.00  0.00     0.058 C 
ATOM     11  H   B4P d   1      10.303  -3.116   5.904  0.00  0.00     0.079 H 
ATOM     12  H   B4P d   1      10.717  -4.780   5.254  0.00  0.00     0.079 H 
BRANCH  10  13
ATOM     13  C4E B4P d   1      11.753  -3.173   4.389  0.00  0.00     0.089 C 
ATOM     14  O4E B4P d   1      12.847  -3.943   3.890  0.00  0.00    -0.353 OA
ATOM     15  C1E B4P d   1      13.013  -3.621   2.534  0.00  0.00     0.139 C 
ATOM     16  C2E B4P d   1      11.563  -3.537   2.021  0.00  0.00     0.105 C 
ATOM     17  H   B4P d   1      13.589  -2.709   2.375  0.00  0.00     0.122 H 
ATOM     18  C3E B4P d   1      10.761  -3.151   3.259  0.00  0.00     0.091 C 
ATOM     19  H   B4P d   1      11.194  -4.473   1.601  0.00  0.00     0.093 H 
ATOM     20  H   B4P d   1       9.904  -3.814   3.374  0.00  0.00     0.091 H 
ATOM     21  H   B4P d   1      12.106  -2.193   4.712  0.00  0.00     0.090 H 
BRANCH  15  22
ATOM     22  N9A B4P d   1      13.728  -4.704   1.835  0.00  0.00    -0.294 N 
ATOM     23  C8A B4P d   1      13.496  -6.048   1.892  0.00  0.00     0.071 A 
ATOM     24  N7A B4P d   1      14.395  -6.666   1.071  0.00  0.00    -0.236 NA
ATOM     25  H   B4P d   1      12.728  -6.541   2.488  0.00  0.00     0.144 H 
ATOM     26  C5A B4P d   1      15.172  -5.718   0.468  0.00  0.00     0.149 A 
ATOM     27  C6A B4P d   1      16.242  -5.737  -0.442  0.00  0.00     0.155 A 
ATOM     28  C4A B4P d   1      14.749  -4.484   0.971  0.00  0.00     0.167 A 
ATOM     29  N1A B4P d   1      16.788  -4.559  -0.836  0.00  0.00    -0.222 NA
ATOM     30  C2A B4P d   1      16.356  -3.378  -0.327  0.00  0.00     0.091 A 
ATOM     31  N3A B4P d   1      15.344  -3.336   0.555  0.00  0.00    -0.222 NA
ATOM     32  H   B4P d   1      16.837  -2.450  -0.638  0.00  0.00     0.146 H 
BRANCH  27  33
ATOM     33  N6A B4P d   1      16.729  -6.889  -0.999  0.00  0.00    -0.382 N 
ATOM     34  H   B4P d   1      16.312  -7.788  -0.758  0.00  0.00     0.157 HD
ATOM     35  H   B4P d   1      17.509  -6.848  -1.655  0.00  0.00     0.157 HD
ENDBRANCH  27  33
ENDBRANCH  15  22
BRANCH  16  36
ATOM     36  O2E B4P d   1      11.433  -2.641   0.910  0.00  0.00    -0.388 OA
ATOM     37  H   B4P d   1      10.513  -2.599   0.640  0.00  0.00     0.210 HD
ENDBRANCH  16  36
BRANCH  18  38
ATOM     38  O3E B4P d   1      10.325  -1.780   3.175  0.00  0.00    -0.390 OA
ATOM     39  H   B4P d   1       9.683  -1.692   2.466  0.00  0.00     0.210 HD
ENDBRANCH  18  38
ENDBRANCH  10  13
ENDBRANCH   9  10
ENDBRANCH   6   9
ENDBRANCH   5   6
ENDBRANCH   2   5
ENDBRANCH   1   2
BRANCH   1  40
ATOM     40  PG  B4P d   1      14.277  -4.627  11.868  0.00  0.00     0.427 P 
ATOM     41  O1G B4P d   1      14.015  -6.080  12.073  0.00  0.00    -0.624 OA
ATOM     42  O2G B4P d   1      15.630  -4.295  11.270  0.00  0.00    -0.624 OA
BRANCH  40  43
ATOM     43  O3G B4P d   1      14.144  -3.847  13.260  0.00  0.00    -0.180 OA
BRANCH  43  44
ATOM     44  PD  B4P d   1      13.580  -4.327  14.693  0.00  0.00     0.417 P 
ATOM     45  O1D B4P d   1      12.402  -5.198  14.456  0.00  0.00    -0.624 OA
ATOM     46  O2D B4P d   1      14.681  -4.772  15.614  0.00  0.00    -0.624 OA
BRANCH  44  47
ATOM     47  O5F B4P d   1      13.008  -2.916  15.194  0.00  0.00    -0.287 OA
BRANCH  47  48
ATOM     48  C5F B4P d   1      13.764  -1.715  15.089  0.00  0.00     0.058 C 
ATOM     49  H   B4P d   1      13.735  -1.323  14.072  0.00  0.00     0.079 H 
ATOM     50  H   B4P d   1      14.814  -1.893  15.322  0.00  0.00     0.079 H 
BRANCH  48  51
ATOM     51  C4F B4P d   1      13.144  -0.726  16.075  0.00  0.00     0.089 C 
ATOM     52  O4F B4P d   1      11.713  -0.657  15.939  0.00  0.00    -0.353 OA
ATOM     53  C1F B4P d   1      11.083  -0.445  17.209  0.00  0.00     0.139 C 
ATOM     54  C2F B4P d   1      12.231  -0.443  18.235  0.00  0.00     0.105 C 
ATOM     55  H   B4P d   1      10.491   0.470  17.226  0.00  0.00     0.122 H 
ATOM     56  C3F B4P d   1      13.327  -1.197  17.507  0.00  0.00     0.091 C 
ATOM     57  H   B4P d   1      11.951  -0.885  19.191  0.00  0.00     0.093 H 
ATOM     58  H   B4P d   1      13.244  -2.272  17.664  0.00  0.00     0.091 H 
ATOM     59  H   B4P d   1      13.633   0.225  15.863  0.00  0.00     0.090 H 
BRANCH  53  60
ATOM     60  N9B B4P d   1      10.215  -1.627  17.512  0.00  0.00    -0.294 N 
ATOM     61  C8B B4P d   1      10.217  -2.802  16.851  0.00  0.00     0.071 A 
ATOM     62  N7B B4P d   1       9.321  -3.664  17.389  0.00  0.00    -0.236 NA
ATOM     63  H   B4P d   1      10.855  -3.029  15.997  0.00  0.00     0.144 H 
ATOM     64  C5B B4P d   1       8.714  -3.052  18.427  0.00  0.00     0.149 A 
ATOM     65  C6B B4P d   1       7.744  -3.406  19.361  0.00  0.00     0.155 A 
ATOM     66  C4B B4P d   1       9.309  -1.709  18.511  0.00  0.00     0.167 A 
ATOM     67  N1B B4P d   1       7.348  -2.499  20.307  0.00  0.00    -0.222 NA
ATOM     68  C2B B4P d   1       7.896  -1.260  20.368  0.00  0.00     0.091 A 
ATOM     69  N3B B4P d   1       8.859  -0.862  19.489  0.00  0.00    -0.222 NA
ATOM     70  H   B4P d   1       7.559  -0.566  21.138  0.00  0.00     0.146 H 
BRANCH  65  71
ATOM     71  N6B B4P d   1       7.191  -4.644  19.301  0.00  0.00    -0.382 N 
ATOM     72  H   B4P d   1       7.487  -5.300  18.579  0.00  0.00     0.157 HD
ATOM     73  H   B4P d   1       6.479  -4.918  19.978  0.00  0.00     0.157 HD
ENDBRANCH  65  71
ENDBRANCH  53  60
BRANCH  54  74
ATOM     74  O2F B4P d   1      12.659   0.899  18.541  0.00  0.00    -0.388 OA
ATOM     75  H   B4P d   1      13.439   0.865  19.099  0.00  0.00     0.210 HD
ENDBRANCH  54  74
BRANCH  56  76
ATOM     76  O3F B4P d   1      14.639  -0.876  17.951  0.00  0.00    -0.390 OA
ATOM     77  H   B4P d   1      14.751  -1.175  18.856  0.00  0.00     0.210 HD
ENDBRANCH  56  76
ENDBRANCH  48  51
ENDBRANCH  47  48
ENDBRANCH  44  47
ENDBRANCH  43  44
ENDBRANCH  40  43
ENDBRANCH   1  40
TORSDOF 20
